data_image0
_chemical_formula_structural       FeS2FeS2FeSFeS3FeS2FeS2FeHFeS3C6HCH4C2H8C3H2CH2NHC6H4C6H4C2H7CSH3NC7H9CH9CH4CNC3H2C2HC2HSH9C2HFeH3C3H4CH3CH4C2S2HCH2C3HCH2CH3CHCH2CH3CHSH2NCH2CH2CH5CHCH2C3SHC2HCNH3CH2CH2C2HCH2C3H2CH3FeHC2HNC7H2CH3C3H3CH3C2H2CH5C2HCH12CHCH10CSH3CH2CFeH5C2FeS2FeSHFeSFeS3FeS2FeS2FeSFeS3CHC2HC3H6C4H2C4HCHCH4C6H5C5H3C5H3NC9H16CHCH6CH2C2H2NH2CH6SH7SHCS2NH2CHSHCH3FeC2HCH9CHC4H3CH2CHCHCHC3H3CHCH2C3H6CH2C2HC2NC2HC5H3CH2CH2CH4C2H2CSH3C2H2C2H3NC2H2C3H4CSH2CH3CH6NH2CH4C2HSHSH3CH16C2H4CHCNH2CHFeH4CH11CH4C2HCH3CH2CH8C2H3CHC2HNH4C2H3CH3CH7CH3C2H2C2HCH2CH3SHCH7CHCH4CHCH3CH2C3H2C2H3C3H12CH3CH3C2H4CH3C2NFeS2CHC3SFeSHSCFeSHFeS2FeSFeHS3HFeS2FeSFeSHCH3CHC6H6C2H2CHCH2CHC3H2SHCSCHCH2CH2C6H5NC3HCHC2H2CH6C2H3CH2NH3C3H8CHC3HCH2SHSHSCH3C2FeSC2HC2H3C2HCH4SHCH3C2HFeNC6SC3H5CFeH6CH9CH2NC12H28CH3CH8C2H3CHCH9CHSH10CSFeS2HSCHSHFeSNSCFeSHFeS2FeSFeCS2H3S2FeSFeSH3CHSHC6H5C3H5FeH2CH5CNC3H2SC2H2C6H6CH4CHCHCHCHCH2CH3C3H3CH5FeH2CH8CH5SFeHSC4H3C2H4CH6NCHC3NH2C2H2CHFeH5CNFeH3C2FeSH2C2H2CH2C3HSHC2H3FeSC2HC5H5CHC3H3CH2CH4C2HC4H8CHCH3C2H4C2H3C2H4SCH5CSC3H3CH2CHCSH4FeHCH2FeS2FeSFeCS2HSH5CHC3H4C2H3CHCH3SHCHCH2CHSH3C3HC6H4SCHCHC2HFeH2C2HC3H6C2H3C2HC3HC3HC2SHSC4H6C4Fe2HCHFeH4CHCH6FeH7NSH2CHC2H2CHCS2HNSC2SH4SHSC2H5C2H3CH3CH6C2H2CHNHSCH2C2H2C4HC2SH2SCH8CNHCH2CH2FeHCHCHCFeH3CSH4C3HCH4C4FeCH3SHNCHCH6C2H6CH3CH10CH2FeNC2H8CH2FeHFeHSHCH3C2HCFeS2FeCFeS2HCSHC2SC2HC5HCH3CHC2H5CH2CH2SH3CH2C2HC6H4SCHNHCH3SH2CH5SNC3FeHCHC5H5CHC2H2FeHFeH7NFeSHC2HCHCH2CSCH9SH2CHNC12H18FeCFeHCHSH2SCSH2SH2SH3CHCH3FeHC2HSH4SCH2CHSCNH2CSCH6FeC3SHFeHCH2CHCH2CSH9CH7C3H2C2H2C2H7CH3FeS2FeS2HSFeSHSFeS2FeHFe2S2FeS2FeSFeSFeS2NC8H2C6H3C7H3C6H2SCH6C3HC2H3C3HCSH3SHNHCHSHCH2FeCSHCSC5H5C2H2CH5CH2C2HCHCH3NHC4H3CSC3H8CH5CH10SHCH7CH4SHCH4CH2CSHCHCFeCHCHCH3CH2CH3C3NH2C2HC2H2CH5CH2FeCH3NC12H28SFeSH5NCH2C3H2CNCH3C2H2CHC6H4C3H4CHCSH2CH11C2HCFeCHCHCH3CHCH13NCH2CH4CH2C2H2CNHCH4SH3FeSHFeS2CSFeSHSFeS2FeHFe2S2FeS2FeSFeSFeS3C2HC4H3C6H4C6H3C6H3C2H8SCHSFeHC5H3CSC2SC5H2C2H8C2HCH7CH3C2HCH8CHCH6CHC2HSC2H7CH2C2H2CHC2NHCHCHCHCH10C3H2NCHCHSNH2CH3SHFeCSCH3CHCH5CSH4C2H2CH3C2H3N2HCHC3H8SH3SHC2HNH2SH3CH5C2H4FeCHCH4CH3C3FeHC2HCSCH5CH3CFeHC2H7NC11H18C2H2CH2CHCH3C2H4C3H5SCH2C2H2NHFeSC2SHSFeSHCFeS2FeS2FeCFeS5H4NH2CHSHSH4CHCH3FeHCHSC7H4C6H4SHS2H2C6H4C6H4CH2C2H4CH3CH6CHCH4C2HSH2CHCH2CHCHCH5CH2CH2CNC3H2C2H2CH16SHCHCFeC4H2C2HCH3CH2CHC2FeC2HCH8CHC3H4C3NC3H2C4HC3H5CHFeH2CH10C2H2C2HC4NH2SH2CH14C2H3CH6CH2CH3NH13CHCH3CHC2H3CNFeCHCH4FeNH5C2H2C2H8SCH3C2HC2NHC2H2C2H7C2H2CHSH2SHSFeSH2FeS2FeS2FeSFeS3HSH14CH3CHCHCNH4C4H6C6H4CH2CHC7H4C6H4CH5NC4HCH2C2H7CHCH2NHCSC5H6CH4C2H3NSCH3CHCH3CH2C2H2NHC4H2C4HCH4C2H3C2SH9SCH3C2H2NCFeH3CH3SHSC2H2CH4CH3CHC2H3C2H2CHCHC2H2C2H2CH3CH4CH2FeCFeHCHSC2H8CHCHNHSFeCHC2HCH2CH5CHCHCH4SH3CH9CH2C2H5CHCH4C3HC2HC2HC2H4CHNCH5CSHC2HCH6C3H2NC3SCHCHC2H2CH4SC2FeS2FeS2FeSFeHS2CFeCSHC3H2C3HCH2C2HSC2H3CH4CFeH2FeCSH4C2FeC2H2FeCH2FeC2FeCH3SHCH2C3H2SC2H3SCHSNH3CH2SH2NCHCH2S2CH2FeHC2H2SHC4H3C2HSHCHNC6HC4H6CH6CH4CH9CH4C2H5C3H13CHNCHCHCH10CH3CH10C2H5CH2CH2C2H4C3SC3HCHCH2CHC3H2CHFeH2SCHFeS2FeS2FeSFeHS2C3H2C3H2C3H9CHC2H3FeH2CHCHCH2FeH3FeCH4CHCH2CH7CH5SCH2C2H2CHCHSCHCHC2H2CNHFeH2C2H2C2HSCHCH2SCS2CHC3SCNC4NSH2SC2FeH2NC8HC3H17CH9C2H3C2HC4H4SH4CFeH4CH5SH4CH3CS2CHFeH8C3SCHC2H7CH3CHCHCHC2H5CH2CHC2H2CHCH2CHCH4SHC2H6CH3CH2SH2CH2CH4C3H5CH2CSCH2CH5CNH3CH2SH5CHC2HSHCHCH2CH5C2HC3HCH8CH2SH4CHCH7CHC3HCSCHFeSFeS2Fe2S4CH3C2HCH2C7H4C3H5C3HC6H4SH10C2H2CHFeH4CH5CHSCH4CHCH3SNHCH2CHC2H7C4HNHSCHSH3C2H3CH2FeNH2CSCH3C2H2CH2CH4C3H2C3HCH2C2H3CH8CHCFeH2S2CFeCHFeSCHCNC3HCHC3HCH9CHCH9C2H5C2H2CH2CH2C2HC3HCHSH2SCH2CH2CSHNCH2C3H2CH6CH3CH2CHCHS2H2FeSFeS2Fe2S4CH3C3H2SHC6H4C3H2CH6C5H3SCH5CHC2HCSCHSCNC3HCH2CHFeH4SCFeH3CSFeCHC2S2H4CHFeCH3FeHCH2CH3CHCH2CHNHCHCH4CHC2SNC12H28CH8CHC2HNCHSCH5SH3CHC4HN2CH2SCH3CSC4HCFeCH4CHC2H3C2HSHSH3CH2CHCH8CH2C2HCH3CH6CH3C2HCH2CH3CH6CH7SFeS2FeSFeS3CHCH2FeS2FeS2FeSFeS3CH2C6H7CH3C6H4C6H4CH2CH2C2H2CH2C3H2CHCH2SH3CFeH5NH3CSH2CHFe2HC2H6C2H3CNH3C2HC3HCHCHCH2CHSH15NC8HCH16CHS2H4C2HCHCHCHC2H3SCHCH2C2H2CH4NCNH3CH2CH3CH2CH3CH7SCFeH2C2HCH2CH2CH6CH6C3HC3NH3C3HC2HCH6C2HC2H6C2H4CH2S2HFeH4CH5CFeS2FeHFeS3H2CH2FeS2FeS2FeSFeS3CH2C6H5NH3C8H4C6H11CH2C6H2NC4HC2H8SH6C3H8CH2SCH3SHCH6C2HCH3C2H2CH4C2HC2H7CH3CH4C4SH3CH6SHNSC3H2C3H2CHNH6CHCH8CH2CSH3C3H6CFeCH2C2H2CH2SHFeH2NCH2NHCHC2H2C3HC2H3CHFeH3FeH8C3H7CHCHCSHCH2CH2C2H3FeHC2H9S2FeSFeSFeSHFeSFeSFeSFeS2H2NFeSFeS3HC3H4C7H3C6H4C4H3C4HCH2CHC4H5CNC9HC2H19C2NH2CH3S2HC2NC12H23CH4NC11H19SH2CH3CSFeHCH2CHCHCH5CSH3CHC3SHCSHCHSH2C3HC2HSHCHSH2C2H2CHCH3CSH4SHNH9NH5C2H5CHSCNH4FeH2FeSHCHC2HC3SH3FeH3CH2FeHC2H2CSHCH3SH2CHCHCH2CHCFeH3CH3CHCHCH4CHC4HCHCHCH2CHSCH2CH2CH6CH2CH2CFeH2C3NHS2FeSFeSCSHFeSFeSCHFeS2H3FeSFeS3CHNC4SHC6H3C6H4C3H5C3H8CH3SCSHCSC2HCH3CHCHFeH7S2CHCHCFeC3H4CH3C2SH5C2H4CH8CH2CHC4HCH2CH3CS2HCH3SNSH3SC3H5CH4C3H2FeCHC3H2CHCH19NC9HC2H19CH3C2HC3NH4CFeSH4FeHSFeC2HC3HCHCFe2SHC2H2C3H5C2H5CH2SC2HCHC3SH2NCH3CH3CH4CSHNSHCHCHCH2C2H2CH2NH2CH2CH2CH3CH2CH2CH4C4H2CH8CFeC2H2CFeSHFeHFeS3HCSCH2FeSCSH3CFeSH2SHCH2FeSHSHFeS2FeSFeS3C6SC5H3CHC4H9CH2SC6H8C3HCHC6FeHCNH2FeH3CHCH8NC8HC2H14CH11SH2CHCH5CSHCH2CFeH2C2H3FeCH3SH3CHCH3C2FeH2C2HCH2NC12H24CHSCH2SHC2HCH4CNH3CHCH2NH3SH2CHCFeH2CHCH3CSCFeCH2CSCH4CH5C2HC2H3C2H3C3HCHCFeCHCSH3FeSCSH2CSHCFeSHSH8NHCH2FeSHSHFeS2FeSFeS3C5H2C5H3FeC4H4C3H2CS2HC7HFeH2CHC2H2CH2CHC2H2C3HC2H6CH6CHCH4FeH3CH6C3H3CHC2H4CH4C2SH5CHS2H3CHCH2CHC2H4CH4CHNH4CH2C2H2CH2CHC2HCHFeHCH2CH2CH5CSH5C4HSH2CHCSC2H2CH8CH3NC3HFeCHSFeHNH2CH6CHSH2CHCHSHCH2C2HCH2NC5HCHSCNC2H4CH2C3H5CH8CH3CH10C4H4CHCH
_chemical_formula_sum              "Fe256 S512 H4096 C2304 N128"
_cell_length_a       61.9479
_cell_length_b       62.1921
_cell_length_c       48.2046
_cell_angle_alpha    90.4923
_cell_angle_beta     90.4229
_cell_angle_gamma    85.2083

_space_group_name_H-M_alt    "P 1"
_space_group_IT_number       1

loop_
  _space_group_symop_operation_xyz
  'x, y, z'

loop_
  _atom_site_type_symbol
  _atom_site_label
  _atom_site_symmetry_multiplicity
  _atom_site_fract_x
  _atom_site_fract_y
  _atom_site_fract_z
  _atom_site_occupancy
  Fe  Fe1       1.0  0.11401  0.25978  0.31952  1.0000
  S   S1        1.0  0.10108  0.22733  0.32502  1.0000
  S   S2        1.0  0.14932  0.26419  0.31381  1.0000
  Fe  Fe2       1.0  0.06947  0.28419  0.31932  1.0000
  S   S3        1.0  0.05315  0.25382  0.32421  1.0000
  S   S4        1.0  0.05146  0.31731  0.31956  1.0000
  Fe  Fe3       1.0  0.07886  0.24485  0.35620  1.0000
  S   S5        1.0  0.06531  0.23392  0.39692  1.0000
  Fe  Fe4       1.0  0.07675  0.23949  0.29271  1.0000
  S   S6        1.0  0.06317  0.22049  0.25745  1.0000
  S   S7        1.0  0.09387  0.27632  0.35314  1.0000
  S   S8        1.0  0.09113  0.27077  0.28514  1.0000
  Fe  Fe5       1.0  0.06061  0.22939  0.06961  1.0000
  S   S9        1.0  0.08752  0.20303  0.06698  1.0000
  S   S10       1.0  0.02559  0.22222  0.06305  1.0000
  Fe  Fe6       1.0  0.09299  0.26354  0.08217  1.0000
  S   S11       1.0  0.12138  0.23913  0.07926  1.0000
  S   S12       1.0  0.09824  0.29827  0.09121  1.0000
  Fe  Fe7       1.0  0.10420  0.22691  0.04172  1.0000
  H   H1        1.0  0.24014  0.18129  0.48187  1.0000
  Fe  Fe8       1.0  0.10073  0.21892  0.10493  1.0000
  S   S13       1.0  0.11389  0.20296  0.14446  1.0000
  S   S14       1.0  0.07687  0.25278  0.04330  1.0000
  S   S15       1.0  0.07283  0.24396  0.10897  1.0000
  C   C1        1.0  0.20792  0.18552  0.34204  1.0000
  C   C2        1.0  0.00083  0.19758  0.29276  1.0000
  C   C3        1.0  0.12344  0.30560  0.10397  1.0000
  C   C4        1.0  0.14122  0.29056  0.10900  1.0000
  C   C5        1.0  0.16123  0.29759  0.11808  1.0000
  C   C6        1.0  0.16326  0.31965  0.12257  1.0000
  H   H2        1.0  0.22149  0.29982  0.35460  1.0000
  C   C7        1.0  0.16846  0.32487  0.04551  1.0000
  H   H3        1.0  0.13970  0.27361  0.10569  1.0000
  H   H4        1.0  0.17508  0.28609  0.12125  1.0000
  H   H5        1.0  0.21145  0.23589  0.47952  1.0000
  H   H6        1.0  0.04562  0.32563  0.45393  1.0000
  C   C8        1.0  0.24274  0.17151  0.43863  1.0000
  C   C9        1.0  0.05998  0.19105  0.34543  1.0000
  H   H7        1.0  0.09615  0.14892  0.49735  1.0000
  H   H8        1.0  0.12074  0.28669  0.03498  1.0000
  H   H9        1.0  0.21501  0.22800  0.16745  1.0000
  H   H10       1.0  0.11008  0.32079  0.00516  1.0000
  H   H11       1.0  0.10491  0.27495  0.41776  1.0000
  H   H12       1.0  0.03474  0.13542  0.14896  1.0000
  H   H13       1.0  0.12723  0.27270  0.00332  1.0000
  H   H14       1.0  0.02248  0.28562  0.30092  1.0000
  C   C10       1.0  0.08108  0.23202  0.42762  1.0000
  C   C11       1.0  0.10354  0.22725  0.42708  1.0000
  C   C12       1.0  0.11517  0.22378  0.45210  1.0000
  H   H15       1.0  0.13479  0.32066  0.04275  1.0000
  H   H16       1.0  0.21915  0.27737  0.03252  1.0000
  C   C13       1.0  0.07052  0.23412  0.45326  1.0000
  H   H17       1.0  0.11186  0.22558  0.40742  1.0000
  H   H18       1.0  0.13248  0.21957  0.45155  1.0000
  N   N1        1.0  0.00121  0.18417  0.31885  1.0000
  H   H19       1.0  0.05319  0.23803  0.45377  1.0000
  C   C14       1.0  0.07828  0.21832  0.22651  1.0000
  C   C15       1.0  0.10019  0.21070  0.22658  1.0000
  C   C16       1.0  0.11101  0.20614  0.20132  1.0000
  C   C17       1.0  0.10019  0.20974  0.17587  1.0000
  C   C18       1.0  0.07844  0.21788  0.17595  1.0000
  C   C19       1.0  0.06752  0.22200  0.20114  1.0000
  H   H20       1.0  0.10855  0.20747  0.24608  1.0000
  H   H21       1.0  0.12771  0.19950  0.20148  1.0000
  H   H22       1.0  0.06975  0.22029  0.15667  1.0000
  H   H23       1.0  0.05059  0.22787  0.20099  1.0000
  C   C20       1.0  0.19336  0.23277  0.38093  1.0000
  C   C21       1.0  0.20217  0.24233  0.35791  1.0000
  C   C22       1.0  0.18853  0.25148  0.33707  1.0000
  C   C23       1.0  0.16602  0.25151  0.33942  1.0000
  C   C24       1.0  0.15717  0.24180  0.36231  1.0000
  C   C25       1.0  0.17086  0.23229  0.38297  1.0000
  H   H24       1.0  0.19540  0.25858  0.31914  1.0000
  H   H25       1.0  0.13978  0.24177  0.36422  1.0000
  H   H26       1.0  0.16398  0.22490  0.40073  1.0000
  H   H27       1.0  0.09654  0.13691  0.09608  1.0000
  C   C26       1.0  0.03637  0.17972  0.04825  1.0000
  C   C27       1.0  0.01984  0.19546  0.05521  1.0000
  H   H28       1.0  0.04843  0.28871  0.47562  1.0000
  H   H29       1.0  0.14762  0.28614  0.22775  1.0000
  H   H30       1.0  0.04454  0.14651  0.03677  1.0000
  H   H31       1.0  0.05279  0.18390  0.04676  1.0000
  H   H32       1.0  0.09760  0.16485  0.10568  1.0000
  H   H33       1.0  0.14002  0.25006  0.23533  1.0000
  H   H34       1.0  0.24016  0.12635  0.36804  1.0000
  C   C28       1.0  0.08167  0.30151  0.43047  1.0000
  S   S16       1.0  0.24739  0.26862  0.40681  1.0000
  H   H35       1.0  0.21618  0.20058  0.33994  1.0000
  H   H36       1.0  0.17465  0.25589  0.25641  1.0000
  H   H37       1.0  0.06069  0.14757  0.17900  1.0000
  N   N2        1.0  0.15756  0.25980  0.19953  1.0000
  C   C29       1.0  0.13815  0.26007  0.18040  1.0000
  C   C30       1.0  0.17758  0.25295  0.18291  1.0000
  C   C31       1.0  0.15444  0.24435  0.22281  1.0000
  C   C32       1.0  0.11616  0.26889  0.19305  1.0000
  C   C33       1.0  0.18001  0.22906  0.17307  1.0000
  C   C34       1.0  0.00430  0.23351  0.26889  1.0000
  C   C35       1.0  0.09867  0.27176  0.17057  1.0000
  H   H38       1.0  0.13574  0.24347  0.17284  1.0000
  H   H39       1.0  0.14096  0.26929  0.16127  1.0000
  H   H40       1.0  0.17809  0.26294  0.16393  1.0000
  H   H41       1.0  0.19254  0.25617  0.19463  1.0000
  H   H42       1.0  0.15068  0.22837  0.21441  1.0000
  H   H43       1.0  0.11071  0.25741  0.20852  1.0000
  H   H44       1.0  0.22437  0.30674  0.28629  1.0000
  H   H45       1.0  0.18161  0.21796  0.19099  1.0000
  H   H46       1.0  0.00805  0.02524  0.14180  1.0000
  C   C36       1.0  0.00410  0.16053  0.31085  1.0000
  H   H47       1.0  0.16939  0.31592  0.06533  1.0000
  H   H48       1.0  0.19922  0.23473  0.13648  1.0000
  H   H49       1.0  0.10251  0.28445  0.15573  1.0000
  H   H50       1.0  0.09745  0.25641  0.15900  1.0000
  H   H51       1.0  0.08275  0.27659  0.18018  1.0000
  H   H52       1.0  0.17019  0.20710  0.25243  1.0000
  H   H53       1.0  0.00335  0.23402  0.11817  1.0000
  H   H54       1.0  0.17728  0.32164  0.37372  1.0000
  H   H55       1.0  0.23225  0.23987  0.27491  1.0000
  C   C37       1.0  0.10099  0.28519  0.43635  1.0000
  H   H56       1.0  0.07865  0.31121  0.44962  1.0000
  H   H57       1.0  0.05079  0.31426  0.37963  1.0000
  H   H58       1.0  0.22605  0.09401  0.40601  1.0000
  H   H59       1.0  0.19918  0.10561  0.41406  1.0000
  C   C38       1.0  0.04265  0.18139  0.32773  1.0000
  N   N3        1.0  0.04029  0.30366  0.41963  1.0000
  C   C39       1.0  0.14874  0.31835  0.02815  1.0000
  C   C40       1.0  0.20029  0.22458  0.15539  1.0000
  C   C41       1.0  0.22425  0.16691  0.35044  1.0000
  H   H60       1.0  0.17387  0.28645  0.39672  1.0000
  H   H61       1.0  0.07633  0.18497  0.33809  1.0000
  C   C42       1.0  0.03160  0.15853  0.04227  1.0000
  C   C43       1.0  0.16005  0.30053  0.19065  1.0000
  H   H62       1.0  0.06153  0.14423  0.23092  1.0000
  C   C44       1.0  0.01336  0.30111  0.30264  1.0000
  C   C45       1.0  0.00034  0.04144  0.13645  1.0000
  H   H63       1.0  0.14450  0.30256  0.17903  1.0000
  S   S17       1.0  0.21042  0.22130  0.40709  1.0000
  H   H64       1.0  0.03130  0.18244  0.21003  1.0000
  H   H65       1.0  0.24247  0.31768  0.32251  1.0000
  H   H66       1.0  0.18230  0.32245  0.31595  1.0000
  H   H67       1.0  0.01455  0.19525  0.11395  1.0000
  H   H68       1.0  0.17840  0.29193  0.28427  1.0000
  H   H69       1.0  0.18925  0.23709  0.23340  1.0000
  H   H70       1.0  0.01559  0.11857  0.10892  1.0000
  H   H71       1.0  0.02097  0.17630  0.47311  1.0000
  H   H72       1.0  0.05844  0.20887  0.34375  1.0000
  C   C46       1.0  0.18840  0.30757  0.36785  1.0000
  C   C47       1.0  0.24655  0.27512  0.06031  1.0000
  H   H73       1.0  0.06659  0.17244  0.23356  1.0000
  Fe  Fe9       1.0  0.21915  0.31189  0.14595  1.0000
  H   H74       1.0  0.05073  0.28085  0.22785  1.0000
  H   H75       1.0  0.22628  0.12979  0.42925  1.0000
  H   H76       1.0  0.00149  0.22993  0.31286  1.0000
  C   C48       1.0  0.23626  0.27280  0.03453  1.0000
  C   C49       1.0  0.01227  0.15268  0.12039  1.0000
  C   C50       1.0  0.02545  0.15149  0.14782  1.0000
  H   H77       1.0  0.06577  0.28265  0.40078  1.0000
  H   H78       1.0  0.01324  0.15125  0.16458  1.0000
  H   H79       1.0  0.22727  0.16391  0.43936  1.0000
  H   H80       1.0  0.15431  0.22583  0.27472  1.0000
  C   C51       1.0  0.00643  0.22428  0.13723  1.0000
  H   H81       1.0  0.17586  0.28172  0.22318  1.0000
  H   H82       1.0  0.04397  0.16267  0.25135  1.0000
  H   H83       1.0  0.11712  0.28478  0.20333  1.0000
  C   C52       1.0  0.19372  0.23479  0.48162  1.0000
  H   H84       1.0  0.01903  0.15717  0.29831  1.0000
  H   H85       1.0  0.20043  0.18188  0.32171  1.0000
  H   H86       1.0  0.05800  0.30826  0.22587  1.0000
  H   H87       1.0  0.19005  0.21810  0.47606  1.0000
  C   C53       1.0  0.03410  0.31385  0.44731  1.0000
  C   C54       1.0  0.03519  0.10924  0.46989  1.0000
  S   S18       1.0  0.00531  0.12621  0.03360  1.0000
  S   S19       1.0  0.22942  0.27649  0.14313  1.0000
  H   H88       1.0  0.01175  0.24912  0.38938  1.0000
  C   C55       1.0  0.06133  0.17339  0.45838  1.0000
  H   H89       1.0  0.10337  0.16144  0.41129  1.0000
  H   H90       1.0  0.01359  0.23458  0.15322  1.0000
  C   C56       1.0  0.16018  0.28184  0.21178  1.0000
  C   C57       1.0  0.22437  0.19535  0.00108  1.0000
  C   C58       1.0  0.02362  0.31921  0.31140  1.0000
  H   H91       1.0  0.06069  0.13618  0.11735  1.0000
  C   C59       1.0  0.17915  0.24261  0.04629  1.0000
  H   H92       1.0  0.20870  0.10601  0.37886  1.0000
  H   H93       1.0  0.08081  0.14388  0.14206  1.0000
  C   C60       1.0  0.02294  0.28893  0.41166  1.0000
  H   H94       1.0  0.08652  0.31203  0.41352  1.0000
  H   H95       1.0  0.09744  0.27467  0.45400  1.0000
  H   H96       1.0  0.19485  0.30143  0.41179  1.0000
  C   C61       1.0  0.05148  0.14281  0.48814  1.0000
  H   H97       1.0  0.01911  0.20593  0.34407  1.0000
  C   C62       1.0  0.01504  0.32776  0.23053  1.0000
  H   H98       1.0  0.17966  0.32168  0.21441  1.0000
  H   H99       1.0  0.01766  0.18021  0.35848  1.0000
  C   C63       1.0  0.01954  0.18859  0.33837  1.0000
  H   H100      1.0  0.07481  0.16052  0.40438  1.0000
  H   H101      1.0  0.20189  0.20736  0.14886  1.0000
  H   H102      1.0  0.18129  0.29873  0.35037  1.0000
  C   C64       1.0  0.18989  0.29265  0.39295  1.0000
  H   H103      1.0  0.17277  0.25417  0.00492  1.0000
  S   S20       1.0  0.22956  0.31514  0.19032  1.0000
  H   H104      1.0  0.03967  0.13715  0.44556  1.0000
  H   H105      1.0  0.01034  0.32680  0.25265  1.0000
  N   N4        1.0  0.05389  0.16672  0.48657  1.0000
  C   C65       1.0  0.17351  0.24103  0.24381  1.0000
  H   H106      1.0  0.01852  0.14071  0.47123  1.0000
  H   H107      1.0  0.06281  0.19102  0.45795  1.0000
  C   C66       1.0  0.04088  0.32073  0.39751  1.0000
  H   H108      1.0  0.01166  0.18859  0.16743  1.0000
  H   H109      1.0  0.01106  0.24944  0.27105  1.0000
  C   C67       1.0  0.99836  0.18978  0.05586  1.0000
  H   H110      1.0  0.03138  0.05568  0.13522  1.0000
  H   H111      1.0  0.18319  0.22156  0.27963  1.0000
  H   H112      1.0  0.17242  0.24456  0.06755  1.0000
  H   H113      1.0  0.01814  0.32348  0.44536  1.0000
  H   H114      1.0  0.06015  0.27599  0.43499  1.0000
  C   C68       1.0  0.23431  0.17111  0.37940  1.0000
  H   H115      1.0  0.21259  0.29039  0.31190  1.0000
  C   C69       1.0  0.03263  0.29806  0.47189  1.0000
  H   H116      1.0  0.17944  0.22530  0.04038  1.0000
  H   H117      1.0  0.06715  0.13317  0.48538  1.0000
  C   C70       1.0  0.12563  0.32750  0.10874  1.0000
  C   C71       1.0  0.19376  0.29617  0.27482  1.0000
  C   C72       1.0  0.02322  0.28063  0.38112  1.0000
  S   S21       1.0  0.12048  0.22000  0.00010  1.0000
  H   H118      1.0  0.19019  0.30899  0.25921  1.0000
  C   C73       1.0  0.08218  0.23101  0.47825  1.0000
  C   C74       1.0  0.00711  0.26359  0.37660  1.0000
  H   H119      1.0  0.00192  0.21328  0.47446  1.0000
  C   C75       1.0  0.08340  0.16297  0.44820  1.0000
  N   N5        1.0  0.15010  0.29578  0.01573  1.0000
  H   H120      1.0  0.00650  0.29723  0.41519  1.0000
  H   H121      1.0  0.16589  0.22504  0.16034  1.0000
  H   H122      1.0  0.21949  0.24270  0.35616  1.0000
  C   C76       1.0  0.08691  0.16801  0.41765  1.0000
  H   H123      1.0  0.20181  0.27867  0.38926  1.0000
  H   H124      1.0  0.08239  0.29753  0.02149  1.0000
  C   C77       1.0  0.16515  0.25621  0.02562  1.0000
  H   H125      1.0  0.17344  0.29746  0.17566  1.0000
  H   H126      1.0  0.07751  0.15692  0.08079  1.0000
  C   C78       1.0  0.21093  0.31463  0.36004  1.0000
  C   C79       1.0  0.06158  0.29002  0.42125  1.0000
  H   H127      1.0  0.04095  0.21124  0.48355  1.0000
  C   C80       1.0  0.20916  0.30369  0.29700  1.0000
  H   H128      1.0  0.08464  0.14518  0.45018  1.0000
  H   H129      1.0  0.09668  0.16977  0.46015  1.0000
  C   C81       1.0  0.19956  0.32459  0.31158  1.0000
  C   C82       1.0  0.01721  0.05361  0.12151  1.0000
  C   C83       1.0  0.04571  0.29784  0.23374  1.0000
  H   H130      1.0  0.08554  0.18571  0.41424  1.0000
  H   H131      1.0  0.24688  0.25031  0.32065  1.0000
  C   C84       1.0  0.03530  0.13372  0.46724  1.0000
  H   H132      1.0  0.02657  0.15437  0.20668  1.0000
  H   H133      1.0  0.02408  0.27434  0.42500  1.0000
  H   H134      1.0  0.17247  0.19528  0.00136  1.0000
  Fe  Fe10      1.0  0.24247  0.28063  0.18638  1.0000
  H   H135      1.0  0.00719  0.25857  0.35442  1.0000
  C   C85       1.0  0.17002  0.22272  0.26381  1.0000
  C   C86       1.0  0.03170  0.17823  0.49144  1.0000
  H   H136      1.0  0.03943  0.27329  0.37542  1.0000
  N   N6        1.0  0.04020  0.16925  0.15296  1.0000
  C   C87       1.0  0.05667  0.17044  0.13012  1.0000
  C   C88       1.0  0.02721  0.19079  0.15675  1.0000
  C   C89       1.0  0.05264  0.16423  0.17961  1.0000
  C   C90       1.0  0.07088  0.14923  0.12378  1.0000
  C   C91       1.0  0.03925  0.16596  0.20686  1.0000
  C   C92       1.0  0.08655  0.15227  0.10011  1.0000
  C   C93       1.0  0.05378  0.16097  0.23215  1.0000
  H   H137      1.0  0.06775  0.18319  0.13517  1.0000
  H   H138      1.0  0.04892  0.17558  0.11017  1.0000
  C   C94       1.0  0.22235  0.12925  0.40677  1.0000
  H   H139      1.0  0.03605  0.20149  0.17056  1.0000
  H   H140      1.0  0.06596  0.17513  0.18205  1.0000
  H   H141      1.0  0.00646  0.05249  0.17767  1.0000
  C   C95       1.0  0.16322  0.32202  0.20502  1.0000
  C   C96       1.0  0.01021  0.15284  0.04282  1.0000
  C   C97       1.0  0.24219  0.25334  0.27649  1.0000
  H   H142      1.0  0.11542  0.29381  0.44187  1.0000
  H   H143      1.0  0.04569  0.16356  0.32897  1.0000
  H   H144      1.0  0.18409  0.32121  0.03486  1.0000
  C   C98       1.0  0.23833  0.20924  0.01897  1.0000
  H   H145      1.0  0.01209  0.29288  0.22857  1.0000
  H   H146      1.0  0.02309  0.10322  0.45527  1.0000
  H   H147      1.0  0.03068  0.10487  0.49127  1.0000
  C   C99       1.0  0.21361  0.10736  0.40098  1.0000
  C   C100      1.0  0.10450  0.22541  0.47776  1.0000
  H   H148      1.0  0.02227  0.15621  0.10235  1.0000
  H   H149      1.0  0.05843  0.18665  0.36756  1.0000
  C   C101      1.0  0.02197  0.20455  0.13055  1.0000
  H   H150      1.0  0.19484  0.18807  0.35767  1.0000
  H   H151      1.0  0.04528  0.29901  0.25674  1.0000
  H   H152      1.0  0.22812  0.22107  0.03162  1.0000
  H   H153      1.0  0.03706  0.21057  0.12238  1.0000
  H   H154      1.0  0.20147  0.28166  0.26414  1.0000
  C   C102      1.0  0.16299  0.28025  0.03469  1.0000
  C   C103      1.0  0.12734  0.28873  0.01374  1.0000
  H   H155      1.0  0.20917  0.14184  0.40195  1.0000
  C   C104      1.0  0.02341  0.30458  0.22130  1.0000
  H   H156      1.0  0.18500  0.24600  0.46671  1.0000
  H   H157      1.0  0.02449  0.30321  0.19838  1.0000
  H   H158      1.0  0.15077  0.32569  0.22122  1.0000
  H   H159      1.0  0.17973  0.28488  0.03775  1.0000
  H   H160      1.0  0.22048  0.17359  0.39388  1.0000
  H   H161      1.0  0.04474  0.18615  0.30583  1.0000
  H   H162      1.0  0.01878  0.29396  0.36644  1.0000
  H   H163      1.0  0.00998  0.06968  0.11470  1.0000
  H   H164      1.0  0.19601  0.24743  0.04639  1.0000
  H   H165      1.0  0.04886  0.17068  0.44229  1.0000
  H   H166      1.0  0.02012  0.28663  0.46795  1.0000
  H   H167      1.0  0.15559  0.28107  0.05570  1.0000
  C   C105      1.0  0.24647  0.26503  0.25270  1.0000
  H   H168      1.0  0.21819  0.32071  0.37947  1.0000
  C   C106      1.0  0.24299  0.13189  0.38970  1.0000
  H   H169      1.0  0.23897  0.18846  0.43207  1.0000
  H   H170      1.0  0.14913  0.24955  0.02505  1.0000
  H   H171      1.0  0.02285  0.04435  0.10273  1.0000
  H   H172      1.0  0.21580  0.18515  0.01534  1.0000
  H   H173      1.0  0.02672  0.21933  0.29875  1.0000
  H   H174      1.0  0.05138  0.10113  0.46494  1.0000
  H   H175      1.0  0.99861  0.16535  0.12216  1.0000
  H   H176      1.0  0.00637  0.15036  0.32979  1.0000
  H   H177      1.0  0.21559  0.15200  0.35061  1.0000
  H   H178      1.0  0.24130  0.18704  0.37887  1.0000
  C   C107      1.0  0.00792  0.21349  0.49623  1.0000
  S   S22       1.0  0.23614  0.25734  0.22041  1.0000
  H   H179      1.0  0.02430  0.32493  0.38890  1.0000
  H   H180      1.0  0.00567  0.12960  0.26726  1.0000
  H   H181      1.0  0.23669  0.16540  0.33400  1.0000
  C   C108      1.0  0.00260  0.13135  0.11407  1.0000
  H   H182      1.0  0.14501  0.16479  0.00739  1.0000
  H   H183      1.0  0.01209  0.22496  0.25076  1.0000
  C   C109      1.0  0.00894  0.22051  0.29535  1.0000
  Fe  Fe11      1.0  0.24361  0.23312  0.40483  1.0000
  H   H184      1.0  0.08045  0.15854  0.00850  1.0000
  H   H185      1.0  0.01104  0.18921  0.27633  1.0000
  H   H186      1.0  0.23733  0.28145  0.07797  1.0000
  H   H187      1.0  0.01051  0.31958  0.49651  1.0000
  H   H188      1.0  0.07382  0.23246  0.49788  1.0000
  C   C110      1.0  0.03100  0.20278  0.49807  1.0000
  C   C111      1.0  0.08786  0.29661  0.99957  1.0000
  Fe  Fe12      1.0  0.11716  0.25598  0.81505  1.0000
  S   S23       1.0  0.10234  0.22656  0.83007  1.0000
  S   S24       1.0  0.15298  0.25973  0.81179  1.0000
  Fe  Fe13      1.0  0.07316  0.27936  0.79966  1.0000
  S   S25       1.0  0.05514  0.25158  0.81349  1.0000
  H   H189      1.0  0.07405  0.19877  0.88811  1.0000
  Fe  Fe14      1.0  0.07787  0.25021  0.85033  1.0000
  S   S26       1.0  0.06391  0.24701  0.89333  1.0000
  Fe  Fe15      1.0  0.08139  0.23080  0.79187  1.0000
  S   S27       1.0  0.07519  0.20200  0.76504  1.0000
  S   S28       1.0  0.09416  0.27960  0.83794  1.0000
  S   S29       1.0  0.09796  0.25851  0.77545  1.0000
  Fe  Fe16      1.0  0.06056  0.22576  0.58268  1.0000
  S   S30       1.0  0.08659  0.19954  0.57326  1.0000
  S   S31       1.0  0.02491  0.21984  0.58013  1.0000
  Fe  Fe17      1.0  0.09408  0.25811  0.59610  1.0000
  S   S32       1.0  0.12204  0.23394  0.58770  1.0000
  S   S33       1.0  0.09911  0.29193  0.61040  1.0000
  Fe  Fe18      1.0  0.10263  0.22501  0.55028  1.0000
  S   S34       1.0  0.11929  0.21963  0.50869  1.0000
  Fe  Fe19      1.0  0.10269  0.21157  0.61162  1.0000
  S   S35       1.0  0.11608  0.18914  0.64510  1.0000
  S   S36       1.0  0.07560  0.25076  0.55721  1.0000
  S   S37       1.0  0.07579  0.23632  0.62238  1.0000
  C   C112      1.0  0.09355  0.28500  0.69566  1.0000
  H   H190      1.0  0.07503  0.23496  0.99216  1.0000
  C   C113      1.0  0.12357  0.29758  0.62705  1.0000
  C   C114      1.0  0.12427  0.31751  0.64051  1.0000
  H   H191      1.0  0.03877  0.16779  0.89823  1.0000
  C   C115      1.0  0.16203  0.30878  0.65332  1.0000
  C   C116      1.0  0.16154  0.28877  0.63979  1.0000
  C   C117      1.0  0.14217  0.28304  0.62707  1.0000
  H   H192      1.0  0.20466  0.27828  0.77497  1.0000
  H   H193      1.0  0.11202  0.29075  0.51384  1.0000
  H   H194      1.0  0.17589  0.27758  0.63970  1.0000
  H   H195      1.0  0.14166  0.26746  0.61730  1.0000
  H   H196      1.0  0.22198  0.29261  0.53403  1.0000
  H   H197      1.0  0.06467  0.16775  0.91554  1.0000
  C   C118      1.0  0.00140  0.23735  0.98629  1.0000
  C   C119      1.0  0.00703  0.18434  0.65681  1.0000
  C   C120      1.0  0.02610  0.20432  0.97345  1.0000
  C   C121      1.0  0.01356  0.17318  0.94662  1.0000
  H   H198      1.0  0.02009  0.24576  0.72670  1.0000
  H   H199      1.0  0.22518  0.23513  0.84567  1.0000
  C   C122      1.0  0.20885  0.31728  0.80714  1.0000
  C   C123      1.0  0.18298  0.30136  0.98422  1.0000
  C   C124      1.0  0.08054  0.24101  0.92259  1.0000
  C   C125      1.0  0.07098  0.24186  0.94887  1.0000
  H   H200      1.0  0.11495  0.31041  0.70517  1.0000
  C   C126      1.0  0.01572  0.30227  0.79049  1.0000
  H   H201      1.0  0.09677  0.28446  0.67309  1.0000
  C   C127      1.0  0.10255  0.23418  0.92024  1.0000
  H   H202      1.0  0.05394  0.24707  0.95082  1.0000
  H   H203      1.0  0.07680  0.31653  0.69589  1.0000
  H   H204      1.0  0.04204  0.17419  0.65783  1.0000
  H   H205      1.0  0.11009  0.23341  0.90003  1.0000
  C   C128      1.0  0.08695  0.19933  0.73185  1.0000
  C   C129      1.0  0.09062  0.21727  0.71567  1.0000
  C   C130      1.0  0.09869  0.21436  0.68851  1.0000
  C   C131      1.0  0.10431  0.19352  0.67810  1.0000
  C   C132      1.0  0.10125  0.17570  0.69468  1.0000
  C   C133      1.0  0.09210  0.17858  0.72110  1.0000
  H   H206      1.0  0.08674  0.23331  0.72385  1.0000
  H   H207      1.0  0.10094  0.22823  0.67583  1.0000
  H   H208      1.0  0.10561  0.15957  0.68686  1.0000
  H   H209      1.0  0.08933  0.16464  0.73347  1.0000
  H   H210      1.0  0.04361  0.14209  0.56939  1.0000
  C   C134      1.0  0.20839  0.20952  0.98269  1.0000
  C   C135      1.0  0.19313  0.24596  0.83134  1.0000
  C   C136      1.0  0.17121  0.24205  0.83063  1.0000
  C   C137      1.0  0.16451  0.22387  0.84399  1.0000
  C   C138      1.0  0.17976  0.20956  0.85769  1.0000
  H   H211      1.0  0.19854  0.25979  0.82082  1.0000
  H   H212      1.0  0.14766  0.22070  0.84359  1.0000
  H   H213      1.0  0.17453  0.19552  0.86795  1.0000
  C   C139      1.0  0.18793  0.23235  0.93463  1.0000
  C   C140      1.0  0.06895  0.17345  0.50933  1.0000
  C   C141      1.0  0.01899  0.19300  0.57327  1.0000
  C   C142      1.0  0.03485  0.17590  0.57661  1.0000
  C   C143      1.0  0.03090  0.15506  0.56774  1.0000
  H   H214      1.0  0.15245  0.25056  0.67116  1.0000
  H   H215      1.0  0.03072  0.26886  0.68790  1.0000
  H   H216      1.0  0.05031  0.17873  0.58568  1.0000
  N   N7        1.0  0.16980  0.20475  0.74724  1.0000
  C   C144      1.0  0.15400  0.22048  0.73233  1.0000
  C   C145      1.0  0.15972  0.19697  0.77341  1.0000
  C   C146      1.0  0.18897  0.21686  0.75588  1.0000
  C   C147      1.0  0.17802  0.18595  0.72891  1.0000
  C   C148      1.0  0.16128  0.17570  0.70988  1.0000
  C   C149      1.0  0.20595  0.20445  0.77496  1.0000
  C   C150      1.0  0.13541  0.19281  0.77222  1.0000
  C   C151      1.0  0.12919  0.17962  0.79711  1.0000
  C   C152      1.0  0.17241  0.15862  0.69061  1.0000
  H   H217      1.0  0.14758  0.23344  0.74699  1.0000
  H   H218      1.0  0.13939  0.21265  0.72545  1.0000
  H   H219      1.0  0.16911  0.18217  0.78123  1.0000
  H   H220      1.0  0.16071  0.20919  0.79030  1.0000
  H   H221      1.0  0.18335  0.23214  0.76696  1.0000
  H   H222      1.0  0.19116  0.19071  0.71517  1.0000
  H   H223      1.0  0.18589  0.17263  0.74164  1.0000
  H   H224      1.0  0.15243  0.18781  0.69632  1.0000
  H   H225      1.0  0.14958  0.16745  0.72227  1.0000
  H   H226      1.0  0.21121  0.18831  0.76631  1.0000
  H   H227      1.0  0.19911  0.20230  0.79589  1.0000
  H   H228      1.0  0.12534  0.20847  0.77262  1.0000
  H   H229      1.0  0.13105  0.18408  0.75333  1.0000
  H   H230      1.0  0.13354  0.18758  0.81685  1.0000
  H   H231      1.0  0.11145  0.17815  0.79684  1.0000
  H   H232      1.0  0.13759  0.16314  0.79621  1.0000
  C   C153      1.0  0.14556  0.28366  0.52657  1.0000
  H   H233      1.0  0.21591  0.15037  0.90624  1.0000
  C   C154      1.0  0.19087  0.29880  0.95431  1.0000
  H   H234      1.0  0.13155  0.24708  0.69627  1.0000
  H   H235      1.0  0.20776  0.30348  0.95301  1.0000
  H   H236      1.0  0.03115  0.18253  0.69112  1.0000
  H   H237      1.0  0.03337  0.31079  0.72155  1.0000
  H   H238      1.0  0.19950  0.22172  0.99635  1.0000
  H   H239      1.0  0.14614  0.18822  0.96621  1.0000
  C   C155      1.0  0.01078  0.15093  0.55635  1.0000
  H   H240      1.0  0.18059  0.30197  0.56960  1.0000
  H   H241      1.0  0.06657  0.17721  0.86583  1.0000
  C   C156      1.0  0.07133  0.18084  0.97492  1.0000
  C   C157      1.0  0.03413  0.31045  0.69851  1.0000
  H   H242      1.0  0.14025  0.31848  0.81148  1.0000
  H   H243      1.0  0.01580  0.15102  0.69647  1.0000
  N   N8        1.0  0.19250  0.19803  0.96523  1.0000
  H   H244      1.0  0.15311  0.29464  0.77393  1.0000
  H   H245      1.0  0.04976  0.27962  0.60343  1.0000
  C   C158      1.0  0.17724  0.21513  0.95167  1.0000
  H   H246      1.0  0.07403  0.18985  0.50498  1.0000
  H   H247      1.0  0.05847  0.25958  0.68669  1.0000
  H   H248      1.0  0.17900  0.22782  0.56513  1.0000
  H   H249      1.0  0.10260  0.32768  0.79764  1.0000
  H   H250      1.0  0.12846  0.28395  0.70231  1.0000
  H   H251      1.0  0.06278  0.30974  0.65137  1.0000
  S   S38       1.0  0.00827  0.12554  0.54082  1.0000
  H   H252      1.0  0.03776  0.21221  0.64180  1.0000
  H   H253      1.0  0.05332  0.20642  0.93236  1.0000
  H   H254      1.0  0.09181  0.26835  0.70280  1.0000
  H   H255      1.0  0.08740  0.27983  0.99165  1.0000
  H   H256      1.0  0.02189  0.28587  0.79479  1.0000
  H   H257      1.0  0.14772  0.31417  0.74814  1.0000
  H   H258      1.0  0.17524  0.32295  0.81693  1.0000
  S   S39       1.0  0.22056  0.19665  0.87726  1.0000
  H   H259      1.0  0.23479  0.21753  0.75841  1.0000
  C   C159      1.0  0.07303  0.30013  0.70232  1.0000
  S   S40       1.0  0.18514  0.31675  0.67101  1.0000
  S   S41       1.0  0.23889  0.31045  0.62591  1.0000
  N   N9        1.0  0.05223  0.29446  0.68875  1.0000
  H   H260      1.0  0.02723  0.14338  0.65114  1.0000
  H   H261      1.0  0.07670  0.13155  0.53597  1.0000
  C   C160      1.0  0.20408  0.18456  0.94271  1.0000
  H   H262      1.0  0.01245  0.15235  0.62143  1.0000
  S   S42       1.0  0.05816  0.31047  0.78047  1.0000
  H   H263      1.0  0.02693  0.22067  0.67534  1.0000
  C   C161      1.0  0.04108  0.19489  0.92757  1.0000
  H   H264      1.0  0.18120  0.14552  0.70280  1.0000
  H   H265      1.0  0.22090  0.28967  0.57107  1.0000
  H   H266      1.0  0.11220  0.30193  0.78328  1.0000
  Fe  Fe20      1.0  0.21941  0.30273  0.66301  1.0000
  C   C162      1.0  0.03381  0.29397  0.64016  1.0000
  C   C163      1.0  0.03028  0.18581  0.66855  1.0000
  H   H267      1.0  0.17591  0.22125  0.69601  1.0000
  C   C164      1.0  0.15900  0.27112  0.54943  1.0000
  H   H268      1.0  0.19934  0.27241  0.71208  1.0000
  H   H269      1.0  0.00865  0.09263  0.62084  1.0000
  H   H270      1.0  0.03577  0.27933  0.73943  1.0000
  H   H271      1.0  0.22181  0.23352  0.78597  1.0000
  H   H272      1.0  0.22088  0.15889  0.96884  1.0000
  H   H273      1.0  0.20612  0.31310  0.74817  1.0000
  H   H274      1.0  0.01191  0.15232  0.98294  1.0000
  H   H275      1.0  0.00771  0.23051  0.50344  1.0000
  H   H276      1.0  0.11255  0.29108  0.73266  1.0000
  C   C165      1.0  0.22614  0.21680  0.77845  1.0000
  H   H277      1.0  0.10234  0.17222  0.99443  1.0000
  C   C166      1.0  0.15061  0.15793  0.98706  1.0000
  C   C167      1.0  0.17103  0.24626  0.91792  1.0000
  C   C168      1.0  0.03772  0.20834  0.66425  1.0000
  C   C169      1.0  0.11353  0.29313  0.70989  1.0000
  H   H278      1.0  0.21123  0.25314  0.56556  1.0000
  H   H279      1.0  0.16835  0.24431  0.59332  1.0000
  H   H280      1.0  0.15931  0.25527  0.93198  1.0000
  C   C170      1.0  0.15931  0.29555  0.98682  1.0000
  H   H281      1.0  0.01587  0.11509  0.60063  1.0000
  H   H282      1.0  0.06012  0.17539  0.52932  1.0000
  C   C171      1.0  0.19186  0.26303  0.51996  1.0000
  H   H283      1.0  0.21876  0.21878  0.96930  1.0000
  C   C172      1.0  0.04687  0.27204  0.69643  1.0000
  H   H284      1.0  0.07126  0.30114  0.72524  1.0000
  C   C173      1.0  0.16345  0.23184  0.70706  1.0000
  H   H285      1.0  0.16620  0.20745  0.93701  1.0000
  C   C174      1.0  0.02653  0.31027  0.49873  1.0000
  C   C175      1.0  0.18867  0.29454  0.55078  1.0000
  C   C176      1.0  0.05117  0.17817  0.90627  1.0000
  H   H286      1.0  0.16001  0.15148  0.67744  1.0000
  H   H287      1.0  0.16671  0.22386  0.96753  1.0000
  H   H288      1.0  0.03717  0.20550  0.51940  1.0000
  C   C177      1.0  0.14324  0.32294  0.65386  1.0000
  H   H289      1.0  0.02555  0.29861  0.51594  1.0000
  C   C178      1.0  0.09014  0.15876  0.51526  1.0000
  H   H290      1.0  0.19375  0.18396  0.92372  1.0000
  H   H291      1.0  0.06277  0.26674  0.73692  1.0000
  C   C179      1.0  0.08304  0.23528  0.97250  1.0000
  C   C180      1.0  0.00134  0.12383  0.64066  1.0000
  C   C181      1.0  0.21591  0.30963  0.83611  1.0000
  H   H292      1.0  0.05320  0.15588  0.95587  1.0000
  H   H293      1.0  0.10444  0.13512  0.54437  1.0000
  H   H294      1.0  0.18415  0.31851  0.99000  1.0000
  H   H295      1.0  0.02793  0.20463  0.91638  1.0000
  H   H296      1.0  0.16879  0.23822  0.51223  1.0000
  H   H297      1.0  0.09167  0.15049  0.97494  1.0000
  C   C182      1.0  0.21643  0.32217  0.55679  1.0000
  H   H298      1.0  0.15335  0.27781  0.56988  1.0000
  H   H299      1.0  0.00970  0.22777  0.94462  1.0000
  C   C183      1.0  0.20163  0.21377  0.85875  1.0000
  C   C184      1.0  0.18337  0.23880  0.58204  1.0000
  H   H300      1.0  0.21997  0.30881  0.79197  1.0000
  C   C185      1.0  0.18490  0.31311  0.80132  1.0000
  C   C186      1.0  0.17909  0.18504  0.98375  1.0000
  N   N10       1.0  0.18332  0.27134  0.54763  1.0000
  C   C187      1.0  0.22538  0.15033  0.92593  1.0000
  C   C188      1.0  0.14601  0.23909  0.68586  1.0000
  H   H301      1.0  0.19786  0.22178  0.73733  1.0000
  C   C189      1.0  0.04967  0.17100  0.96809  1.0000
  C   C190      1.0  0.21146  0.16065  0.94935  1.0000
  C   C191      1.0  0.19816  0.22583  0.60247  1.0000
  C   C192      1.0  0.19030  0.30605  0.75076  1.0000
  C   C193      1.0  0.20872  0.27134  0.73181  1.0000
  H   H302      1.0  0.13159  0.22268  0.94204  1.0000
  H   H303      1.0  0.21328  0.21926  0.59206  1.0000
  H   H304      1.0  0.01555  0.24702  0.98938  1.0000
  C   C194      1.0  0.19520  0.28150  0.75561  1.0000
  H   H305      1.0  0.18049  0.30923  0.94011  1.0000
  H   H306      1.0  0.03859  0.24145  0.75545  1.0000
  C   C195      1.0  0.20825  0.23198  0.84550  1.0000
  H   H307      1.0  0.14797  0.30112  0.52736  1.0000
  H   H308      1.0  0.04649  0.30879  0.60344  1.0000
  C   C196      1.0  0.05483  0.29513  0.65766  1.0000
  H   H309      1.0  0.01813  0.30536  0.69160  1.0000
  H   H310      1.0  0.21858  0.19242  0.93585  1.0000
  H   H311      1.0  0.15398  0.25442  0.54873  1.0000
  H   H312      1.0  0.19568  0.26912  0.59001  1.0000
  C   C197      1.0  0.04627  0.26714  0.72790  1.0000
  C   C198      1.0  0.06039  0.18940  0.88143  1.0000
  H   H313      1.0  0.16381  0.16845  0.94871  1.0000
  H   H314      1.0  0.17120  0.24632  0.71451  1.0000
  C   C199      1.0  0.11070  0.30394  0.99734  1.0000
  S   S43       1.0  0.24490  0.31117  0.69377  1.0000
  H   H315      1.0  0.18008  0.27321  0.75684  1.0000
  H   H316      1.0  0.07913  0.18642  0.95594  1.0000
  H   H317      1.0  0.19522  0.22798  0.52499  1.0000
  C   C200      1.0  0.19430  0.25864  0.57126  1.0000
  C   C201      1.0  0.03739  0.24531  0.73302  1.0000
  H   H318      1.0  0.06609  0.28134  0.65058  1.0000
  H   H319      1.0  0.03973  0.21469  0.97639  1.0000
  C   C202      1.0  0.11473  0.22798  0.94410  1.0000
  C   C203      1.0  0.15375  0.31212  0.76986  1.0000
  H   H320      1.0  0.24568  0.23446  0.53721  1.0000
  H   H321      1.0  0.00933  0.16088  0.74642  1.0000
  H   H322      1.0  0.03226  0.10624  0.63029  1.0000
  N   N11       1.0  0.17670  0.31835  0.77244  1.0000
  C   C204      1.0  0.15948  0.17541  0.96938  1.0000
  C   C205      1.0  0.00638  0.21971  0.96441  1.0000
  H   H323      1.0  0.18395  0.16598  0.67674  1.0000
  H   H324      1.0  0.02596  0.27900  0.64456  1.0000
  C   C206      1.0  0.18642  0.24007  0.51135  1.0000
  C   C207      1.0  0.00126  0.16447  0.97154  1.0000
  C   C208      1.0  0.12134  0.28168  0.53037  1.0000
  H   H325      1.0  0.23731  0.20853  0.79385  1.0000
  H   H326      1.0  0.05443  0.20895  0.67250  1.0000
  H   H327      1.0  0.20248  0.23615  0.62027  1.0000
  H   H328      1.0  0.00778  0.18839  0.63439  1.0000
  C   C209      1.0  0.01045  0.14628  0.64282  1.0000
  S   S44       1.0  0.23427  0.26141  0.97972  1.0000
  H   H329      1.0  0.02349  0.29338  0.59701  1.0000
  H   H330      1.0  0.01896  0.15880  0.93380  1.0000
  C   C210      1.0  0.01547  0.10858  0.62197  1.0000
  H   H331      1.0  0.04352  0.16558  0.98821  1.0000
  H   H332      1.0  0.18234  0.30432  0.53285  1.0000
  H   H333      1.0  0.21640  0.29176  0.83735  1.0000
  C   C211      1.0  0.21316  0.29823  0.55303  1.0000
  H   H334      1.0  0.16205  0.23612  0.90355  1.0000
  H   H335      1.0  0.17924  0.25799  0.90532  1.0000
  H   H336      1.0  0.14121  0.22496  0.67379  1.0000
  H   H337      1.0  0.18245  0.29608  0.80656  1.0000
  H   H338      1.0  0.04773  0.20050  0.87140  1.0000
  H   H339      1.0  0.18970  0.21215  0.61058  1.0000
  N   N12       1.0  0.03258  0.18584  0.95391  1.0000
  H   H340      1.0  0.18229  0.30771  0.73008  1.0000
  H   H341      1.0  0.04672  0.23223  0.72136  1.0000
  C   C212      1.0  0.10504  0.22845  0.97038  1.0000
  H   H342      1.0  0.19994  0.22466  0.91997  1.0000
  H   H343      1.0  0.06862  0.19465  0.98952  1.0000
  H   H344      1.0  0.23242  0.31447  0.84067  1.0000
  H   H345      1.0  0.22370  0.27969  0.72932  1.0000
  C   C213      1.0  0.03874  0.29397  0.60913  1.0000
  C   C214      1.0  0.08836  0.14378  0.54008  1.0000
  H   H346      1.0  0.21369  0.25420  0.73628  1.0000
  S   S45       1.0  0.23029  0.26761  0.66211  1.0000
  H   H347      1.0  0.19625  0.24332  0.94859  1.0000
  S   S46       1.0  0.23617  0.25156  0.90114  1.0000
  H   H348      1.0  0.19729  0.15103  0.95147  1.0000
  H   H349      1.0  0.20983  0.26259  0.51963  1.0000
  H   H350      1.0  0.19088  0.28177  0.94739  1.0000
  C   C215      1.0  0.99843  0.18872  0.56323  1.0000
  H   H351      1.0  0.18918  0.17160  0.99355  1.0000
  H   H352      1.0  0.04596  0.13881  0.50929  1.0000
  H   H353      1.0  0.03896  0.32148  0.50434  1.0000
  H   H354      1.0  0.15786  0.27960  0.97664  1.0000
  H   H355      1.0  0.16318  0.14440  0.99050  1.0000
  H   H356      1.0  0.13663  0.15148  0.97620  1.0000
  H   H357      1.0  0.18633  0.27436  0.50311  1.0000
  H   H358      1.0  0.14964  0.30733  0.97353  1.0000
  H   H359      1.0  0.02204  0.30801  0.64444  1.0000
  H   H360      1.0  0.08330  0.15312  0.55900  1.0000
  H   H361      1.0  0.14996  0.27720  0.50565  1.0000
  H   H362      1.0  0.23403  0.32425  0.55863  1.0000
  H   H363      1.0  0.11771  0.26453  0.52896  1.0000
  H   H364      1.0  0.11591  0.28838  0.55084  1.0000
  H   H365      1.0  0.23571  0.18515  0.98790  1.0000
  H   H366      1.0  0.10320  0.16944  0.52036  1.0000
  C   C216      1.0  0.02999  0.31759  0.78353  1.0000
  C   C217      1.0  0.08738  0.16439  0.98903  1.0000
  H   H367      1.0  0.10949  0.32561  0.76144  1.0000
  H   H368      1.0  0.02357  0.17080  0.50903  1.0000
  H   H369      1.0  0.20477  0.31695  0.85218  1.0000
  H   H370      1.0  0.23081  0.13337  0.93118  1.0000
  C   C218      1.0  0.11400  0.31950  0.78245  1.0000
  H   H371      1.0  0.00173  0.18288  0.93327  1.0000
  C   C219      1.0  0.99873  0.15570  0.69015  1.0000
  N   N13       1.0  0.99758  0.16294  0.66033  1.0000
  H   H372      1.0  0.23990  0.15931  0.92261  1.0000
  H   H373      1.0  0.11478  0.30383  0.97496  1.0000
  C   C220      1.0  0.13716  0.32407  0.78987  1.0000
  H   H374      1.0  0.24542  0.18269  0.54296  1.0000
  Fe  Fe21      1.0  0.24622  0.21652  0.89496  1.0000
  H   H375      1.0  0.00095  0.11621  0.66134  1.0000
  H   H376      1.0  0.02289  0.19827  0.99456  1.0000
  H   H377      1.0  0.07643  0.30728  0.98697  1.0000
  H   H378      1.0  0.19412  0.29090  0.99732  1.0000
  C   C221      1.0  0.16952  0.38055  0.35624  1.0000
  H   H379      1.0  0.01950  0.35342  0.31968  1.0000
  H   H380      1.0  0.03220  0.61059  0.05110  1.0000
  H   H381      1.0  0.02629  0.61725  0.38181  1.0000
  H   H382      1.0  0.00762  0.58573  0.00760  1.0000
  H   H383      1.0  0.03556  0.63303  0.43315  1.0000
  H   H384      1.0  0.01108  0.47978  0.28678  1.0000
  H   H385      1.0  0.17977  0.35271  0.06678  1.0000
  H   H386      1.0  0.16673  0.34728  0.34626  1.0000
  H   H387      1.0  0.15241  0.38522  0.35036  1.0000
  H   H388      1.0  0.06412  0.34120  0.41825  1.0000
  H   H389      1.0  0.14679  0.35149  0.12146  1.0000
  C   C222      1.0  0.01965  0.58693  0.39866  1.0000
  H   H390      1.0  0.02499  0.65252  0.04364  1.0000
  H   H391      1.0  0.03114  0.36159  0.19440  1.0000
  H   H392      1.0  0.02637  0.63333  0.08502  1.0000
  H   H393      1.0  0.23540  0.34465  0.31200  1.0000
  C   C223      1.0  0.20174  0.35318  0.34776  1.0000
  C   C224      1.0  0.01427  0.60526  0.37818  1.0000
  H   H394      1.0  0.15076  0.35344  0.06339  1.0000
  C   C225      1.0  0.02917  0.35733  0.15030  1.0000
  H   H395      1.0  0.00244  0.62600  0.32578  1.0000
  H   H396      1.0  0.00318  0.55870  0.12603  1.0000
  H   H397      1.0  0.02515  0.34497  0.13472  1.0000
  C   C226      1.0  0.02331  0.64541  0.43969  1.0000
  H   H398      1.0  0.16071  0.65411  0.12935  1.0000
  H   H399      1.0  0.16711  0.35870  0.03357  1.0000
  C   C227      1.0  0.00239  0.37573  0.23566  1.0000
  H   H400      1.0  0.17942  0.39398  0.35073  1.0000
  H   H401      1.0  0.03732  0.35913  0.36830  1.0000
  H   H402      1.0  0.19938  0.33763  0.29583  1.0000
  H   H403      1.0  0.01675  0.36923  0.24771  1.0000
  H   H404      1.0  0.03574  0.59695  0.14500  1.0000
  H   H405      1.0  0.01804  0.59295  0.42037  1.0000
  H   H406      1.0  0.04631  0.36078  0.14728  1.0000
  H   H407      1.0  0.02123  0.48114  0.32207  1.0000
  C   C228      1.0  0.04884  0.34284  0.40620  1.0000
  C   C229      1.0  0.01354  0.49069  0.30471  1.0000
  H   H408      1.0  0.01653  0.59849  0.35694  1.0000
  H   H409      1.0  0.21061  0.36638  0.33886  1.0000
  H   H410      1.0  0.17033  0.37805  0.37904  1.0000
  C   C230      1.0  0.02623  0.34913  0.17972  1.0000
  H   H411      1.0  0.03043  0.62586  0.14640  1.0000
  C   C231      1.0  0.16631  0.34893  0.05266  1.0000
  C   C232      1.0  0.01164  0.33935  0.31303  1.0000
  H   H412      1.0  0.01999  0.60012  0.49496  1.0000
  N   N14       1.0  0.21126  0.33128  0.33744  1.0000
  H   H413      1.0  0.01797  0.62245  0.02137  1.0000
  H   H414      1.0  0.00881  0.54643  0.07752  1.0000
  H   H415      1.0  0.00696  0.64459  0.10882  1.0000
  H   H416      1.0  0.00215  0.40651  0.25745  1.0000
  C   C233      1.0  0.17754  0.35985  0.34084  1.0000
  C   C234      1.0  0.02142  0.58793  0.02181  1.0000
  H   H417      1.0  0.00875  0.57385  0.39536  1.0000
  H   H418      1.0  0.02471  0.50279  0.29832  1.0000
  H   H419      1.0  0.00760  0.38314  0.21626  1.0000
  C   C235      1.0  0.05245  0.35661  0.38080  1.0000
  H   H420      1.0  0.03638  0.35189  0.41924  1.0000
  H   H421      1.0  0.13344  0.64608  0.12831  1.0000
  H   H422      1.0  0.01449  0.64702  0.36121  1.0000
  C   C236      1.0  0.01055  0.63066  0.09438  1.0000
  H   H423      1.0  0.01825  0.59552  0.09912  1.0000
  H   H424      1.0  0.05741  0.37261  0.38750  1.0000
  H   H425      1.0  0.17558  0.36303  0.31826  1.0000
  H   H426      1.0  0.04873  0.61338  0.12058  1.0000
  H   H427      1.0  0.02898  0.33784  0.23094  1.0000
  H   H428      1.0  0.02288  0.57439  0.03679  1.0000
  H   H429      1.0  0.03646  0.58738  0.00935  1.0000
  C   C237      1.0  0.14533  0.33444  0.11808  1.0000
  H   H430      1.0  0.11204  0.33923  0.10500  1.0000
  H   H431      1.0  0.03660  0.58008  0.39556  1.0000
  H   H432      1.0  0.01867  0.37244  0.14672  1.0000
  C   C238      1.0  0.01808  0.60954  0.03711  1.0000
  C   C239      1.0  0.03355  0.61177  0.13223  1.0000
  H   H433      1.0  0.15031  0.64316  0.09771  1.0000
  H   H434      1.0  0.14538  0.33062  0.01163  1.0000
  C   C240      1.0  0.00259  0.34343  0.18444  1.0000
  C   C241      1.0  0.14601  0.65347  0.11612  1.0000
  H   H435      1.0  0.06543  0.34864  0.36755  1.0000
  C   C242      1.0  0.01447  0.61003  0.11229  1.0000
  H   H436      1.0  0.16177  0.33514  0.18943  1.0000
  H   H437      1.0  0.20399  0.35466  0.37064  1.0000
  C   C243      1.0  0.00397  0.63949  0.45141  1.0000
  H   H438      1.0  0.00159  0.62268  0.45403  1.0000
  H   H439      1.0  0.99866  0.65566  0.39006  1.0000
  H   H440      1.0  0.11137  0.65706  0.47362  1.0000
  S   S47       1.0  0.18769  0.33008  0.13286  1.0000
  H   H441      1.0  0.00017  0.60751  0.12521  1.0000
  C   C244      1.0  0.23460  0.33337  0.32978  1.0000
  H   H442      1.0  0.03772  0.33461  0.18240  1.0000
  H   H443      1.0  0.24230  0.35541  0.36432  1.0000
  H   H444      1.0  0.00030  0.32962  0.17012  1.0000
  H   H445      1.0  0.03256  0.35074  0.77222  1.0000
  H   H446      1.0  0.02326  0.64186  0.60045  1.0000
  H   H447      1.0  0.00819  0.59288  0.55586  1.0000
  H   H448      1.0  0.02315  0.64336  0.84412  1.0000
  C   C245      1.0  0.02488  0.58130  0.91076  1.0000
  H   H449      1.0  0.03801  0.62829  0.95901  1.0000
  C   C246      1.0  0.01456  0.61537  0.88331  1.0000
  H   H450      1.0  0.18785  0.37645  0.73369  1.0000
  H   H451      1.0  0.02608  0.59065  0.93038  1.0000
  H   H452      1.0  0.04101  0.57935  0.90071  1.0000
  H   H453      1.0  0.02845  0.65606  0.89221  1.0000
  C   C247      1.0  0.01741  0.62551  0.59916  1.0000
  H   H454      1.0  0.01070  0.34690  0.71886  1.0000
  C   C248      1.0  0.17028  0.37484  0.73657  1.0000
  H   H455      1.0  0.03880  0.59531  0.52364  1.0000
  H   H456      1.0  0.13791  0.34179  0.78940  1.0000
  H   H457      1.0  0.01693  0.36527  0.69194  1.0000
  C   C249      1.0  0.00741  0.60778  0.82133  1.0000
  H   H458      1.0  0.02157  0.63035  0.54282  1.0000
  H   H459      1.0  0.02095  0.59822  0.83180  1.0000
  C   C250      1.0  0.01490  0.34810  0.69658  1.0000
  C   C251      1.0  0.02246  0.59239  0.51556  1.0000
  C   C252      1.0  0.01939  0.61581  0.62819  1.0000
  H   H460      1.0  0.03033  0.61327  0.87227  1.0000
  H   H461      1.0  0.03641  0.61567  0.63564  1.0000
  C   C253      1.0  0.17784  0.34217  0.76752  1.0000
  C   C254      1.0  0.00808  0.59264  0.89130  1.0000
  H   H462      1.0  0.20837  0.32862  0.57601  1.0000
  H   H463      1.0  0.16156  0.38093  0.71762  1.0000
  H   H464      1.0  0.00082  0.51067  0.94208  1.0000
  C   C255      1.0  0.02469  0.64071  0.95841  1.0000
  C   C256      1.0  0.00473  0.62604  0.53886  1.0000
  C   C257      1.0  0.02163  0.33881  0.77774  1.0000
  H   H465      1.0  0.19505  0.34593  0.76594  1.0000
  H   H466      1.0  0.17194  0.34207  0.72227  1.0000
  H   H467      1.0  0.01409  0.62119  0.81002  1.0000
  H   H468      1.0  0.17139  0.35187  0.78560  1.0000
  H   H469      1.0  0.21096  0.33480  0.80614  1.0000
  H   H470      1.0  0.20982  0.33155  0.53869  1.0000
  H   H471      1.0  0.02836  0.61534  0.58537  1.0000
  H   H472      1.0  0.14838  0.35045  0.74247  1.0000
  H   H473      1.0  0.10609  0.65334  0.50994  1.0000
  H   H474      1.0  0.02159  0.57471  0.51289  1.0000
  H   H475      1.0  0.11001  0.32882  0.64075  1.0000
  H   H476      1.0  0.00137  0.34283  0.68366  1.0000
  C   C258      1.0  0.99919  0.34476  0.77938  1.0000
  H   H477      1.0  0.00150  0.54961  0.58198  1.0000
  H   H478      1.0  0.01827  0.62373  0.90307  1.0000
  H   H479      1.0  0.04909  0.34118  0.70208  1.0000
  C   C259      1.0  0.00498  0.60118  0.53583  1.0000
  H   H480      1.0  0.16435  0.38491  0.75454  1.0000
  H   H481      1.0  0.01989  0.56505  0.91590  1.0000
  H   H482      1.0  0.01472  0.59897  0.62788  1.0000
  C   C260      1.0  0.16616  0.35124  0.74097  1.0000
  C   C261      1.0  0.03586  0.33430  0.69013  1.0000
  H   H483      1.0  0.01024  0.58799  0.78397  1.0000
  H   H484      1.0  0.14344  0.33836  0.66439  1.0000
  H   H485      1.0  0.03915  0.33598  0.66774  1.0000
  H   H486      1.0  0.00111  0.61913  0.97043  1.0000
  C   C262      1.0  0.00837  0.64855  0.85622  1.0000
  H   H487      1.0  0.00684  0.58223  0.87263  1.0000
  H   H488      1.0  0.00044  0.63251  0.51790  1.0000
  H   H489      1.0  0.00882  0.62546  0.64305  1.0000
  C   C263      1.0  0.00367  0.63540  0.96464  1.0000
  C   C264      1.0  0.99780  0.59314  0.79970  1.0000
  N   N15       1.0  0.99798  0.62912  0.86671  1.0000
  Fe  Fe22      1.0  0.08457  0.80449  0.16183  1.0000
  S   S48       1.0  0.11323  0.82427  0.15899  1.0000
  S   S49       1.0  0.08886  0.76854  0.15694  1.0000
  C   C265      1.0  0.99956  0.84952  0.19217  1.0000
  H   H490      1.0  0.17407  0.80344  0.02103  1.0000
  C   C266      1.0  0.06938  0.74494  0.02004  1.0000
  C   C267      1.0  0.01404  0.81338  0.33159  1.0000
  C   C268      1.0  0.24291  0.82052  0.24558  1.0000
  S   S50       1.0  0.05067  0.67363  0.41911  1.0000
  Fe  Fe23      1.0  0.22053  0.78472  0.09065  1.0000
  S   S51       1.0  0.18566  0.78130  0.07946  1.0000
  H   H491      1.0  0.13430  0.68587  0.12636  1.0000
  S   S52       1.0  0.23672  0.81578  0.09043  1.0000
  C   C269      1.0  0.15155  0.73454  0.06017  1.0000
  Fe  Fe24      1.0  0.06879  0.74823  0.38822  1.0000
  S   S53       1.0  0.08804  0.71588  0.38892  1.0000
  H   H492      1.0  0.16254  0.74434  0.07214  1.0000
  Fe  Fe25      1.0  0.06321  0.74965  0.45102  1.0000
  S   S54       1.0  0.08187  0.71761  0.45680  1.0000
  S   S55       1.0  0.05185  0.77245  0.48553  1.0000
  Fe  Fe26      1.0  0.10525  0.72904  0.42580  1.0000
  S   S56       1.0  0.14085  0.72802  0.43770  1.0000
  Fe  Fe27      1.0  0.06290  0.70712  0.41989  1.0000
  H   H493      1.0  0.11443  0.76606  0.47733  1.0000
  S   S57       1.0  0.08782  0.76189  0.42284  1.0000
  S   S58       1.0  0.04237  0.73858  0.41623  1.0000
  S   S59       1.0  0.06159  0.77131  0.35260  1.0000
  H   H494      1.0  0.06052  0.66923  0.02962  1.0000
  Fe  Fe28      1.0  0.22943  0.76717  0.35050  1.0000
  S   S60       1.0  0.20151  0.79214  0.34725  1.0000
  S   S61       1.0  0.21931  0.73336  0.35472  1.0000
  Fe  Fe29      1.0  0.22048  0.80603  0.31313  1.0000
  S   S62       1.0  0.20451  0.81327  0.27143  1.0000
  Fe  Fe30      1.0  0.22073  0.81092  0.37698  1.0000
  S   S63       1.0  0.20540  0.82701  0.41492  1.0000
  H   H495      1.0  0.10937  0.77378  0.04580  1.0000
  C   C270      1.0  0.12026  0.71099  0.06398  1.0000
  H   H496      1.0  0.11386  0.77961  0.22796  1.0000
  H   H497      1.0  0.01747  0.80418  0.27471  1.0000
  H   H498      1.0  0.13565  0.76453  0.15082  1.0000
  C   C271      1.0  0.06239  0.75526  0.06814  1.0000
  H   H499      1.0  0.04132  0.85417  0.12430  1.0000
  C   C272      1.0  0.16112  0.73045  0.41260  1.0000
  C   C273      1.0  0.16447  0.71546  0.39092  1.0000
  C   C274      1.0  0.18239  0.71633  0.37321  1.0000
  C   C275      1.0  0.19666  0.73256  0.37660  1.0000
  C   C276      1.0  0.19305  0.74775  0.39797  1.0000
  C   C277      1.0  0.17568  0.74633  0.41624  1.0000
  H   H500      1.0  0.15364  0.70280  0.38832  1.0000
  H   H501      1.0  0.18514  0.70445  0.35682  1.0000
  H   H502      1.0  0.20408  0.76018  0.40101  1.0000
  H   H503      1.0  0.17369  0.75740  0.43354  1.0000
  H   H504      1.0  0.20575  0.72977  0.17596  1.0000
  H   H505      1.0  0.13588  0.78814  0.19259  1.0000
  C   C278      1.0  0.06980  0.68096  0.01850  1.0000
  C   C279      1.0  0.22162  0.81493  0.24240  1.0000
  H   H506      1.0  0.14411  0.71780  0.09707  1.0000
  H   H507      1.0  0.23598  0.67032  0.46456  1.0000
  C   C280      1.0  0.08141  0.76587  0.06879  1.0000
  H   H508      1.0  0.16516  0.74978  0.24135  1.0000
  C   C281      1.0  0.13996  0.81207  0.02343  1.0000
  H   H509      1.0  0.11002  0.72215  0.05043  1.0000
  H   H510      1.0  0.02280  0.68578  0.35804  1.0000
  C   C282      1.0  0.22394  0.79998  0.45599  1.0000
  H   H511      1.0  0.13708  0.80001  0.03950  1.0000
  C   C283      1.0  0.21840  0.82122  0.44714  1.0000
  C   C284      1.0  0.21377  0.81084  0.21558  1.0000
  C   C285      1.0  0.18923  0.73243  0.48655  1.0000
  H   H512      1.0  0.00106  0.70585  0.34977  1.0000
  H   H513      1.0  0.20915  0.75823  0.17802  1.0000
  S   S64       1.0  0.00503  0.82133  0.19057  1.0000
  H   H514      1.0  0.17976  0.78757  0.48908  1.0000
  C   C286      1.0  0.08073  0.73602  0.28439  1.0000
  S   S65       1.0  0.05375  0.80851  0.13678  1.0000
  C   C287      1.0  0.15037  0.75547  0.15920  1.0000
  H   H515      1.0  0.08986  0.72084  0.27974  1.0000
  C   C288      1.0  0.02685  0.66722  0.43616  1.0000
  H   H516      1.0  0.18830  0.81393  0.49692  1.0000
  H   H517      1.0  0.23131  0.81968  0.02003  1.0000
  C   C289      1.0  0.05618  0.74516  0.04359  1.0000
  H   H518      1.0  0.20551  0.74312  0.20934  1.0000
  H   H519      1.0  0.04145  0.73696  0.04303  1.0000
  C   C290      1.0  0.13340  0.81274  0.13667  1.0000
  C   C291      1.0  0.12801  0.79878  0.11534  1.0000
  C   C292      1.0  0.14419  0.78928  0.09790  1.0000
  C   C293      1.0  0.16587  0.79355  0.10178  1.0000
  C   C294      1.0  0.17134  0.80745  0.12321  1.0000
  C   C295      1.0  0.15507  0.81720  0.14047  1.0000
  H   H520      1.0  0.11132  0.79548  0.11213  1.0000
  H   H521      1.0  0.13983  0.77861  0.08137  1.0000
  H   H522      1.0  0.18803  0.81089  0.12623  1.0000
  H   H523      1.0  0.15930  0.82817  0.15678  1.0000
  H   H524      1.0  0.00495  0.81993  0.24807  1.0000
  N   N16       1.0  0.10616  0.69748  0.08104  1.0000
  C   C296      1.0  0.09828  0.70978  0.10671  1.0000
  C   C297      1.0  0.08864  0.75514  0.02083  1.0000
  C   C298      1.0  0.11793  0.67594  0.08787  1.0000
  H   H525      1.0  0.00514  0.88271  0.28804  1.0000
  C   C299      1.0  0.08302  0.69814  0.12586  1.0000
  H   H526      1.0  0.08625  0.77369  0.08768  1.0000
  C   C300      1.0  0.07696  0.71172  0.15166  1.0000
  C   C301      1.0  0.06165  0.76930  0.26883  1.0000
  H   H527      1.0  0.08960  0.72547  0.10063  1.0000
  H   H528      1.0  0.11193  0.71432  0.11990  1.0000
  C   C302      1.0  0.08646  0.69322  0.06373  1.0000
  H   H529      1.0  0.05972  0.69649  0.01623  1.0000
  H   H530      1.0  0.06481  0.73658  0.00143  1.0000
  H   H531      1.0  0.00204  0.92175  0.08385  1.0000
  H   H532      1.0  0.06767  0.69527  0.11498  1.0000
  H   H533      1.0  0.09094  0.68250  0.13304  1.0000
  H   H534      1.0  0.12513  0.74006  0.08862  1.0000
  C   C303      1.0  0.00028  0.83244  0.31777  1.0000
  C   C304      1.0  0.23110  0.83456  0.49145  1.0000
  H   H535      1.0  0.06649  0.70284  0.16534  1.0000
  H   H536      1.0  0.09164  0.71533  0.16365  1.0000
  H   H537      1.0  0.06777  0.72709  0.14569  1.0000
  C   C305      1.0  0.01166  0.66329  0.05260  1.0000
  H   H538      1.0  0.07676  0.68138  0.07406  1.0000
  H   H539      1.0  0.01723  0.66957  0.07285  1.0000
  N   N17       1.0  0.00501  0.83637  0.28766  1.0000
  H   H540      1.0  0.07551  0.70824  0.06190  1.0000
  H   H541      1.0  0.06904  0.84197  0.26184  1.0000
  H   H542      1.0  0.21794  0.70165  0.46399  1.0000
  C   C306      1.0  0.05802  0.77556  0.29652  1.0000
  C   C307      1.0  0.10228  0.80183  0.27257  1.0000
  C   C308      1.0  0.21179  0.73492  0.47504  1.0000
  H   H543      1.0  0.00907  0.82508  0.37410  1.0000
  H   H544      1.0  0.21763  0.85480  0.45852  1.0000
  H   H545      1.0  0.23861  0.76009  0.22509  1.0000
  H   H546      1.0  0.02424  0.86533  0.24971  1.0000
  H   H547      1.0  0.17890  0.74776  0.48413  1.0000
  H   H548      1.0  0.09947  0.69592  0.02118  1.0000
  H   H549      1.0  0.23959  0.77342  0.99922  1.0000
  H   H550      1.0  0.10657  0.66500  0.09692  1.0000
  C   C309      1.0  0.16001  0.80463  0.00653  1.0000
  H   H551      1.0  0.15083  0.73865  0.15121  1.0000
  C   C310      1.0  0.03444  0.85074  0.25634  1.0000
  C   C311      1.0  0.01447  0.87693  0.11320  1.0000
  C   C312      1.0  0.09091  0.68447  0.03378  1.0000
  H   H552      1.0  0.02278  0.89705  0.18632  1.0000
  C   C313      1.0  0.00539  0.69084  0.36160  1.0000
  H   H553      1.0  0.20984  0.74015  0.45325  1.0000
  H   H554      1.0  0.02572  0.88992  0.11295  1.0000
  S   S66       1.0  0.08100  0.74323  0.22832  1.0000
  H   H555      1.0  0.09009  0.80073  0.25584  1.0000
  S   S67       1.0  0.03790  0.76878  0.17447  1.0000
  H   H556      1.0  0.01806  0.84180  0.11086  1.0000
  S   S68       1.0  0.06794  0.80398  0.20305  1.0000
  C   C314      1.0  0.13508  0.72595  0.07976  1.0000
  H   H557      1.0  0.15671  0.77076  0.00967  1.0000
  H   H558      1.0  0.00707  0.87645  0.13397  1.0000
  H   H559      1.0  0.16489  0.76290  0.15156  1.0000
  C   C315      1.0  0.22194  0.83840  0.46508  1.0000
  C   C316      1.0  0.22704  0.81222  0.19226  1.0000
  Fe  Fe31      1.0  0.06989  0.76814  0.19634  1.0000
  S   S69       1.0  0.23678  0.77237  0.12977  1.0000
  C   C317      1.0  0.02774  0.84321  0.28545  1.0000
  C   C318      1.0  0.01038  0.88612  0.18981  1.0000
  H   H560      1.0  0.09355  0.80294  0.29257  1.0000
  C   C319      1.0  0.14995  0.75555  0.19088  1.0000
  C   C320      1.0  0.06551  0.76205  0.31826  1.0000
  H   H561      1.0  0.16466  0.78590  0.19503  1.0000
  H   H562      1.0  0.14314  0.74486  0.04405  1.0000
  H   H563      1.0  0.03971  0.82962  0.29118  1.0000
  C   C321      1.0  0.14987  0.77887  0.20281  1.0000
  C   C322      1.0  0.21296  0.74248  0.18844  1.0000
  H   H564      1.0  0.11043  0.81683  0.27022  1.0000
  C   C323      1.0  0.02812  0.85566  0.10855  1.0000
  H   H565      1.0  0.03140  0.81650  0.33219  1.0000
  H   H566      1.0  0.13532  0.74785  0.19755  1.0000
  H   H567      1.0  0.03554  0.85508  0.08762  1.0000
  H   H568      1.0  0.22076  0.80902  0.17176  1.0000
  S   S70       1.0  0.04714  0.75271  0.09831  1.0000
  H   H569      1.0  0.06229  0.86161  0.23527  1.0000
  C   C324      1.0  0.07660  0.74208  0.31217  1.0000
  H   H570      1.0  0.19468  0.76213  0.00652  1.0000
  H   H571      1.0  0.12544  0.81434  0.00977  1.0000
  H   H572      1.0  0.16157  0.72111  0.05001  1.0000
  C   C325      1.0  0.23865  0.81888  0.99971  1.0000
  C   C326      1.0  0.01566  0.86366  0.18823  1.0000
  H   H573      1.0  0.19747  0.80649  0.21252  1.0000
  Fe  Fe32      1.0  0.05659  0.77231  0.13538  1.0000
  N   N18       1.0  0.14847  0.78131  0.23410  1.0000
  C   C327      1.0  0.15141  0.80455  0.24142  1.0000
  C   C328      1.0  0.16704  0.76700  0.24624  1.0000
  C   C329      1.0  0.23258  0.79613  0.48292  1.0000
  C   C330      1.0  0.12681  0.77456  0.24332  1.0000
  C   C331      1.0  0.11861  0.78196  0.27272  1.0000
  C   C332      1.0  0.13768  0.82172  0.22427  1.0000
  S   S71       1.0  0.23630  0.82827  0.34259  1.0000
  C   C333      1.0  0.17019  0.76737  0.27805  1.0000
  C   C334      1.0  0.19173  0.75527  0.28640  1.0000
  C   C335      1.0  0.13845  0.84438  0.23651  1.0000
  H   H574      1.0  0.01349  0.69997  0.44233  1.0000
  H   H575      1.0  0.16846  0.80788  0.23829  1.0000
  H   H576      1.0  0.14867  0.80807  0.26370  1.0000
  H   H577      1.0  0.22101  0.78658  0.44241  1.0000
  H   H578      1.0  0.18255  0.77103  0.23668  1.0000
  C   C336      1.0  0.07350  0.74977  0.26269  1.0000
  Fe  Fe33      1.0  0.03735  0.80488  0.17769  1.0000
  H   H579      1.0  0.12609  0.87992  0.49361  1.0000
  H   H580      1.0  0.08242  0.73153  0.32881  1.0000
  H   H581      1.0  0.13155  0.78503  0.28761  1.0000
  H   H582      1.0  0.11035  0.76856  0.28183  1.0000
  H   H583      1.0  0.14448  0.82225  0.20310  1.0000
  H   H584      1.0  0.12055  0.81786  0.22253  1.0000
  C   C337      1.0  0.05800  0.85633  0.25635  1.0000
  H   H585      1.0  0.01731  0.79670  0.37091  1.0000
  H   H586      1.0  0.17012  0.78400  0.28650  1.0000
  H   H587      1.0  0.15728  0.75880  0.28792  1.0000
  H   H588      1.0  0.19301  0.75472  0.30935  1.0000
  H   H589      1.0  0.19279  0.73841  0.27843  1.0000
  H   H590      1.0  0.20556  0.76360  0.27837  1.0000
  H   H591      1.0  0.15551  0.84839  0.23912  1.0000
  H   H592      1.0  0.13005  0.85628  0.22217  1.0000
  H   H593      1.0  0.13014  0.84576  0.25679  1.0000
  C   C338      1.0  0.09448  0.76588  0.04511  1.0000
  H   H594      1.0  0.04970  0.79105  0.30110  1.0000
  H   H595      1.0  0.03207  0.85731  0.18374  1.0000
  N   N19       1.0  0.12834  0.80646  0.36591  1.0000
  C   C339      1.0  0.12228  0.78419  0.35811  1.0000
  C   C340      1.0  0.10788  0.82029  0.37297  1.0000
  C   C341      1.0  0.13991  0.81560  0.34183  1.0000
  C   C342      1.0  0.14327  0.80581  0.39084  1.0000
  C   C343      1.0  0.13572  0.79375  0.41659  1.0000
  C   C344      1.0  0.14140  0.76714  0.35204  1.0000
  C   C345      1.0  0.14552  0.83935  0.34504  1.0000
  C   C346      1.0  0.09177  0.82543  0.34862  1.0000
  C   C347      1.0  0.07187  0.83958  0.35839  1.0000
  C   C348      1.0  0.15003  0.79780  0.44178  1.0000
  C   C349      1.0  0.13312  0.74545  0.34413  1.0000
  C   C350      1.0  0.15776  0.84636  0.31969  1.0000
  H   H596      1.0  0.11196  0.78484  0.33912  1.0000
  H   H597      1.0  0.11207  0.77769  0.37445  1.0000
  H   H598      1.0  0.09852  0.81225  0.38891  1.0000
  H   H599      1.0  0.11182  0.83582  0.38264  1.0000
  H   H600      1.0  0.13053  0.81406  0.32227  1.0000
  H   H601      1.0  0.15560  0.80607  0.33818  1.0000
  H   H602      1.0  0.15975  0.79851  0.38532  1.0000
  H   H603      1.0  0.14579  0.82248  0.39797  1.0000
  H   H604      1.0  0.13660  0.77612  0.41254  1.0000
  H   H605      1.0  0.11886  0.79912  0.42237  1.0000
  H   H606      1.0  0.15124  0.77206  0.33451  1.0000
  H   H607      1.0  0.15220  0.76466  0.37030  1.0000
  H   H608      1.0  0.15617  0.84135  0.36332  1.0000
  H   H609      1.0  0.13070  0.85048  0.34736  1.0000
  H   H610      1.0  0.09932  0.83412  0.33173  1.0000
  H   H611      1.0  0.08582  0.81044  0.33998  1.0000
  H   H612      1.0  0.06082  0.84332  0.34052  1.0000
  H   H613      1.0  0.06293  0.83097  0.37419  1.0000
  H   H614      1.0  0.07667  0.85500  0.36737  1.0000
  H   H615      1.0  0.16749  0.79498  0.43651  1.0000
  H   H616      1.0  0.14689  0.81470  0.44928  1.0000
  H   H617      1.0  0.14642  0.78672  0.45874  1.0000
  H   H618      1.0  0.12443  0.73890  0.36184  1.0000
  H   H619      1.0  0.12205  0.74714  0.32592  1.0000
  H   H620      1.0  0.14697  0.73377  0.33858  1.0000
  H   H621      1.0  0.16153  0.86341  0.32229  1.0000
  H   H622      1.0  0.17330  0.83623  0.31721  1.0000
  H   H623      1.0  0.14785  0.84503  0.30061  1.0000
  C   C351      1.0  0.01095  0.68311  0.44492  1.0000
  H   H624      1.0  0.16459  0.74541  0.19749  1.0000
  H   H625      1.0  0.02219  0.69147  0.03189  1.0000
  H   H626      1.0  0.18139  0.71954  0.47514  1.0000
  C   C352      1.0  0.13792  0.67629  0.10722  1.0000
  H   H627      1.0  0.14242  0.82762  0.03400  1.0000
  H   H628      1.0  0.12715  0.75662  0.24297  1.0000
  H   H629      1.0  0.13045  0.70050  0.04949  1.0000
  H   H630      1.0  0.05579  0.77986  0.25224  1.0000
  H   H631      1.0  0.06037  0.86965  0.27127  1.0000
  H   H632      1.0  0.23354  0.74576  0.00416  1.0000
  H   H633      1.0  0.03045  0.85627  0.30070  1.0000
  H   H634      1.0  0.03302  0.83790  0.24051  1.0000
  C   C353      1.0  0.00706  0.81031  0.36154  1.0000
  C   C354      1.0  0.00354  0.81618  0.27039  1.0000
  H   H635      1.0  0.15141  0.68295  0.09599  1.0000
  H   H636      1.0  0.08872  0.67221  0.48964  1.0000
  H   H637      1.0  0.21868  0.74802  0.48694  1.0000
  C   C355      1.0  0.22630  0.71337  0.47688  1.0000
  H   H638      1.0  0.00309  0.84696  0.33049  1.0000
  C   C356      1.0  0.00742  0.68262  0.03339  1.0000
  H   H639      1.0  0.24162  0.73565  0.43349  1.0000
  H   H640      1.0  0.00509  0.88348  0.07062  1.0000
  H   H641      1.0  0.00301  0.69447  0.38404  1.0000
  H   H642      1.0  0.10080  0.66877  0.03406  1.0000
  H   H643      1.0  0.00159  0.95685  0.12862  1.0000
  H   H644      1.0  0.12393  0.66758  0.06860  1.0000
  H   H645      1.0  0.23940  0.70824  0.42556  1.0000
  H   H646      1.0  0.00310  0.67712  0.01228  1.0000
  H   H647      1.0  0.01243  0.79793  0.32043  1.0000
  C   C357      1.0  0.23745  0.73721  0.19088  1.0000
  H   H648      1.0  0.24396  0.73490  0.16956  1.0000
  S   S72       1.0  0.24464  0.76651  0.06277  1.0000
  H   H649      1.0  0.24021  0.72169  0.20199  1.0000
  H   H650      1.0  0.23658  0.77989  0.49000  1.0000
  H   H651      1.0  0.11996  0.69421  0.48212  1.0000
  H   H652      1.0  0.12150  0.72715  0.49259  1.0000
  H   H653      1.0  0.24462  0.72852  0.25161  1.0000
  H   H654      1.0  0.00110  0.96077  0.09149  1.0000
  H   H655      1.0  0.00127  0.98169  0.18528  1.0000
  H   H656      1.0  0.24573  0.77020  0.19277  1.0000
  H   H657      1.0  0.24410  0.69419  0.02754  1.0000
  H   H658      1.0  0.00148  0.91717  0.12038  1.0000
  C   C358      1.0  0.10569  0.66539  0.49304  1.0000
  S   S73       1.0  0.24728  0.77961  0.31426  1.0000
  Fe  Fe34      1.0  0.07688  0.78799  0.67616  1.0000
  S   S74       1.0  0.10799  0.80404  0.67673  1.0000
  S   S75       1.0  0.08007  0.75190  0.67349  1.0000
  H   H659      1.0  0.21253  0.74646  0.96061  1.0000
  S   S76       1.0  0.22310  0.73685  0.61091  1.0000
  C   C359      1.0  0.14525  0.76328  0.82771  1.0000
  H   H660      1.0  0.09522  0.70158  0.58022  1.0000
  S   S77       1.0  0.22055  0.75547  0.54734  1.0000
  H   H661      1.0  0.01688  0.87829  0.54362  1.0000
  Fe  Fe35      1.0  0.20155  0.76059  0.58649  1.0000
  S   S78       1.0  0.16556  0.75963  0.58165  1.0000
  N   N20       1.0  0.17482  0.77479  0.97213  1.0000
  S   S79       1.0  0.21791  0.78979  0.60024  1.0000
  C   C360      1.0  0.11675  0.73225  0.51391  1.0000
  Fe  Fe36      1.0  0.07516  0.73828  0.89772  1.0000
  S   S80       1.0  0.08316  0.70311  0.88833  1.0000
  H   H662      1.0  0.15576  0.78914  0.52872  1.0000
  Fe  Fe37      1.0  0.09476  0.73495  0.95544  1.0000
  S   S81       1.0  0.10439  0.69962  0.95058  1.0000
  S   S82       1.0  0.05544  0.66687  0.94232  1.0000
  Fe  Fe38      1.0  0.11531  0.70815  0.90810  1.0000
  S   S83       1.0  0.14605  0.69247  0.88931  1.0000
  Fe  Fe39      1.0  0.07126  0.69760  0.93159  1.0000
  C   C361      1.0  0.13065  0.87841  0.51589  1.0000
  S   S84       1.0  0.10824  0.74354  0.91436  1.0000
  S   S85       1.0  0.06069  0.73270  0.93966  1.0000
  H   H663      1.0  0.16816  0.82788  0.91755  1.0000
  H   H664      1.0  0.12594  0.72217  0.62139  1.0000
  H   H665      1.0  0.00318  0.84959  0.57204  1.0000
  S   S86       1.0  0.21198  0.78727  0.85632  1.0000
  S   S87       1.0  0.23763  0.72997  0.87538  1.0000
  Fe  Fe40      1.0  0.22901  0.79787  0.81818  1.0000
  S   S88       1.0  0.21151  0.80313  0.77669  1.0000
  Fe  Fe41      1.0  0.23159  0.80986  0.88062  1.0000
  S   S89       1.0  0.21878  0.82714  0.91950  1.0000
  H   H666      1.0  0.13478  0.77724  0.88101  1.0000
  H   H667      1.0  0.15347  0.70732  0.51146  1.0000
  H   H668      1.0  0.11279  0.72197  0.78122  1.0000
  C   C362      1.0  0.05975  0.73909  0.77658  1.0000
  H   H669      1.0  0.11549  0.68269  0.54370  1.0000
  S   S90       1.0  0.05425  0.78976  0.71236  1.0000
  H   H670      1.0  0.07396  0.81709  0.58210  1.0000
  C   C363      1.0  0.17080  0.70434  0.88594  1.0000
  C   C364      1.0  0.18921  0.69066  0.87961  1.0000
  C   C365      1.0  0.20940  0.69886  0.87659  1.0000
  C   C366      1.0  0.21150  0.72097  0.87925  1.0000
  C   C367      1.0  0.19308  0.73492  0.88549  1.0000
  C   C368      1.0  0.17271  0.72658  0.88896  1.0000
  H   H671      1.0  0.18787  0.67350  0.87718  1.0000
  H   H672      1.0  0.22345  0.68798  0.87180  1.0000
  H   H673      1.0  0.19459  0.75201  0.88799  1.0000
  H   H674      1.0  0.15854  0.73725  0.89385  1.0000
  H   H675      1.0  0.02829  0.97912  0.93755  1.0000
  C   C369      1.0  0.22245  0.78872  0.69487  1.0000
  C   C370      1.0  0.21290  0.79654  0.71991  1.0000
  C   C371      1.0  0.22317  0.79203  0.74560  1.0000
  H   H676      1.0  0.02127  0.77011  0.74714  1.0000
  H   H677      1.0  0.02213  0.78269  0.80882  1.0000
  H   H678      1.0  0.21457  0.79257  0.67522  1.0000
  H   H679      1.0  0.19761  0.80631  0.71936  1.0000
  H   H680      1.0  0.11517  0.76080  0.78464  1.0000
  Fe  Fe42      1.0  0.24114  0.76569  0.62209  1.0000
  H   H681      1.0  0.19064  0.67764  0.56194  1.0000
  H   H682      1.0  0.05780  0.85567  0.63249  1.0000
  C   C372      1.0  0.22585  0.82355  0.97590  1.0000
  H   H683      1.0  0.18669  0.68493  0.52602  1.0000
  H   H684      1.0  0.18509  0.73094  0.98925  1.0000
  H   H685      1.0  0.02100  0.81512  0.74721  1.0000
  H   H686      1.0  0.02368  0.83891  0.70305  1.0000
  H   H687      1.0  0.20871  0.82809  0.97808  1.0000
  C   C373      1.0  0.02548  0.68366  0.86592  1.0000
  N   N21       1.0  0.00322  0.80541  0.78275  1.0000
  C   C374      1.0  0.05666  0.72497  0.79843  1.0000
  C   C375      1.0  0.05780  0.73207  0.82607  1.0000
  C   C376      1.0  0.06187  0.75340  0.83199  1.0000
  H   H688      1.0  0.05316  0.70854  0.79394  1.0000
  H   H689      1.0  0.05498  0.72118  0.84275  1.0000
  S   S91       1.0  0.10641  0.75323  0.99255  1.0000
  C   C377      1.0  0.05019  0.77546  0.54210  1.0000
  C   C378      1.0  0.05031  0.76714  0.56909  1.0000
  H   H690      1.0  0.04869  0.79272  0.53902  1.0000
  H   H691      1.0  0.04886  0.77797  0.58670  1.0000
  C   C379      1.0  0.12457  0.79048  0.65181  1.0000
  C   C380      1.0  0.11487  0.78112  0.62902  1.0000
  C   C381      1.0  0.12764  0.77122  0.60805  1.0000
  C   C382      1.0  0.15025  0.77000  0.61000  1.0000
  C   C383      1.0  0.16010  0.77853  0.63343  1.0000
  C   C384      1.0  0.14722  0.78915  0.65415  1.0000
  H   H692      1.0  0.09743  0.78209  0.62705  1.0000
  H   H693      1.0  0.11978  0.76524  0.58992  1.0000
  H   H694      1.0  0.17757  0.77755  0.63519  1.0000
  H   H695      1.0  0.15475  0.79619  0.67199  1.0000
  H   H696      1.0  0.16567  0.84444  0.64625  1.0000
  H   H697      1.0  0.11005  0.77329  0.82619  1.0000
  C   C385      1.0  0.01526  0.97599  0.92245  1.0000
  H   H698      1.0  0.03958  0.84354  0.65538  1.0000
  H   H699      1.0  0.10163  0.75275  0.73732  1.0000
  H   H700      1.0  0.02254  0.96600  0.90514  1.0000
  H   H701      1.0  0.00356  0.73767  0.73617  1.0000
  C   C386      1.0  0.05193  0.76152  0.51906  1.0000
  H   H702      1.0  0.00759  0.69920  0.54546  1.0000
  C   C387      1.0  0.18341  0.69029  0.54774  1.0000
  H   H703      1.0  0.09508  0.69922  0.52649  1.0000
  C   C388      1.0  0.15536  0.79920  0.93465  1.0000
  H   H704      1.0  0.15582  0.75568  0.84424  1.0000
  C   C389      1.0  0.14842  0.71130  0.53315  1.0000
  H   H705      1.0  0.12683  0.79910  0.85745  1.0000
  C   C390      1.0  0.05364  0.73921  0.52311  1.0000
  H   H706      1.0  0.15780  0.86088  0.55609  1.0000
  H   H707      1.0  0.24580  0.81457  0.65112  1.0000
  C   C391      1.0  0.12791  0.81633  0.56053  1.0000
  H   H708      1.0  0.21954  0.77340  0.95351  1.0000
  H   H709      1.0  0.03862  0.87263  0.65269  1.0000
  H   H710      1.0  0.04122  0.82454  0.80462  1.0000
  C   C392      1.0  0.23514  0.82225  0.94939  1.0000
  C   C393      1.0  0.00614  0.76779  0.75842  1.0000
  C   C394      1.0  0.11738  0.72372  0.56329  1.0000
  H   H711      1.0  0.03991  0.67829  0.85328  1.0000
  H   H712      1.0  0.19028  0.72849  0.50894  1.0000
  H   H713      1.0  0.06744  0.77102  0.76578  1.0000
  C   C395      1.0  0.13256  0.76091  0.77944  1.0000
  H   H714      1.0  0.12285  0.81519  0.53856  1.0000
  H   H715      1.0  0.19403  0.84572  0.63864  1.0000
  H   H716      1.0  0.18253  0.82010  0.63791  1.0000
  H   H717      1.0  0.14907  0.71631  0.95102  1.0000
  H   H718      1.0  0.01037  0.75925  0.77808  1.0000
  Fe  Fe43      1.0  0.02809  0.79060  0.67983  1.0000
  H   H719      1.0  0.18477  0.80518  0.95690  1.0000
  H   H720      1.0  0.18781  0.78382  0.93272  1.0000
  C   C396      1.0  0.21002  0.73776  0.79866  1.0000
  H   H721      1.0  0.13546  0.77835  0.77845  1.0000
  H   H722      1.0  0.11677  0.88530  0.52852  1.0000
  H   H723      1.0  0.17394  0.76593  0.78538  1.0000
  H   H724      1.0  0.17874  0.82961  0.54379  1.0000
  H   H725      1.0  0.17209  0.85830  0.59849  1.0000
  H   H726      1.0  0.02809  0.84095  0.60614  1.0000
  H   H727      1.0  0.12107  0.78703  0.50112  1.0000
  H   H728      1.0  0.02763  0.86950  0.60259  1.0000
  C   C397      1.0  0.04111  0.85717  0.64096  1.0000
  H   H729      1.0  0.18816  0.83362  0.59052  1.0000
  H   H730      1.0  0.11442  0.77737  0.73074  1.0000
  H   H731      1.0  0.13963  0.83946  0.60608  1.0000
  H   H732      1.0  0.15404  0.81370  0.60304  1.0000
  H   H733      1.0  0.22246  0.73205  0.81424  1.0000
  S   S92       1.0  0.05732  0.72979  0.74225  1.0000
  Fe  Fe44      1.0  0.24110  0.76395  0.86133  1.0000
  H   H734      1.0  0.02591  0.84439  0.78373  1.0000
  S   S93       1.0  0.06197  0.76294  0.86640  1.0000
  C   C398      1.0  0.11296  0.69515  0.52746  1.0000
  C   C399      1.0  0.16917  0.73422  0.97880  1.0000
  C   C400      1.0  0.00279  0.86525  0.72009  1.0000
  C   C401      1.0  0.12279  0.78312  0.86503  1.0000
  H   H735      1.0  0.14309  0.75377  0.51234  1.0000
  H   H736      1.0  0.00581  0.94928  0.94584  1.0000
  H   H737      1.0  0.19577  0.79150  0.51970  1.0000
  C   C402      1.0  0.11130  0.70733  0.58543  1.0000
  C   C403      1.0  0.10975  0.71783  0.61424  1.0000
  H   H738      1.0  0.01001  0.81435  0.62084  1.0000
  H   H739      1.0  0.13046  0.73276  0.57239  1.0000
  H   H740      1.0  0.13710  0.67579  0.50240  1.0000
  H   H741      1.0  0.15615  0.72633  0.53844  1.0000
  C   C404      1.0  0.00717  0.84488  0.70759  1.0000
  H   H742      1.0  0.03072  0.69450  0.88267  1.0000
  H   H743      1.0  0.23516  0.85019  0.72911  1.0000
  H   H744      1.0  0.12330  0.69316  0.58677  1.0000
  H   H745      1.0  0.09846  0.73266  0.61396  1.0000
  H   H746      1.0  0.10360  0.70644  0.62932  1.0000
  H   H747      1.0  0.01010  0.66236  0.56647  1.0000
  N   N22       1.0  0.12412  0.71516  0.53482  1.0000
  C   C405      1.0  0.05665  0.83272  0.76705  1.0000
  H   H748      1.0  0.16346  0.70022  0.97719  1.0000
  C   C406      1.0  0.12029  0.68333  0.50015  1.0000
  C   C407      1.0  0.12570  0.75466  0.51802  1.0000
  C   C408      1.0  0.10739  0.82444  0.57709  1.0000
  N   N23       1.0  0.14744  0.82919  0.56382  1.0000
  H   H749      1.0  0.11706  0.69941  0.83776  1.0000
  H   H750      1.0  0.17785  0.70933  0.94773  1.0000
  C   C409      1.0  0.15282  0.83022  0.59440  1.0000
  C   C410      1.0  0.17397  0.84068  0.60237  1.0000
  H   H751      1.0  0.15192  0.67829  0.54998  1.0000
  H   H752      1.0  0.06793  0.81785  0.76658  1.0000
  C   C411      1.0  0.17929  0.83754  0.63318  1.0000
  H   H753      1.0  0.13234  0.79936  0.56679  1.0000
  Fe  Fe45      1.0  0.24392  0.73439  0.57291  1.0000
  H   H754      1.0  0.17570  0.80593  0.56310  1.0000
  H   H755      1.0  0.08372  0.81412  0.54699  1.0000
  H   H756      1.0  0.00827  0.78531  0.86649  1.0000
  H   H757      1.0  0.14412  0.81980  0.90046  1.0000
  H   H758      1.0  0.00399  0.81590  0.58404  1.0000
  C   C412      1.0  0.00891  0.79584  0.81079  1.0000
  N   N24       1.0  0.14688  0.74984  0.80145  1.0000
  Fe  Fe46      1.0  0.05546  0.75383  0.70735  1.0000
  H   H759      1.0  0.15025  0.81311  0.50849  1.0000
  H   H760      1.0  0.16983  0.80472  0.89445  1.0000
  H   H761      1.0  0.01413  0.69412  0.94508  1.0000
  C   C413      1.0  0.24241  0.77635  0.69539  1.0000
  C   C414      1.0  0.19616  0.77190  0.98747  1.0000
  Fe  Fe47      1.0  0.23868  0.78281  0.56250  1.0000
  S   S94       1.0  0.05138  0.73380  0.60655  1.0000
  H   H762      1.0  0.10262  0.84169  0.57297  1.0000
  H   H763      1.0  0.21002  0.72560  0.78165  1.0000
  C   C415      1.0  0.14154  0.72696  0.80697  1.0000
  C   C416      1.0  0.17682  0.79089  0.94922  1.0000
  H   H764      1.0  0.21452  0.75331  0.79016  1.0000
  H   H765      1.0  0.14692  0.72206  0.82831  1.0000
  C   C417      1.0  0.16461  0.71382  0.96265  1.0000
  H   H766      1.0  0.09871  0.73468  0.51363  1.0000
  H   H767      1.0  0.12409  0.76058  0.53971  1.0000
  C   C418      1.0  0.02463  0.85645  0.61727  1.0000
  C   C419      1.0  0.05190  0.74483  0.57313  1.0000
  C   C420      1.0  0.15970  0.81377  0.91029  1.0000
  H   H768      1.0  0.11019  0.82231  0.59971  1.0000
  S   S95       1.0  0.02761  0.75462  0.67739  1.0000
  H   H769      1.0  0.15064  0.75724  0.74050  1.0000
  C   C421      1.0  0.17005  0.74942  0.79156  1.0000
  C   C422      1.0  0.06441  0.76026  0.78250  1.0000
  H   H770      1.0  0.17236  0.73914  0.77263  1.0000
  H   H771      1.0  0.12038  0.75397  0.70904  1.0000
  H   H772      1.0  0.18924  0.75234  0.82976  1.0000
  Fe  Fe48      1.0  0.05213  0.75614  0.64373  1.0000
  S   S96       1.0  0.05066  0.79237  0.64367  1.0000
  C   C423      1.0  0.05360  0.73089  0.55009  1.0000
  C   C424      1.0  0.12259  0.76689  0.84110  1.0000
  H   H773      1.0  0.10617  0.73400  0.81408  1.0000
  C   C425      1.0  0.16216  0.80456  0.52259  1.0000
  C   C426      1.0  0.16678  0.81787  0.54908  1.0000
  C   C427      1.0  0.11681  0.75946  0.73063  1.0000
  C   C428      1.0  0.18781  0.74072  0.81244  1.0000
  C   C429      1.0  0.02407  0.81064  0.76928  1.0000
  H   H774      1.0  0.17955  0.74929  0.94124  1.0000
  H   H775      1.0  0.14660  0.78565  0.92653  1.0000
  H   H776      1.0  0.09663  0.69642  0.81160  1.0000
  H   H777      1.0  0.09211  0.79413  0.57276  1.0000
  H   H778      1.0  0.10651  0.78507  0.87472  1.0000
  C   C430      1.0  0.14303  0.85200  0.55365  1.0000
  H   H779      1.0  0.12441  0.68703  0.80464  1.0000
  C   C431      1.0  0.13565  0.75167  0.74960  1.0000
  C   C432      1.0  0.06520  0.76749  0.81016  1.0000
  C   C433      1.0  0.11375  0.69983  0.81509  1.0000
  H   H780      1.0  0.14111  0.78289  0.98241  1.0000
  H   H781      1.0  0.13714  0.73377  0.74948  1.0000
  H   H782      1.0  0.00028  0.85011  0.64770  1.0000
  C   C434      1.0  0.18279  0.79904  0.50611  1.0000
  H   H783      1.0  0.14452  0.80877  0.94921  1.0000
  H   H784      1.0  0.14484  0.88786  0.51977  1.0000
  C   C435      1.0  0.15903  0.69394  0.55283  1.0000
  H   H785      1.0  0.15089  0.71535  0.79294  1.0000
  H   H786      1.0  0.06847  0.78398  0.81467  1.0000
  H   H787      1.0  0.13061  0.86106  0.56676  1.0000
  H   H788      1.0  0.05466  0.71362  0.55312  1.0000
  C   C436      1.0  0.01576  0.66431  0.87882  1.0000
  C   C437      1.0  0.02865  0.66185  0.95126  1.0000
  H   H789      1.0  0.05455  0.72836  0.50546  1.0000
  C   C438      1.0  0.03616  0.82888  0.78314  1.0000
  C   C439      1.0  0.11746  0.72200  0.80349  1.0000
  C   C440      1.0  0.01129  0.67778  0.95063  1.0000
  C   C441      1.0  0.08818  0.81165  0.56917  1.0000
  H   H790      1.0  0.18413  0.72496  0.82112  1.0000
  H   H791      1.0  0.00831  0.99174  0.91422  1.0000
  H   H792      1.0  0.15223  0.75586  0.95026  1.0000
  H   H793      1.0  0.11786  0.75155  0.84990  1.0000
  H   H794      1.0  0.15130  0.77939  0.82386  1.0000
  H   H795      1.0  0.19140  0.70536  0.55195  1.0000
  H   H796      1.0  0.10285  0.73558  0.56189  1.0000
  H   H797      1.0  0.06506  0.84578  0.77727  1.0000
  C   C442      1.0  0.16890  0.75387  0.95917  1.0000
  H   H798      1.0  0.01600  0.87493  0.72531  1.0000
  C   C443      1.0  0.13617  0.85465  0.52287  1.0000
  H   H799      1.0  0.12165  0.84603  0.51793  1.0000
  H   H800      1.0  0.05251  0.83769  0.74544  1.0000
  H   H801      1.0  0.22235  0.85204  0.77712  1.0000
  C   C444      1.0  0.24287  0.77931  0.74594  1.0000
  C   C445      1.0  0.21571  0.76215  0.97022  1.0000
  H   H802      1.0  0.03587  0.79623  0.76892  1.0000
  H   H803      1.0  0.15695  0.69937  0.57471  1.0000
  H   H804      1.0  0.23393  0.84804  0.50496  1.0000
  H   H805      1.0  0.01334  0.69294  0.85267  1.0000
  C   C446      1.0  0.23589  0.75831  0.98846  1.0000
  C   C447      1.0  0.99917  0.77470  0.85284  1.0000
  H   H806      1.0  0.01018  0.76046  0.84663  1.0000
  H   H807      1.0  0.00359  0.77892  0.60157  1.0000
  H   H808      1.0  0.01572  0.80800  0.82463  1.0000
  C   C448      1.0  0.00105  0.85964  0.62831  1.0000
  C   C449      1.0  0.23607  0.81346  0.50076  1.0000
  H   H809      1.0  0.14973  0.84863  0.50920  1.0000
  H   H810      1.0  0.07354  0.67444  0.99742  1.0000
  H   H811      1.0  0.24642  0.87294  0.84533  1.0000
  H   H812      1.0  0.23737  0.87498  0.76976  1.0000
  S   S97       1.0  0.24477  0.82389  0.84196  1.0000
  C   C450      1.0  0.23866  0.85719  0.77234  1.0000
  H   H813      1.0  0.00208  0.67063  0.89204  1.0000
  H   H814      1.0  0.15647  0.73696  0.99483  1.0000
  H   H815      1.0  0.09647  0.77417  0.50570  1.0000
  H   H816      1.0  0.16247  0.81736  0.99120  1.0000
  H   H817      1.0  0.20084  0.78774  0.99534  1.0000
  C   C451      1.0  0.15739  0.78246  0.99244  1.0000
  S   S98       1.0  0.24734  0.80973  0.53438  1.0000
  C   C452      1.0  0.24713  0.84587  0.74584  1.0000
  C   C453      1.0  0.99973  0.88512  0.54299  1.0000
  C   C454      1.0  0.99779  0.96428  0.93688  1.0000
  H   H818      1.0  0.99875  0.87681  0.63531  1.0000
  H   H819      1.0  0.99938  0.90252  0.53771  1.0000
  H   H820      1.0  0.99799  0.89135  0.58701  1.0000
  C   C455      1.0  0.11367  0.77147  0.49935  1.0000
  H   H821      1.0  0.22576  0.70762  0.49875  1.0000
  H   H822      1.0  0.34648  0.17908  0.49545  1.0000
  C   C456      1.0  0.34718  0.05365  0.27747  1.0000
  H   H823      1.0  0.27704  0.18402  0.31809  1.0000
  C   C457      1.0  0.36198  0.11785  0.31948  1.0000
  S   S99       1.0  0.39115  0.07804  0.43675  1.0000
  H   H824      1.0  0.46002  0.12537  0.15239  1.0000
  H   H825      1.0  0.37905  0.03773  0.03765  1.0000
  H   H826      1.0  0.36136  0.25270  0.34497  1.0000
  H   H827      1.0  0.27583  0.21508  0.26877  1.0000
  Fe  Fe49      1.0  0.44390  0.11487  0.23004  1.0000
  H   H828      1.0  0.33645  0.06824  0.27909  1.0000
  C   C458      1.0  0.25052  0.25920  0.30239  1.0000
  H   H829      1.0  0.30308  0.27795  0.23172  1.0000
  H   H830      1.0  0.28750  0.23321  0.31120  1.0000
  Fe  Fe50      1.0  0.29181  0.22092  0.39966  1.0000
  S   S100      1.0  0.29941  0.25548  0.40154  1.0000
  S   S101      1.0  0.31861  0.19571  0.38823  1.0000
  Fe  Fe51      1.0  0.27499  0.25906  0.43571  1.0000
  S   S102      1.0  0.28211  0.27988  0.47261  1.0000
  Fe  Fe52      1.0  0.27125  0.26162  0.37253  1.0000
  C   C459      1.0  0.26750  0.28838  0.28079  1.0000
  S   S103      1.0  0.26957  0.22377  0.43639  1.0000
  S   S104      1.0  0.26527  0.22678  0.36814  1.0000
  H   H831      1.0  0.40539  0.00244  0.35426  1.0000
  S   S105      1.0  0.27562  0.28840  0.17319  1.0000
  H   H832      1.0  0.46346  0.09817  0.31052  1.0000
  H   H833      1.0  0.36470  0.17736  0.00274  1.0000
  H   H834      1.0  0.41281  0.03633  0.06539  1.0000
  H   H835      1.0  0.31106  0.15382  0.47284  1.0000
  H   H836      1.0  0.43321  0.01237  0.38234  1.0000
  C   C460      1.0  0.32620  0.25209  0.24650  1.0000
  H   H837      1.0  0.30411  0.21002  0.32148  1.0000
  C   C461      1.0  0.48312  0.15585  0.29374  1.0000
  C   C462      1.0  0.25932  0.16001  0.41824  1.0000
  C   C463      1.0  0.35868  0.21509  0.28177  1.0000
  H   H838      1.0  0.45449  0.11764  0.05919  1.0000
  H   H839      1.0  0.25738  0.24491  0.49045  1.0000
  H   H840      1.0  0.41632  0.01152  0.21544  1.0000
  H   H841      1.0  0.43358  0.01736  0.09555  1.0000
  C   C464      1.0  0.30976  0.19972  0.06946  1.0000
  C   C465      1.0  0.43584  0.30170  0.48238  1.0000
  H   H842      1.0  0.37836  0.09445  0.38115  1.0000
  H   H843      1.0  0.33143  0.21771  0.45179  1.0000
  H   H844      1.0  0.27528  0.17023  0.36739  1.0000
  C   C466      1.0  0.26347  0.27652  0.30450  1.0000
  H   H845      1.0  0.49283  0.07786  0.15345  1.0000
  C   C467      1.0  0.26873  0.26929  0.06315  1.0000
  H   H846      1.0  0.32355  0.13120  0.36484  1.0000
  H   H847      1.0  0.47855  0.14642  0.06098  1.0000
  H   H848      1.0  0.44076  0.29855  0.46048  1.0000
  S   S106      1.0  0.41061  0.10617  0.04586  1.0000
  H   H849      1.0  0.26727  0.14548  0.42872  1.0000
  C   C468      1.0  0.47675  0.15594  0.21277  1.0000
  H   H850      1.0  0.43198  0.15193  0.16984  1.0000
  C   C469      1.0  0.45977  0.08951  0.32897  1.0000
  H   H851      1.0  0.29198  0.17872  0.04475  1.0000
  H   H852      1.0  0.30616  0.25463  0.20898  1.0000
  C   C470      1.0  0.42618  0.00291  0.10336  1.0000
  H   H853      1.0  0.34813  0.24568  0.37641  1.0000
  S   S107      1.0  0.25033  0.32256  0.12939  1.0000
  H   H854      1.0  0.33815  0.24021  0.23657  1.0000
  H   H855      1.0  0.38240  0.11581  0.28193  1.0000
  H   H856      1.0  0.46806  0.19021  0.21098  1.0000
  C   C471      1.0  0.35516  0.01564  0.28845  1.0000
  C   C472      1.0  0.38033  0.03474  0.26098  1.0000
  C   C473      1.0  0.36666  0.05390  0.26300  1.0000
  H   H857      1.0  0.39531  0.03461  0.24984  1.0000
  C   C474      1.0  0.33892  0.14181  0.44916  1.0000
  C   C475      1.0  0.35140  0.14481  0.42571  1.0000
  C   C476      1.0  0.34524  0.16169  0.40733  1.0000
  C   C477      1.0  0.32698  0.17594  0.41279  1.0000
  C   C478      1.0  0.31504  0.17345  0.43684  1.0000
  C   C479      1.0  0.32072  0.15614  0.45467  1.0000
  H   H858      1.0  0.36556  0.13389  0.42165  1.0000
  H   H859      1.0  0.35461  0.16373  0.38886  1.0000
  H   H860      1.0  0.30122  0.18460  0.44141  1.0000
  H   H861      1.0  0.39023  0.19968  0.27067  1.0000
  S   S108      1.0  0.37303  0.07866  0.24832  1.0000
  C   C480      1.0  0.45090  0.06724  0.37730  1.0000
  H   H862      1.0  0.24910  0.21805  0.00561  1.0000
  C   C481      1.0  0.27016  0.15357  0.37005  1.0000
  H   H863      1.0  0.42591  0.14358  0.37113  1.0000
  C   C482      1.0  0.45673  0.05581  0.35265  1.0000
  C   C483      1.0  0.48051  0.17739  0.20670  1.0000
  H   H864      1.0  0.45240  0.01168  0.24855  1.0000
  Fe  Fe53      1.0  0.40184  0.05617  0.47214  1.0000
  H   H865      1.0  0.39562  0.06436  0.16438  1.0000
  H   H866      1.0  0.40899  0.16839  0.36823  1.0000
  C   C484      1.0  0.41084  0.00181  0.48874  1.0000
  C   C485      1.0  0.47475  0.30596  0.49646  1.0000
  H   H867      1.0  0.37972  0.14974  0.34725  1.0000
  C   C486      1.0  0.42495  0.09006  0.12545  1.0000
  C   C487      1.0  0.49530  0.24325  0.25737  1.0000
  C   C488      1.0  0.48473  0.00511  0.23210  1.0000
  H   H868      1.0  0.29716  0.14378  0.39884  1.0000
  H   H869      1.0  0.45488  0.15235  0.09897  1.0000
  H   H870      1.0  0.47796  0.31570  0.06470  1.0000
  H   H871      1.0  0.38595  0.06431  0.04783  1.0000
  H   H872      1.0  0.34950  0.10741  0.31153  1.0000
  H   H873      1.0  0.35333  0.06985  0.35710  1.0000
  C   C489      1.0  0.40164  0.99756  0.00398  1.0000
  C   C490      1.0  0.38477  0.08408  0.32407  1.0000
  H   H874      1.0  0.40726  0.11844  0.32568  1.0000
  H   H875      1.0  0.48553  0.14690  0.27379  1.0000
  H   H876      1.0  0.49475  0.11748  0.15650  1.0000
  C   C491      1.0  0.35927  0.16497  0.01690  1.0000
  C   C492      1.0  0.37876  0.15701  0.03475  1.0000
  H   H877      1.0  0.31455  0.19821  0.48921  1.0000
  C   C493      1.0  0.39732  0.11712  0.34467  1.0000
  C   C494      1.0  0.33450  0.21013  0.28246  1.0000
  C   C495      1.0  0.33670  0.08486  0.39192  1.0000
  H   H878      1.0  0.40436  0.11399  0.10357  1.0000
  C   C496      1.0  0.45469  0.10082  0.35374  1.0000
  C   C497      1.0  0.29068  0.13893  0.37845  1.0000
  C   C498      1.0  0.25194  0.17203  0.46812  1.0000
  H   H879      1.0  0.42019  0.09638  0.14547  1.0000
  C   C499      1.0  0.48948  0.02818  0.22521  1.0000
  C   C500      1.0  0.42269  0.00089  0.01273  1.0000
  S   S109      1.0  0.27498  0.28367  0.33636  1.0000
  H   H880      1.0  0.32277  0.07478  0.38997  1.0000
  S   S110      1.0  0.44124  0.10502  0.40761  1.0000
  C   C501      1.0  0.39717  0.03932  0.07644  1.0000
  C   C502      1.0  0.38186  0.03653  0.14536  1.0000
  C   C503      1.0  0.38475  0.05176  0.16997  1.0000
  C   C504      1.0  0.32653  0.24498  0.30901  1.0000
  H   H881      1.0  0.34679  0.18611  0.04954  1.0000
  H   H882      1.0  0.45434  0.11822  0.35409  1.0000
  H   H883      1.0  0.44121  0.06781  0.05241  1.0000
  H   H884      1.0  0.31756  0.32735  0.18544  1.0000
  H   H885      1.0  0.41463  0.03819  0.13056  1.0000
  H   H886      1.0  0.38475  0.17047  0.04710  1.0000
  C   C505      1.0  0.28055  0.26121  0.04004  1.0000
  C   C506      1.0  0.36650  0.10124  0.36542  1.0000
  C   C507      1.0  0.33618  0.22124  0.01532  1.0000
  C   C508      1.0  0.44005  0.02002  0.42482  1.0000
  Fe  Fe54      1.0  0.45265  0.07168  0.25903  1.0000
  Fe  Fe55      1.0  0.40770  0.08389  0.23764  1.0000
  H   H887      1.0  0.33068  0.10107  0.39988  1.0000
  C   C509      1.0  0.31486  0.26522  0.22313  1.0000
  H   H888      1.0  0.39893  0.05176  0.09266  1.0000
  Fe  Fe56      1.0  0.26156  0.28729  0.12993  1.0000
  H   H889      1.0  0.29774  0.25696  0.04215  1.0000
  H   H890      1.0  0.45385  0.01084  0.21165  1.0000
  H   H891      1.0  0.37073  0.02447  0.15185  1.0000
  H   H892      1.0  0.42279  0.13935  0.13865  1.0000
  C   C510      1.0  0.32603  0.31973  0.26308  1.0000
  H   H893      1.0  0.25241  0.32768  0.36900  1.0000
  C   C511      1.0  0.35449  0.13757  0.27400  1.0000
  H   H894      1.0  0.36447  0.05238  0.06539  1.0000
  H   H895      1.0  0.25493  0.15539  0.47628  1.0000
  H   H896      1.0  0.33474  0.26349  0.25952  1.0000
  H   H897      1.0  0.43144  0.16647  0.13765  1.0000
  H   H898      1.0  0.34133  0.25147  0.30087  1.0000
  H   H899      1.0  0.34463  0.12472  0.26591  1.0000
  Fe  Fe57      1.0  0.37821  0.10141  0.46958  1.0000
  H   H900      1.0  0.29583  0.21544  0.10641  1.0000
  H   H901      1.0  0.26733  0.17998  0.46859  1.0000
  H   H902      1.0  0.31109  0.23944  0.45996  1.0000
  H   H903      1.0  0.30921  0.15224  0.01491  1.0000
  H   H904      1.0  0.46864  0.15248  0.15091  1.0000
  H   H905      1.0  0.31736  0.18591  0.08154  1.0000
  H   H906      1.0  0.29586  0.25202  0.26852  1.0000
  N   N25       1.0  0.40336  0.00899  0.11292  1.0000
  S   S111      1.0  0.43488  0.06840  0.47706  1.0000
  H   H907      1.0  0.33686  0.26827  0.35629  1.0000
  H   H908      1.0  0.49414  0.14769  0.30921  1.0000
  C   C512      1.0  0.49357  0.32322  0.06277  1.0000
  H   H909      1.0  0.47639  0.09712  0.06436  1.0000
  C   C513      1.0  0.39018  0.01797  0.08855  1.0000
  C   C514      1.0  0.40400  0.02541  0.13608  1.0000
  H   H910      1.0  0.36131  0.22907  0.26859  1.0000
  H   H911      1.0  0.30323  0.22861  0.24824  1.0000
  C   C515      1.0  0.34009  0.17425  0.03524  1.0000
  H   H912      1.0  0.45754  0.03838  0.35232  1.0000
  C   C516      1.0  0.41586  0.09999  0.10155  1.0000
  S   S112      1.0  0.41905  0.10224  0.20125  1.0000
  S   S113      1.0  0.40929  0.11693  0.47473  1.0000
  H   H913      1.0  0.41870  0.15447  0.33719  1.0000
  N   N26       1.0  0.37766  0.10510  0.33845  1.0000
  S   S114      1.0  0.42916  0.10027  0.26737  1.0000
  C   C517      1.0  0.45779  0.14109  0.14158  1.0000
  C   C518      1.0  0.31178  0.16664  0.00208  1.0000
  S   S115      1.0  0.45110  0.05890  0.15332  1.0000
  H   H914      1.0  0.26555  0.14786  0.34910  1.0000
  H   H915      1.0  0.45677  0.13641  0.30371  1.0000
  H   H916      1.0  0.31457  0.25935  0.31108  1.0000
  H   H917      1.0  0.33380  0.19689  0.29780  1.0000
  S   S116      1.0  0.45181  0.14998  0.22755  1.0000
  H   H918      1.0  0.38767  0.13800  0.38009  1.0000
  S   S117      1.0  0.46563  0.05289  0.29651  1.0000
  C   C519      1.0  0.41287  0.15225  0.35861  1.0000
  C   C520      1.0  0.30264  0.19186  0.04037  1.0000
  H   H919      1.0  0.36829  0.19139  0.24949  1.0000
  H   H920      1.0  0.40821  0.10793  0.35957  1.0000
  H   H921      1.0  0.34831  0.07714  0.40723  1.0000
  H   H922      1.0  0.48650  0.25807  0.26603  1.0000
  H   H923      1.0  0.33500  0.09286  0.34870  1.0000
  C   C521      1.0  0.38055  0.04890  0.05554  1.0000
  C   C522      1.0  0.49302  0.13960  0.20724  1.0000
  H   H924      1.0  0.48391  0.03250  0.20384  1.0000
  H   H925      1.0  0.48129  0.03971  0.24021  1.0000
  H   H926      1.0  0.46548  0.10023  0.01529  1.0000
  C   C523      1.0  0.37206  0.12795  0.29375  1.0000
  H   H927      1.0  0.44015  0.99557  0.32799  1.0000
  H   H928      1.0  0.36218  0.14493  0.25605  1.0000
  H   H929      1.0  0.41167  0.01787  0.15490  1.0000
  C   C524      1.0  0.46174  0.13772  0.11011  1.0000
  H   H930      1.0  0.35275  0.13114  0.33100  1.0000
  H   H931      1.0  0.37398  0.04628  0.12836  1.0000
  H   H932      1.0  0.26208  0.29198  0.23673  1.0000
  H   H933      1.0  0.47972  0.18941  0.30725  1.0000
  H   H934      1.0  0.37054  0.07580  0.31674  1.0000
  H   H935      1.0  0.45555  0.02683  0.41988  1.0000
  C   C525      1.0  0.34537  0.25184  0.35499  1.0000
  C   C526      1.0  0.30972  0.24015  0.26327  1.0000
  H   H936      1.0  0.30648  0.32602  0.12539  1.0000
  H   H937      1.0  0.45123  0.12491  0.10373  1.0000
  C   C527      1.0  0.25894  0.28271  0.25494  1.0000
  H   H938      1.0  0.49062  0.12312  0.21212  1.0000
  N   N27       1.0  0.31796  0.22870  0.28926  1.0000
  H   H939      1.0  0.37270  0.02030  0.09396  1.0000
  S   S118      1.0  0.28190  0.27144  0.09548  1.0000
  C   C528      1.0  0.42154  0.09203  0.07510  1.0000
  H   H940      1.0  0.34026  0.22030  0.33859  1.0000
  H   H941      1.0  0.28722  0.12176  0.37965  1.0000
  C   C529      1.0  0.34167  0.03480  0.29047  1.0000
  C   C530      1.0  0.26873  0.19425  0.30183  1.0000
  H   H942      1.0  0.36457  0.21880  0.30292  1.0000
  H   H943      1.0  0.31630  0.23577  0.35027  1.0000
  C   C531      1.0  0.32563  0.20222  0.00142  1.0000
  C   C532      1.0  0.37450  0.01558  0.27352  1.0000
  C   C533      1.0  0.37308  0.19570  0.27096  1.0000
  C   C534      1.0  0.39948  0.06779  0.34124  1.0000
  H   H944      1.0  0.44208  0.01201  0.44526  1.0000
  C   C535      1.0  0.45989  0.15370  0.30313  1.0000
  C   C536      1.0  0.40482  0.04686  0.32505  1.0000
  S   S119      1.0  0.43068  0.05499  0.23028  1.0000
  H   H945      1.0  0.39392  0.08706  0.30496  1.0000
  H   H946      1.0  0.33916  0.24461  0.45837  1.0000
  S   S120      1.0  0.34507  0.11991  0.47142  1.0000
  C   C537      1.0  0.43455  0.15028  0.14712  1.0000
  H   H947      1.0  0.39169  0.04271  0.18817  1.0000
  H   H948      1.0  0.41492  0.07467  0.34587  1.0000
  H   H949      1.0  0.39192  0.06362  0.36103  1.0000
  H   H950      1.0  0.38223  0.14105  0.30000  1.0000
  H   H951      1.0  0.38515  0.00094  0.27230  1.0000
  H   H952      1.0  0.41670  0.03626  0.33703  1.0000
  H   H953      1.0  0.38997  0.03832  0.32174  1.0000
  H   H954      1.0  0.41216  0.05014  0.30470  1.0000
  C   C538      1.0  0.49694  0.22553  0.27925  1.0000
  N   N28       1.0  0.32029  0.18412  0.02008  1.0000
  H   H955      1.0  0.47921  0.30282  0.47447  1.0000
  C   C539      1.0  0.43995  0.07206  0.12331  1.0000
  H   H956      1.0  0.47093  0.00033  0.10305  1.0000
  H   H957      1.0  0.32676  0.03502  0.30205  1.0000
  C   C540      1.0  0.29875  0.21979  0.30303  1.0000
  H   H958      1.0  0.33547  0.16089  0.04867  1.0000
  H   H959      1.0  0.49104  0.00173  0.25340  1.0000
  Fe  Fe58      1.0  0.40875  0.09019  0.00353  1.0000
  H   H960      1.0  0.34907  0.25138  0.00402  1.0000
  C   C541      1.0  0.29030  0.20942  0.08601  1.0000
  H   H961      1.0  0.33048  0.20273  0.26213  1.0000
  C   C542      1.0  0.46055  0.06699  0.32817  1.0000
  H   H962      1.0  0.44810  0.16199  0.28847  1.0000
  C   C543      1.0  0.34754  0.08647  0.36369  1.0000
  Fe  Fe59      1.0  0.42303  0.09205  0.44385  1.0000
  H   H963      1.0  0.29176  0.20513  0.03105  1.0000
  H   H964      1.0  0.39102  0.00631  0.07089  1.0000
  H   H965      1.0  0.36881  0.05987  0.17606  1.0000
  C   C544      1.0  0.44965  0.08980  0.37782  1.0000
  S   S121      1.0  0.39400  0.02139  0.47078  1.0000
  H   H966      1.0  0.47768  0.17759  0.10411  1.0000
  H   H967      1.0  0.34379  0.15020  0.28469  1.0000
  H   H968      1.0  0.37198  0.18158  0.28467  1.0000
  H   H969      1.0  0.32157  0.21205  0.06816  1.0000
  C   C545      1.0  0.43652  0.07397  0.07274  1.0000
  C   C546      1.0  0.32783  0.23258  0.46445  1.0000
  C   C547      1.0  0.46004  0.00238  0.23073  1.0000
  H   H970      1.0  0.49285  0.10750  0.01991  1.0000
  C   C548      1.0  0.30861  0.14028  0.35712  1.0000
  H   H971      1.0  0.27864  0.19713  0.08966  1.0000
  H   H972      1.0  0.44715  0.05874  0.39580  1.0000
  H   H973      1.0  0.28188  0.22326  0.07481  1.0000
  H   H974      1.0  0.45732  0.05013  0.09481  1.0000
  C   C549      1.0  0.44571  0.06404  0.09679  1.0000
  C   C550      1.0  0.33165  0.23667  0.33879  1.0000
  C   C551      1.0  0.39268  0.13976  0.35822  1.0000
  C   C552      1.0  0.43469  0.00375  0.40242  1.0000
  Fe  Fe60      1.0  0.44367  0.07404  0.19572  1.0000
  C   C553      1.0  0.28520  0.20526  0.28462  1.0000
  H   H975      1.0  0.45738  0.16070  0.32425  1.0000
  H   H976      1.0  0.29580  0.19256  0.27394  1.0000
  H   H977      1.0  0.32699  0.27319  0.21085  1.0000
  S   S122      1.0  0.46902  0.08709  0.22353  1.0000
  H   H978      1.0  0.35983  0.11683  0.37459  1.0000
  N   N29       1.0  0.25120  0.15404  0.38971  1.0000
  C   C554      1.0  0.49266  0.10950  0.11189  1.0000
  H   H979      1.0  0.27727  0.30198  0.28236  1.0000
  C   C555      1.0  0.49102  0.31379  0.01354  1.0000
  H   H980      1.0  0.30392  0.13319  0.33695  1.0000
  H   H981      1.0  0.32473  0.22979  0.02996  1.0000
  H   H982      1.0  0.31224  0.15727  0.35396  1.0000
  H   H983      1.0  0.47740  0.18496  0.27095  1.0000
  H   H984      1.0  0.38456  0.00045  0.19225  1.0000
  H   H985      1.0  0.31980  0.32146  0.09223  1.0000
  C   C556      1.0  0.47561  0.11237  0.02465  1.0000
  C   C557      1.0  0.48524  0.13081  0.06992  1.0000
  H   H986      1.0  0.33633  0.32041  0.24438  1.0000
  H   H987      1.0  0.41702  0.00063  0.30543  1.0000
  H   H988      1.0  0.42698  0.03335  0.42621  1.0000
  H   H989      1.0  0.44471  0.00498  0.14230  1.0000
  H   H990      1.0  0.48637  0.23800  0.23876  1.0000
  H   H991      1.0  0.25945  0.18385  0.28813  1.0000
  C   C558      1.0  0.27024  0.25883  0.01422  1.0000
  H   H992      1.0  0.27213  0.17144  0.41634  1.0000
  H   H993      1.0  0.24865  0.19883  0.03324  1.0000
  H   H994      1.0  0.47471  0.30846  0.01796  1.0000
  C   C559      1.0  0.48729  0.17992  0.28962  1.0000
  H   H995      1.0  0.33441  0.30879  0.27857  1.0000
  H   H996      1.0  0.47696  0.32246  0.11646  1.0000
  H   H997      1.0  0.47897  0.09896  0.11275  1.0000
  H   H998      1.0  0.27808  0.18199  0.99869  1.0000
  H   H999      1.0  0.48022  0.22213  0.28471  1.0000
  H   H1000     1.0  0.49147  0.26809  0.47397  1.0000
  H   H1001     1.0  0.37443  0.14409  0.04897  1.0000
  H   H1002     1.0  0.25709  0.20651  0.31170  1.0000
  H   H1003     1.0  0.25550  0.11984  0.39827  1.0000
  H   H1004     1.0  0.31066  0.31300  0.25676  1.0000
  C   C560      1.0  0.49464  0.17156  0.09957  1.0000
  H   H1005     1.0  0.42136  0.29288  0.48661  1.0000
  H   H1006     1.0  0.39986  0.00591  0.40380  1.0000
  Fe  Fe61      1.0  0.26180  0.32293  0.17369  1.0000
  N   N30       1.0  0.48480  0.13170  0.10129  1.0000
  C   C561      1.0  0.24803  0.26466  0.01143  1.0000
  C   C562      1.0  0.47202  0.11346  0.05598  1.0000
  H   H1007     1.0  0.47080  0.12823  0.01501  1.0000
  H   H1008     1.0  0.42995  0.01533  0.00677  1.0000
  H   H1009     1.0  0.35480  0.15093  0.00440  1.0000
  H   H1010     1.0  0.35138  0.21574  0.02636  1.0000
  H   H1011     1.0  0.43137  0.31926  0.48521  1.0000
  H   H1012     1.0  0.39209  0.15019  0.02117  1.0000
  H   H1013     1.0  0.48324  0.27097  0.99974  1.0000
  H   H1014     1.0  0.46965  0.32353  0.49746  1.0000
  C   C563      1.0  0.33046  0.22773  0.49536  1.0000
  H   H1015     1.0  0.29094  0.32747  0.09364  1.0000
  H   H1016     1.0  0.49729  0.17214  0.07687  1.0000
  Fe  Fe62      1.0  0.39827  0.04884  0.97466  1.0000
  H   H1017     1.0  0.47279  0.18926  0.77886  1.0000
  Fe  Fe63      1.0  0.38165  0.09235  0.95000  1.0000
  H   H1018     1.0  0.48269  0.20924  0.80190  1.0000
  S   S123      1.0  0.39992  0.06280  0.93191  1.0000
  H   H1019     1.0  0.42127  0.01212  0.90421  1.0000
  C   C564      1.0  0.40450  0.03779  0.58659  1.0000
  H   H1020     1.0  0.47757  0.01176  0.84362  1.0000
  H   H1021     1.0  0.26622  0.16965  0.56480  1.0000
  H   H1022     1.0  0.39566  0.00192  0.67851  1.0000
  C   C565      1.0  0.42993  0.00690  0.50207  1.0000
  C   C566      1.0  0.46988  0.12882  0.64210  1.0000
  H   H1023     1.0  0.43322  0.14187  0.67263  1.0000
  C   C567      1.0  0.45424  0.29405  0.50217  1.0000
  Fe  Fe64      1.0  0.29146  0.22107  0.91778  1.0000
  S   S124      1.0  0.28460  0.25683  0.92512  1.0000
  S   S125      1.0  0.32512  0.20737  0.92993  1.0000
  Fe  Fe65      1.0  0.25300  0.24798  0.94233  1.0000
  C   C568      1.0  0.47698  0.06305  0.83291  1.0000
  Fe  Fe66      1.0  0.26850  0.25670  0.88303  1.0000
  S   S126      1.0  0.26994  0.28296  0.85087  1.0000
  S   S127      1.0  0.26073  0.21224  0.93770  1.0000
  H   H1024     1.0  0.48855  0.12245  0.81729  1.0000
  C   C569      1.0  0.36992  0.16350  0.52302  1.0000
  S   S128      1.0  0.28027  0.28171  0.65481  1.0000
  H   H1025     1.0  0.32795  0.16153  0.86166  1.0000
  C   C570      1.0  0.45053  0.06563  0.62750  1.0000
  C   C571      1.0  0.45189  0.07011  0.57711  1.0000
  S   S129      1.0  0.27778  0.22157  0.87452  1.0000
  C   C572      1.0  0.40122  0.04335  0.55613  1.0000
  C   C573      1.0  0.45929  0.05938  0.60153  1.0000
  H   H1026     1.0  0.28594  0.29939  0.52628  1.0000
  C   C574      1.0  0.47613  0.13250  0.57716  1.0000
  C   C575      1.0  0.26792  0.27482  0.81579  1.0000
  C   C576      1.0  0.26425  0.29037  0.79493  1.0000
  C   C577      1.0  0.26316  0.28407  0.76683  1.0000
  C   C578      1.0  0.26630  0.26221  0.75949  1.0000
  H   H1027     1.0  0.38387  0.02604  0.64077  1.0000
  C   C579      1.0  0.27048  0.25302  0.80830  1.0000
  H   H1028     1.0  0.26239  0.30729  0.80052  1.0000
  H   H1029     1.0  0.26047  0.29611  0.75088  1.0000
  H   H1030     1.0  0.48237  0.10303  0.59906  1.0000
  C   C580      1.0  0.25948  0.26082  0.55828  1.0000
  H   H1031     1.0  0.26534  0.16314  0.52815  1.0000
  C   C581      1.0  0.27711  0.28522  0.52863  1.0000
  C   C582      1.0  0.27040  0.27940  0.55510  1.0000
  H   H1032     1.0  0.33641  0.19589  0.98447  1.0000
  H   H1033     1.0  0.27344  0.24091  0.82393  1.0000
  H   H1034     1.0  0.44881  0.00035  0.90109  1.0000
  H   H1035     1.0  0.37226  0.00619  0.87425  1.0000
  H   H1036     1.0  0.27409  0.28899  0.57310  1.0000
  C   C583      1.0  0.47461  0.22047  0.76102  1.0000
  H   H1037     1.0  0.42164  0.16204  0.64904  1.0000
  H   H1038     1.0  0.47526  0.30127  0.55310  1.0000
  C   C584      1.0  0.39295  0.00239  0.80037  1.0000
  H   H1039     1.0  0.38162  0.01398  0.59233  1.0000
  H   H1040     1.0  0.42684  0.14100  0.88141  1.0000
  S   S130      1.0  0.41140  0.10811  0.96335  1.0000
  H   H1041     1.0  0.44806  0.99846  0.77969  1.0000
  H   H1042     1.0  0.38362  0.14221  0.74610  1.0000
  H   H1043     1.0  0.44046  0.01725  0.62719  1.0000
  C   C585      1.0  0.26271  0.17631  0.54377  1.0000
  H   H1044     1.0  0.27205  0.20149  0.51749  1.0000
  H   H1045     1.0  0.35740  0.05117  0.85017  1.0000
  C   C586      1.0  0.40556  0.03755  0.79014  1.0000
  C   C587      1.0  0.38924  0.04128  0.77018  1.0000
  H   H1046     1.0  0.41657  0.04979  0.79443  1.0000
  C   C588      1.0  0.34490  0.13480  0.92784  1.0000
  C   C589      1.0  0.35908  0.14924  0.93833  1.0000
  C   C590      1.0  0.35295  0.17150  0.93835  1.0000
  C   C591      1.0  0.33247  0.17941  0.92843  1.0000
  C   C592      1.0  0.31820  0.16497  0.91820  1.0000
  C   C593      1.0  0.32452  0.14272  0.91760  1.0000
  H   H1047     1.0  0.37488  0.14328  0.94605  1.0000
  H   H1048     1.0  0.36410  0.18265  0.94615  1.0000
  H   H1049     1.0  0.30240  0.17094  0.91045  1.0000
  H   H1050     1.0  0.45736  0.01240  0.94846  1.0000
  S   S131      1.0  0.38624  0.06623  0.75263  1.0000
  C   C594      1.0  0.31432  0.21159  0.50469  1.0000
  H   H1051     1.0  0.42670  0.08703  0.64822  1.0000
  N   N31       1.0  0.49148  0.12795  0.62741  1.0000
  H   H1052     1.0  0.27946  0.25262  0.99648  1.0000
  C   C595      1.0  0.47511  0.00164  0.73512  1.0000
  H   H1053     1.0  0.48024  0.14946  0.57685  1.0000
  H   H1054     1.0  0.42104  0.32680  0.82905  1.0000
  H   H1055     1.0  0.46088  0.11484  0.63570  1.0000
  S   S132      1.0  0.38684  0.01574  0.98176  1.0000
  H   H1056     1.0  0.45239  0.15459  0.61695  1.0000
  H   H1057     1.0  0.41298  0.04619  0.68832  1.0000
  C   C596      1.0  0.39428  0.30766  0.83549  1.0000
  H   H1058     1.0  0.36236  0.02799  0.74943  1.0000
  H   H1059     1.0  0.43916  0.11429  0.87354  1.0000
  H   H1060     1.0  0.40572  0.02745  0.71433  1.0000
  H   H1061     1.0  0.42973  0.12078  0.90802  1.0000
  H   H1062     1.0  0.39356  0.04931  0.59880  1.0000
  S   S133      1.0  0.42950  0.06100  0.98947  1.0000
  N   N32       1.0  0.31747  0.20273  0.53361  1.0000
  C   C597      1.0  0.33987  0.19155  0.53787  1.0000
  C   C598      1.0  0.31282  0.22039  0.55515  1.0000
  C   C599      1.0  0.30142  0.18599  0.53762  1.0000
  Fe  Fe67      1.0  0.25192  0.27569  0.62721  1.0000
  H   H1063     1.0  0.38436  0.04116  0.54936  1.0000
  C   C600      1.0  0.27271  0.27265  0.50528  1.0000
  H   H1064     1.0  0.29799  0.22031  0.50243  1.0000
  C   C601      1.0  0.33207  0.23290  0.56537  1.0000
  C   C602      1.0  0.32413  0.25271  0.58261  1.0000
  C   C603      1.0  0.49320  0.06414  0.85306  1.0000
  C   C604      1.0  0.29057  0.17313  0.98570  1.0000
  C   C605      1.0  0.37715  0.00561  0.77955  1.0000
  H   H1065     1.0  0.34128  0.18475  0.55920  1.0000
  H   H1066     1.0  0.35254  0.20308  0.53687  1.0000
  H   H1067     1.0  0.29979  0.23243  0.54760  1.0000
  H   H1068     1.0  0.30631  0.21365  0.57448  1.0000
  H   H1069     1.0  0.30491  0.17726  0.55750  1.0000
  C   C606      1.0  0.44270  0.01948  0.93739  1.0000
  H   H1070     1.0  0.40450  0.29264  0.84051  1.0000
  C   C607      1.0  0.48464  0.32437  0.85754  1.0000
  C   C608      1.0  0.43330  0.00231  0.61994  1.0000
  H   H1071     1.0  0.48637  0.31057  0.60171  1.0000
  H   H1072     1.0  0.30299  0.17353  0.52091  1.0000
  Fe  Fe68      1.0  0.41805  0.09192  0.50737  1.0000
  H   H1073     1.0  0.38166  0.17593  0.52089  1.0000
  Fe  Fe69      1.0  0.25746  0.27644  0.68986  1.0000
  H   H1074     1.0  0.34298  0.22229  0.57879  1.0000
  H   H1075     1.0  0.34179  0.23843  0.54808  1.0000
  H   H1076     1.0  0.33821  0.26059  0.59118  1.0000
  H   H1077     1.0  0.31445  0.26458  0.56950  1.0000
  H   H1078     1.0  0.31400  0.24808  0.60019  1.0000
  H   H1079     1.0  0.35046  0.99894  0.89587  1.0000
  H   H1080     1.0  0.49129  0.16140  0.80753  1.0000
  N   N33       1.0  0.40880  0.00547  0.61977  1.0000
  Fe  Fe70      1.0  0.26558  0.31607  0.65663  1.0000
  S   S134      1.0  0.25228  0.25206  0.59119  1.0000
  H   H1081     1.0  0.35353  0.23015  0.97842  1.0000
  C   C609      1.0  0.42684  0.09320  0.60441  1.0000
  C   C610      1.0  0.27711  0.19451  0.53785  1.0000
  H   H1082     1.0  0.47479  0.21460  0.73919  1.0000
  C   C611      1.0  0.40655  0.01435  0.67254  1.0000
  H   H1083     1.0  0.47677  0.00322  0.60597  1.0000
  C   C612      1.0  0.49360  0.01042  0.71902  1.0000
  H   H1084     1.0  0.42368  0.00780  0.67502  1.0000
  H   H1085     1.0  0.37897  0.30809  0.84744  1.0000
  C   C613      1.0  0.45444  0.14964  0.63884  1.0000
  S   S135      1.0  0.46058  0.05247  0.65809  1.0000
  C   C614      1.0  0.43202  0.14665  0.65049  1.0000
  H   H1086     1.0  0.45911  0.06556  0.55732  1.0000
  H   H1087     1.0  0.38514  0.03984  0.69175  1.0000
  H   H1088     1.0  0.48820  0.02664  0.71077  1.0000
  H   H1089     1.0  0.45705  0.02129  0.81911  1.0000
  H   H1090     1.0  0.42137  0.04045  0.59234  1.0000
  H   H1091     1.0  0.44247  0.06487  0.82573  1.0000
  H   H1092     1.0  0.38465  0.03891  0.85394  1.0000
  H   H1093     1.0  0.36540  0.12138  0.75087  1.0000
  H   H1094     1.0  0.37328  0.05677  0.88066  1.0000
  S   S136      1.0  0.46113  0.07799  0.92461  1.0000
  H   H1095     1.0  0.47659  0.10617  0.54677  1.0000
  H   H1096     1.0  0.33091  0.30039  0.76185  1.0000
  C   C615      1.0  0.40165  0.02156  0.64232  1.0000
  H   H1097     1.0  0.27259  0.22987  0.77480  1.0000
  N   N34       1.0  0.37710  0.11405  0.83678  1.0000
  C   C616      1.0  0.36906  0.09413  0.84938  1.0000
  C   C617      1.0  0.36235  0.13336  0.84576  1.0000
  C   C618      1.0  0.37733  0.11142  0.80559  1.0000
  C   C619      1.0  0.39984  0.11736  0.84645  1.0000
  C   C620      1.0  0.40394  0.11628  0.87827  1.0000
  C   C621      1.0  0.38277  0.07271  0.84299  1.0000
  C   C622      1.0  0.38092  0.13200  0.78883  1.0000
  C   C623      1.0  0.33847  0.13376  0.83563  1.0000
  C   C624      1.0  0.32665  0.15612  0.83977  1.0000
  C   C625      1.0  0.42628  0.12353  0.88565  1.0000
  C   C626      1.0  0.37391  0.05379  0.85793  1.0000
  C   C627      1.0  0.38106  0.12727  0.75765  1.0000
  H   H1098     1.0  0.35239  0.09185  0.84182  1.0000
  H   H1099     1.0  0.36756  0.09602  0.87225  1.0000
  H   H1100     1.0  0.36145  0.13437  0.86877  1.0000
  H   H1101     1.0  0.36913  0.14862  0.83952  1.0000
  H   H1102     1.0  0.36220  0.10481  0.79794  1.0000
  H   H1103     1.0  0.39046  0.09905  0.79925  1.0000
  H   H1104     1.0  0.41185  0.10540  0.83652  1.0000
  H   H1105     1.0  0.40448  0.13334  0.83949  1.0000
  H   H1106     1.0  0.40328  0.09953  0.88577  1.0000
  H   H1107     1.0  0.39184  0.12677  0.89001  1.0000
  H   H1108     1.0  0.38225  0.06909  0.82048  1.0000
  H   H1109     1.0  0.39988  0.07345  0.84941  1.0000
  H   H1110     1.0  0.39666  0.13821  0.79442  1.0000
  H   H1111     1.0  0.36783  0.14493  0.79265  1.0000
  H   H1112     1.0  0.33714  0.12955  0.81336  1.0000
  H   H1113     1.0  0.32978  0.12208  0.84775  1.0000
  H   H1114     1.0  0.33361  0.16806  0.82616  1.0000
  H   H1115     1.0  0.30922  0.15562  0.83442  1.0000
  Fe  Fe71      1.0  0.41878  0.07823  0.74338  1.0000
  C   C628      1.0  0.37500  0.02525  0.76490  1.0000
  Fe  Fe72      1.0  0.42948  0.07745  0.94781  1.0000
  H   H1116     1.0  0.41271  0.03314  0.54317  1.0000
  C   C629      1.0  0.44452  0.99631  0.59185  1.0000
  H   H1117     1.0  0.47202  0.04641  0.60031  1.0000
  S   S137      1.0  0.26630  0.25332  0.72468  1.0000
  H   H1118     1.0  0.39435  0.11489  0.75231  1.0000
  H   H1119     1.0  0.42966  0.02352  0.95266  1.0000
  S   S138      1.0  0.42744  0.09564  0.70480  1.0000
  C   C630      1.0  0.26996  0.24678  0.78032  1.0000
  S   S139      1.0  0.43946  0.09758  0.77100  1.0000
  H   H1120     1.0  0.41879  0.01640  0.82218  1.0000
  H   H1121     1.0  0.37119  0.15664  0.54423  1.0000
  S   S140      1.0  0.35226  0.10687  0.92644  1.0000
  H   H1122     1.0  0.45236  0.32204  0.89596  1.0000
  H   H1123     1.0  0.26654  0.15853  0.96053  1.0000
  S   S141      1.0  0.45795  0.14682  0.72505  1.0000
  H   H1124     1.0  0.41438  0.10642  0.60569  1.0000
  H   H1125     1.0  0.32714  0.24327  0.50666  1.0000
  H   H1126     1.0  0.44671  0.03454  0.92718  1.0000
  C   C631      1.0  0.25459  0.24856  0.53485  1.0000
  H   H1127     1.0  0.47185  0.18600  0.70191  1.0000
  C   C632      1.0  0.46470  0.00665  0.82944  1.0000
  H   H1128     1.0  0.48434  0.23465  0.76267  1.0000
  H   H1129     1.0  0.48980  0.32012  0.99207  1.0000
  H   H1130     1.0  0.29270  0.14356  0.96076  1.0000
  Fe  Fe73      1.0  0.45169  0.11158  0.73147  1.0000
  H   H1131     1.0  0.46102  0.16311  0.65062  1.0000
  C   C633      1.0  0.39959  0.01428  0.59269  1.0000
  C   C634      1.0  0.46625  0.07153  0.88921  1.0000
  H   H1132     1.0  0.27373  0.20699  0.55417  1.0000
  S   S142      1.0  0.38583  0.07820  0.50417  1.0000
  H   H1133     1.0  0.44844  0.29709  0.52366  1.0000
  H   H1134     1.0  0.32375  0.16097  0.98597  1.0000
  H   H1135     1.0  0.31355  0.13160  0.90929  1.0000
  H   H1136     1.0  0.31075  0.20941  0.99079  1.0000
  S   S143      1.0  0.44369  0.05067  0.73703  1.0000
  C   C635      1.0  0.43397  0.08230  0.62865  1.0000
  H   H1137     1.0  0.40453  0.06042  0.55321  1.0000
  H   H1138     1.0  0.42990  0.99551  0.73784  1.0000
  C   C636      1.0  0.28072  0.15330  0.97373  1.0000
  H   H1139     1.0  0.31892  0.32186  0.67685  1.0000
  S   S144      1.0  0.48500  0.05659  0.79836  1.0000
  C   C637      1.0  0.47975  0.12349  0.54778  1.0000
  N   N35       1.0  0.49395  0.30059  0.51535  1.0000
  H   H1140     1.0  0.43464  0.02324  0.50164  1.0000
  H   H1141     1.0  0.49456  0.15791  0.77129  1.0000
  C   C638      1.0  0.44981  0.06978  0.86931  1.0000
  S   S145      1.0  0.42870  0.10384  0.54965  1.0000
  C   C639      1.0  0.48597  0.17462  0.70371  1.0000
  H   H1142     1.0  0.44306  0.01034  0.57767  1.0000
  H   H1143     1.0  0.40959  0.03685  0.63968  1.0000
  H   H1144     1.0  0.48989  0.23446  0.50060  1.0000
  H   H1145     1.0  0.38473  0.99510  0.92178  1.0000
  H   H1146     1.0  0.48802  0.31108  0.87265  1.0000
  H   H1147     1.0  0.43309  0.07164  0.87569  1.0000
  Fe  Fe74      1.0  0.45369  0.06894  0.69993  1.0000
  C   C640      1.0  0.48367  0.15384  0.71403  1.0000
  C   C641      1.0  0.43576  0.08727  0.57855  1.0000
  C   C642      1.0  0.40693  0.01854  0.80573  1.0000
  S   S146      1.0  0.47841  0.08550  0.72495  1.0000
  H   H1148     1.0  0.29413  0.18361  0.96808  1.0000
  Fe  Fe75      1.0  0.46476  0.07059  0.76277  1.0000
  H   H1149     1.0  0.48881  0.16201  0.61670  1.0000
  C   C643      1.0  0.45515  0.06600  0.84104  1.0000
  H   H1150     1.0  0.48576  0.26902  0.52850  1.0000
  H   H1151     1.0  0.27528  0.14307  0.99066  1.0000
  C   C644      1.0  0.40233  0.03316  0.69287  1.0000
  H   H1152     1.0  0.30207  0.30454  0.76755  1.0000
  C   C645      1.0  0.48361  0.20258  0.78050  1.0000
  H   H1153     1.0  0.42417  0.13408  0.63855  1.0000
  H   H1154     1.0  0.41868  0.31252  0.88048  1.0000
  C   C646      1.0  0.48855  0.30972  0.54381  1.0000
  S   S147      1.0  0.37736  0.07709  0.99125  1.0000
  H   H1155     1.0  0.47236  0.12719  0.66497  1.0000
  H   H1156     1.0  0.48504  0.09117  0.66153  1.0000
  H   H1157     1.0  0.45300  0.31577  0.84640  1.0000
  H   H1158     1.0  0.32693  0.24413  0.98235  1.0000
  H   H1159     1.0  0.49147  0.31894  0.83717  1.0000
  H   H1160     1.0  0.40944  0.32194  0.92777  1.0000
  H   H1161     1.0  0.48679  0.11942  0.77995  1.0000
  H   H1162     1.0  0.45762  0.22566  0.76668  1.0000
  H   H1163     1.0  0.47096  0.01317  0.75227  1.0000
  C   C647      1.0  0.31536  0.30777  0.75328  1.0000
  H   H1164     1.0  0.31232  0.30002  0.73292  1.0000
  H   H1165     1.0  0.39020  0.30733  0.81302  1.0000
  H   H1166     1.0  0.45866  0.13204  0.58185  1.0000
  H   H1167     1.0  0.43717  0.32585  0.93644  1.0000
  H   H1168     1.0  0.34752  0.22148  0.49880  1.0000
  H   H1169     1.0  0.33622  0.15963  0.51842  1.0000
  H   H1170     1.0  0.46846  0.13246  0.53312  1.0000
  C   C648      1.0  0.34176  0.23769  0.99366  1.0000
  C   C649      1.0  0.26116  0.25446  0.50839  1.0000
  C   C650      1.0  0.48979  0.11871  0.59850  1.0000
  H   H1171     1.0  0.48716  0.99887  0.79671  1.0000
  H   H1172     1.0  0.40520  0.00399  0.57481  1.0000
  C   C651      1.0  0.48789  0.06871  0.88083  1.0000
  C   C652      1.0  0.34683  0.17307  0.51706  1.0000
  H   H1173     1.0  0.45237  0.99917  0.84192  1.0000
  H   H1174     1.0  0.37434  0.15026  0.50794  1.0000
  C   C653      1.0  0.43515  0.00378  0.91561  1.0000
  C   C654      1.0  0.40642  0.32750  0.84217  1.0000
  H   H1175     1.0  0.49663  0.12522  0.54106  1.0000
  H   H1176     1.0  0.46121  0.00118  0.72061  1.0000
  H   H1177     1.0  0.45759  0.99483  0.52658  1.0000
  H   H1178     1.0  0.48209  0.32694  0.54242  1.0000
  H   H1179     1.0  0.45752  0.27639  0.49899  1.0000
  H   H1180     1.0  0.38416  0.51708  0.03805  1.0000
  H   H1181     1.0  0.32990  0.35417  0.33195  1.0000
  C   C655      1.0  0.32773  0.39050  0.27948  1.0000
  H   H1182     1.0  0.41009  0.36059  0.13385  1.0000
  H   H1183     1.0  0.37098  0.39570  0.26687  1.0000
  H   H1184     1.0  0.46932  0.64202  0.42185  1.0000
  Fe  Fe76      1.0  0.43386  0.42491  0.43446  1.0000
  S   S148      1.0  0.40515  0.40610  0.44226  1.0000
  S   S149      1.0  0.46800  0.41210  0.42230  1.0000
  Fe  Fe77      1.0  0.40757  0.46800  0.44566  1.0000
  S   S150      1.0  0.37698  0.45255  0.45470  1.0000
  S   S151      1.0  0.41156  0.50361  0.44473  1.0000
  H   H1185     1.0  0.34867  0.57584  0.21048  1.0000
  S   S152      1.0  0.39862  0.41330  0.02105  1.0000
  Fe  Fe78      1.0  0.38615  0.43184  0.41741  1.0000
  S   S153      1.0  0.36086  0.42510  0.38507  1.0000
  H   H1186     1.0  0.34987  0.40409  0.03072  1.0000
  S   S154      1.0  0.41522  0.44897  0.40678  1.0000
  Fe  Fe79      1.0  0.43173  0.58484  0.28975  1.0000
  S   S155      1.0  0.40406  0.61048  0.29077  1.0000
  S   S156      1.0  0.41824  0.55221  0.29090  1.0000
  Fe  Fe80      1.0  0.46478  0.61854  0.29426  1.0000
  H   H1187     1.0  0.31138  0.35189  0.25972  1.0000
  Fe  Fe81      1.0  0.42240  0.62555  0.32477  1.0000
  Fe  Fe82      1.0  0.42359  0.62844  0.26147  1.0000
  S   S157      1.0  0.44889  0.59883  0.32613  1.0000
  S   S158      1.0  0.45022  0.60181  0.25776  1.0000
  Fe  Fe83      1.0  0.37079  0.45370  0.16966  1.0000
  S   S159      1.0  0.39918  0.42949  0.17599  1.0000
  S   S160      1.0  0.35968  0.46450  0.12661  1.0000
  Fe  Fe84      1.0  0.36349  0.45802  0.23332  1.0000
  S   S161      1.0  0.39087  0.43340  0.24234  1.0000
  Fe  Fe85      1.0  0.40836  0.45154  0.21070  1.0000
  S   S162      1.0  0.43949  0.46707  0.21924  1.0000
  Fe  Fe86      1.0  0.37748  0.41481  0.20674  1.0000
  S   S163      1.0  0.37188  0.37900  0.20649  1.0000
  S   S164      1.0  0.38116  0.47662  0.20233  1.0000
  N   N36       1.0  0.40752  0.50634  0.06990  1.0000
  C   C656      1.0  0.34512  0.37140  0.20185  1.0000
  C   C657      1.0  0.34153  0.35005  0.19447  1.0000
  C   C658      1.0  0.32104  0.34229  0.27547  1.0000
  C   C659      1.0  0.30248  0.35883  0.19572  1.0000
  C   C660      1.0  0.30616  0.37999  0.20341  1.0000
  C   C661      1.0  0.32728  0.38628  0.20608  1.0000
  C   C662      1.0  0.48155  0.35128  0.02796  1.0000
  C   C663      1.0  0.46582  0.47205  0.37977  1.0000
  H   H1188     1.0  0.29253  0.39166  0.20724  1.0000
  H   H1189     1.0  0.32960  0.40254  0.21234  1.0000
  C   C664      1.0  0.42441  0.52985  0.26880  1.0000
  C   C665      1.0  0.40936  0.51432  0.26687  1.0000
  C   C666      1.0  0.41419  0.49506  0.25210  1.0000
  C   C667      1.0  0.43385  0.49135  0.23815  1.0000
  C   C668      1.0  0.44884  0.50709  0.23948  1.0000
  C   C669      1.0  0.44417  0.52633  0.25488  1.0000
  H   H1190     1.0  0.39407  0.51682  0.27762  1.0000
  H   H1191     1.0  0.40285  0.48279  0.25235  1.0000
  H   H1192     1.0  0.46410  0.50436  0.22874  1.0000
  C   C670      1.0  0.49571  0.59264  0.20731  1.0000
  C   C671      1.0  0.35853  0.44139  0.35516  1.0000
  C   C672      1.0  0.33851  0.45244  0.34877  1.0000
  C   C673      1.0  0.33527  0.46312  0.32333  1.0000
  C   C674      1.0  0.35166  0.46203  0.30337  1.0000
  C   C675      1.0  0.37186  0.45126  0.30994  1.0000
  C   C676      1.0  0.37539  0.44123  0.33592  1.0000
  H   H1193     1.0  0.32534  0.45247  0.36339  1.0000
  H   H1194     1.0  0.38483  0.45077  0.29514  1.0000
  H   H1195     1.0  0.39086  0.43266  0.34067  1.0000
  C   C677      1.0  0.38811  0.42852  0.04969  1.0000
  C   C678      1.0  0.39601  0.42311  0.07624  1.0000
  C   C679      1.0  0.38746  0.43407  0.09979  1.0000
  C   C680      1.0  0.37039  0.45012  0.09723  1.0000
  C   C681      1.0  0.40721  0.49364  0.09647  1.0000
  C   C682      1.0  0.37127  0.44483  0.04688  1.0000
  H   H1196     1.0  0.40900  0.41049  0.07854  1.0000
  H   H1197     1.0  0.39411  0.42998  0.11987  1.0000
  S   S165      1.0  0.43934  0.64626  0.29565  1.0000
  C   C683      1.0  0.36199  0.38053  0.30581  1.0000
  H   H1198     1.0  0.35294  0.57516  0.16279  1.0000
  H   H1199     1.0  0.42882  0.60730  0.20565  1.0000
  H   H1200     1.0  0.43197  0.59181  0.15828  1.0000
  H   H1201     1.0  0.40440  0.55483  0.21809  1.0000
  H   H1202     1.0  0.41919  0.52145  0.01989  1.0000
  H   H1203     1.0  0.44678  0.52416  0.17398  1.0000
  C   C684      1.0  0.42066  0.61569  0.18859  1.0000
  C   C685      1.0  0.39173  0.52120  0.46089  1.0000
  C   C686      1.0  0.39532  0.54305  0.46342  1.0000
  H   H1204     1.0  0.31772  0.51426  0.18310  1.0000
  C   C687      1.0  0.33132  0.36070  0.11391  1.0000
  C   C688      1.0  0.42224  0.60683  0.16181  1.0000
  H   H1205     1.0  0.41029  0.54875  0.45616  1.0000
  H   H1206     1.0  0.31967  0.47146  0.31861  1.0000
  H   H1207     1.0  0.39065  0.64503  0.12680  1.0000
  C   C689      1.0  0.47026  0.34702  0.43267  1.0000
  C   C690      1.0  0.46286  0.36902  0.43203  1.0000
  C   C691      1.0  0.47682  0.38434  0.42403  1.0000
  H   H1208     1.0  0.36966  0.38249  0.06795  1.0000
  C   C692      1.0  0.26660  0.65193  0.46614  1.0000
  S   S166      1.0  0.43106  0.61298  0.48349  1.0000
  H   H1209     1.0  0.44633  0.37411  0.43760  1.0000
  H   H1210     1.0  0.45245  0.63920  0.15824  1.0000
  H   H1211     1.0  0.37165  0.35467  0.13861  1.0000
  S   S167      1.0  0.34892  0.43862  0.19945  1.0000
  H   H1212     1.0  0.36309  0.50178  0.09110  1.0000
  N   N37       1.0  0.33961  0.37423  0.29829  1.0000
  H   H1213     1.0  0.44650  0.53023  0.47513  1.0000
  C   C693      1.0  0.49193  0.61121  0.18681  1.0000
  H   H1214     1.0  0.34198  0.50440  0.04565  1.0000
  S   S168      1.0  0.41443  0.60561  0.10648  1.0000
  H   H1215     1.0  0.44838  0.38287  0.04312  1.0000
  C   C694      1.0  0.36224  0.45536  0.07065  1.0000
  H   H1216     1.0  0.40587  0.53480  0.09611  1.0000
  H   H1217     1.0  0.44871  0.47893  0.38004  1.0000
  Fe  Fe87      1.0  0.39882  0.42868  0.47876  1.0000
  C   C695      1.0  0.31292  0.42867  0.26901  1.0000
  S   S169      1.0  0.40096  0.59496  0.03370  1.0000
  H   H1218     1.0  0.31165  0.38520  0.27346  1.0000
  C   C696      1.0  0.39784  0.64599  0.17078  1.0000
  S   S170      1.0  0.35909  0.62142  0.06342  1.0000
  C   C697      1.0  0.38525  0.50657  0.05670  1.0000
  C   C698      1.0  0.49267  0.32974  0.11479  1.0000
  C   C699      1.0  0.42302  0.50370  0.02023  1.0000
  C   C700      1.0  0.37606  0.59335  0.22166  1.0000
  C   C701      1.0  0.36176  0.60697  0.24199  1.0000
  H   H1219     1.0  0.37764  0.60341  0.20312  1.0000
  H   H1220     1.0  0.39238  0.59025  0.23124  1.0000
  H   H1221     1.0  0.36014  0.59827  0.26174  1.0000
  H   H1222     1.0  0.36918  0.62229  0.24654  1.0000
  H   H1223     1.0  0.34544  0.61111  0.23288  1.0000
  C   C702      1.0  0.37772  0.38314  0.28141  1.0000
  C   C703      1.0  0.39950  0.38989  0.29196  1.0000
  H   H1224     1.0  0.26969  0.35956  0.32781  1.0000
  H   H1225     1.0  0.36119  0.39604  0.31750  1.0000
  C   C704      1.0  0.42591  0.47682  0.13888  1.0000
  H   H1226     1.0  0.40794  0.57116  0.18882  1.0000
  H   H1227     1.0  0.36483  0.44892  0.02649  1.0000
  H   H1228     1.0  0.39741  0.40594  0.30229  1.0000
  H   H1229     1.0  0.44102  0.61307  0.38260  1.0000
  H   H1230     1.0  0.31078  0.34065  0.29396  1.0000
  C   C705      1.0  0.41140  0.61733  0.13952  1.0000
  H   H1231     1.0  0.45752  0.55940  0.08565  1.0000
  H   H1232     1.0  0.42283  0.46028  0.13189  1.0000
  C   C706      1.0  0.43060  0.61820  0.39962  1.0000
  C   C707      1.0  0.43663  0.61252  0.42696  1.0000
  H   H1233     1.0  0.47309  0.51611  0.47751  1.0000
  C   C708      1.0  0.32306  0.41354  0.29123  1.0000
  H   H1234     1.0  0.45929  0.33527  0.43867  1.0000
  C   C709      1.0  0.33764  0.41439  0.49296  1.0000
  H   H1235     1.0  0.49049  0.46420  0.41158  1.0000
  H   H1236     1.0  0.40804  0.53285  0.16071  1.0000
  H   H1237     1.0  0.31886  0.39355  0.39087  1.0000
  N   N38       1.0  0.46233  0.44796  0.33551  1.0000
  H   H1238     1.0  0.45758  0.50723  0.01606  1.0000
  C   C710      1.0  0.46732  0.44930  0.36619  1.0000
  C   C711      1.0  0.45050  0.40913  0.34256  1.0000
  C   C712      1.0  0.43934  0.45673  0.32934  1.0000
  C   C713      1.0  0.43551  0.48134  0.32385  1.0000
  H   H1239     1.0  0.35307  0.34109  0.29463  1.0000
  H   H1240     1.0  0.48138  0.35317  0.08456  1.0000
  H   H1241     1.0  0.43181  0.50749  0.12239  1.0000
  C   C714      1.0  0.41164  0.48906  0.32669  1.0000
  S   S171      1.0  0.40141  0.64688  0.04279  1.0000
  C   C715      1.0  0.27152  0.34571  0.34227  1.0000
  C   C716      1.0  0.48315  0.65238  0.42249  1.0000
  C   C717      1.0  0.45613  0.51637  0.48485  1.0000
  H   H1242     1.0  0.45584  0.44036  0.37814  1.0000
  H   H1243     1.0  0.34437  0.40659  0.47370  1.0000
  H   H1244     1.0  0.48005  0.58652  0.21314  1.0000
  H   H1245     1.0  0.48215  0.41780  0.33010  1.0000
  H   H1246     1.0  0.43282  0.44869  0.31066  1.0000
  H   H1247     1.0  0.42857  0.45257  0.34655  1.0000
  H   H1248     1.0  0.44060  0.48508  0.30253  1.0000
  H   H1249     1.0  0.44468  0.49122  0.33806  1.0000
  C   C718      1.0  0.47895  0.63104  0.20023  1.0000
  H   H1250     1.0  0.46103  0.45811  0.27970  1.0000
  H   H1251     1.0  0.43316  0.41527  0.34166  1.0000
  H   H1252     1.0  0.46967  0.37933  0.33154  1.0000
  H   H1253     1.0  0.43102  0.56888  0.07326  1.0000
  H   H1254     1.0  0.44960  0.50105  0.47818  1.0000
  C   C719      1.0  0.36621  0.57172  0.21458  1.0000
  H   H1255     1.0  0.40967  0.50689  0.32512  1.0000
  H   H1256     1.0  0.40204  0.48216  0.30984  1.0000
  H   H1257     1.0  0.40536  0.48429  0.34704  1.0000
  H   H1258     1.0  0.45597  0.53817  0.25642  1.0000
  H   H1259     1.0  0.32124  0.42216  0.48828  1.0000
  H   H1260     1.0  0.46305  0.46092  0.42233  1.0000
  H   H1261     1.0  0.48296  0.49018  0.27809  1.0000
  H   H1262     1.0  0.36131  0.37814  0.01884  1.0000
  H   H1263     1.0  0.31538  0.36624  0.38006  1.0000
  H   H1264     1.0  0.30904  0.37315  0.31968  1.0000
  S   S172      1.0  0.34590  0.47355  0.27030  1.0000
  H   H1265     1.0  0.34893  0.46763  0.06838  1.0000
  C   C720      1.0  0.30657  0.33108  0.10333  1.0000
  H   H1266     1.0  0.38267  0.64689  0.41292  1.0000
  H   H1267     1.0  0.33663  0.39158  0.25976  1.0000
  H   H1268     1.0  0.40343  0.38714  0.11995  1.0000
  H   H1269     1.0  0.31128  0.41357  0.30844  1.0000
  H   H1270     1.0  0.40419  0.54066  0.06042  1.0000
  H   H1271     1.0  0.49557  0.45342  0.32645  1.0000
  H   H1272     1.0  0.27942  0.33142  0.33124  1.0000
  C   C721      1.0  0.45266  0.38647  0.32981  1.0000
  H   H1273     1.0  0.34174  0.52312  0.49042  1.0000
  H   H1274     1.0  0.35028  0.35494  0.26237  1.0000
  H   H1275     1.0  0.39699  0.38141  0.15550  1.0000
  H   H1276     1.0  0.48635  0.36517  0.04066  1.0000
  S   S173      1.0  0.34824  0.57072  0.01409  1.0000
  H   H1277     1.0  0.34386  0.34960  0.10385  1.0000
  C   C722      1.0  0.45701  0.34910  0.03204  1.0000
  H   H1278     1.0  0.29813  0.42234  0.26000  1.0000
  H   H1279     1.0  0.44063  0.55212  0.16499  1.0000
  H   H1280     1.0  0.40695  0.37784  0.30681  1.0000
  H   H1281     1.0  0.32473  0.43071  0.25223  1.0000
  C   C723      1.0  0.39792  0.37474  0.13407  1.0000
  H   H1282     1.0  0.28218  0.34985  0.35978  1.0000
  H   H1283     1.0  0.44734  0.52231  0.08720  1.0000
  C   C724      1.0  0.34486  0.51841  0.05924  1.0000
  S   S174      1.0  0.42888  0.44578  0.47251  1.0000
  H   H1284     1.0  0.47596  0.48314  0.36894  1.0000
  C   C725      1.0  0.33130  0.38544  0.34993  1.0000
  H   H1285     1.0  0.34759  0.38053  0.35872  1.0000
  C   C726      1.0  0.41257  0.52935  0.07566  1.0000
  Fe  Fe88      1.0  0.40351  0.62367  0.00680  1.0000
  C   C727      1.0  0.34226  0.35296  0.28268  1.0000
  H   H1286     1.0  0.36906  0.52937  0.08679  1.0000
  C   C728      1.0  0.37230  0.51406  0.47044  1.0000
  H   H1287     1.0  0.26599  0.64896  0.48882  1.0000
  C   C729      1.0  0.47888  0.45937  0.31970  1.0000
  H   H1288     1.0  0.48326  0.35641  0.00611  1.0000
  H   H1289     1.0  0.30807  0.35967  0.07910  1.0000
  H   H1290     1.0  0.47768  0.47686  0.32459  1.0000
  C   C730      1.0  0.40871  0.63544  0.19309  1.0000
  H   H1291     1.0  0.38267  0.57448  0.47734  1.0000
  H   H1292     1.0  0.44403  0.54446  0.20094  1.0000
  C   C731      1.0  0.24947  0.34074  0.35349  1.0000
  H   H1293     1.0  0.41066  0.39099  0.27420  1.0000
  H   H1294     1.0  0.39293  0.63597  0.46065  1.0000
  H   H1295     1.0  0.34545  0.53302  0.04644  1.0000
  C   C732      1.0  0.30928  0.35525  0.10133  1.0000
  C   C733      1.0  0.39769  0.63718  0.41675  1.0000
  C   C734      1.0  0.31484  0.38322  0.37294  1.0000
  N   N39       1.0  0.33663  0.38392  0.11198  1.0000
  H   H1296     1.0  0.37778  0.58691  0.16466  1.0000
  H   H1297     1.0  0.37635  0.56698  0.09240  1.0000
  C   C735      1.0  0.31911  0.39757  0.12722  1.0000
  C   C736      1.0  0.33679  0.39168  0.08241  1.0000
  H   H1298     1.0  0.48937  0.47122  0.25032  1.0000
  C   C737      1.0  0.32283  0.42182  0.13111  1.0000
  C   C738      1.0  0.30498  0.43337  0.14879  1.0000
  H   H1299     1.0  0.36720  0.56194  0.23393  1.0000
  H   H1300     1.0  0.36494  0.40157  0.11847  1.0000
  C   C739      1.0  0.37074  0.57106  0.16433  1.0000
  H   H1301     1.0  0.31675  0.39075  0.14818  1.0000
  H   H1302     1.0  0.30326  0.39728  0.11629  1.0000
  H   H1303     1.0  0.32024  0.39214  0.07317  1.0000
  H   H1304     1.0  0.34113  0.40868  0.08178  1.0000
  H   H1305     1.0  0.46105  0.64468  0.09862  1.0000
  C   C740      1.0  0.37969  0.55766  0.47557  1.0000
  H   H1306     1.0  0.32271  0.43017  0.11086  1.0000
  H   H1307     1.0  0.33848  0.42398  0.14161  1.0000
  Fe  Fe89      1.0  0.39536  0.61827  0.06901  1.0000
  C   C741      1.0  0.49167  0.34013  0.42539  1.0000
  H   H1308     1.0  0.30470  0.42600  0.16970  1.0000
  H   H1309     1.0  0.30811  0.45061  0.15134  1.0000
  H   H1310     1.0  0.28891  0.43252  0.13864  1.0000
  N   N40       1.0  0.37902  0.55784  0.37463  1.0000
  C   C742      1.0  0.40249  0.55384  0.36629  1.0000
  C   C743      1.0  0.36588  0.56427  0.34903  1.0000
  C   C744      1.0  0.37725  0.57696  0.39440  1.0000
  C   C745      1.0  0.37039  0.53871  0.38876  1.0000
  C   C746      1.0  0.37921  0.51585  0.37887  1.0000
  C   C747      1.0  0.41906  0.55037  0.39045  1.0000
  C   C748      1.0  0.35444  0.58322  0.40684  1.0000
  C   C749      1.0  0.36443  0.54682  0.32608  1.0000
  C   C750      1.0  0.35531  0.55662  0.29907  1.0000
  C   C751      1.0  0.36642  0.49832  0.39130  1.0000
  C   C752      1.0  0.44058  0.53928  0.38047  1.0000
  C   C753      1.0  0.35487  0.60255  0.42658  1.0000
  H   H1311     1.0  0.40752  0.56766  0.35395  1.0000
  H   H1312     1.0  0.40490  0.53977  0.35212  1.0000
  H   H1313     1.0  0.34880  0.56916  0.35436  1.0000
  H   H1314     1.0  0.37228  0.57875  0.33952  1.0000
  H   H1315     1.0  0.38303  0.59148  0.38422  1.0000
  H   H1316     1.0  0.38796  0.57378  0.41278  1.0000
  H   H1317     1.0  0.37392  0.53913  0.41142  1.0000
  H   H1318     1.0  0.35238  0.53979  0.38709  1.0000
  H   H1319     1.0  0.39639  0.51249  0.38526  1.0000
  H   H1320     1.0  0.37834  0.51401  0.35619  1.0000
  H   H1321     1.0  0.42244  0.56621  0.39968  1.0000
  H   H1322     1.0  0.41277  0.54041  0.40696  1.0000
  H   H1323     1.0  0.34878  0.56964  0.41887  1.0000
  H   H1324     1.0  0.34223  0.58785  0.39064  1.0000
  H   H1325     1.0  0.38037  0.53848  0.32102  1.0000
  H   H1326     1.0  0.35337  0.53470  0.33280  1.0000
  H   H1327     1.0  0.35342  0.54356  0.28359  1.0000
  H   H1328     1.0  0.33925  0.56555  0.30251  1.0000
  H   H1329     1.0  0.36673  0.56768  0.29056  1.0000
  H   H1330     1.0  0.36687  0.49910  0.41429  1.0000
  H   H1331     1.0  0.34931  0.50010  0.38405  1.0000
  H   H1332     1.0  0.37367  0.48217  0.38469  1.0000
  H   H1333     1.0  0.44743  0.54881  0.36376  1.0000
  H   H1334     1.0  0.45227  0.53785  0.39807  1.0000
  H   H1335     1.0  0.43824  0.52280  0.37258  1.0000
  H   H1336     1.0  0.35799  0.61722  0.41483  1.0000
  H   H1337     1.0  0.33897  0.60545  0.43706  1.0000
  H   H1338     1.0  0.36756  0.59956  0.44278  1.0000
  S   S175      1.0  0.27537  0.35221  0.19354  1.0000
  Fe  Fe90      1.0  0.36545  0.60009  0.02581  1.0000
  S   S176      1.0  0.40765  0.64748  0.22620  1.0000
  H   H1339     1.0  0.44228  0.48447  0.10173  1.0000
  H   H1340     1.0  0.30832  0.44479  0.27829  1.0000
  H   H1341     1.0  0.33810  0.42017  0.29862  1.0000
  H   H1342     1.0  0.33105  0.52121  0.07374  1.0000
  H   H1343     1.0  0.36934  0.49728  0.46853  1.0000
  N   N41       1.0  0.37642  0.55875  0.19064  1.0000
  C   C754      1.0  0.40066  0.55630  0.19544  1.0000
  H   H1344     1.0  0.38225  0.49018  0.04886  1.0000
  H   H1345     1.0  0.33093  0.40273  0.34463  1.0000
  C   C755      1.0  0.42831  0.49148  0.11395  1.0000
  C   C756      1.0  0.42303  0.61901  0.44916  1.0000
  C   C757      1.0  0.35657  0.52875  0.48260  1.0000
  H   H1346     1.0  0.35564  0.38982  0.14893  1.0000
  H   H1347     1.0  0.37785  0.36102  0.10349  1.0000
  C   C758      1.0  0.35282  0.37914  0.06248  1.0000
  N   N42       1.0  0.49640  0.33130  0.03368  1.0000
  C   C759      1.0  0.37591  0.36781  0.12467  1.0000
  H   H1348     1.0  0.33361  0.54573  0.20356  1.0000
  H   H1349     1.0  0.33743  0.54418  0.16645  1.0000
  H   H1350     1.0  0.35086  0.57056  0.11039  1.0000
  C   C760      1.0  0.37865  0.56044  0.13675  1.0000
  C   C761      1.0  0.42332  0.49462  0.05017  1.0000
  H   H1351     1.0  0.37181  0.52854  0.21067  1.0000
  H   H1352     1.0  0.35132  0.36153  0.06298  1.0000
  C   C762      1.0  0.43684  0.53402  0.07501  1.0000
  H   H1353     1.0  0.44648  0.37694  0.00641  1.0000
  C   C763      1.0  0.36742  0.53689  0.19074  1.0000
  C   C764      1.0  0.34255  0.53683  0.18659  1.0000
  C   C765      1.0  0.41357  0.53641  0.18197  1.0000
  C   C766      1.0  0.43773  0.53955  0.18043  1.0000
  C   C767      1.0  0.36843  0.57282  0.11196  1.0000
  C   C768      1.0  0.32024  0.34379  0.19114  1.0000
  H   H1354     1.0  0.37483  0.52609  0.17440  1.0000
  H   H1355     1.0  0.37450  0.54351  0.13492  1.0000
  H   H1356     1.0  0.39646  0.56108  0.13519  1.0000
  H   H1357     1.0  0.41159  0.52188  0.19472  1.0000
  C   C769      1.0  0.39901  0.63684  0.14400  1.0000
  C   C770      1.0  0.41122  0.63084  0.39459  1.0000
  C   C771      1.0  0.33550  0.51385  0.18654  1.0000
  H   H1358     1.0  0.37052  0.59033  0.11399  1.0000
  H   H1359     1.0  0.33934  0.50600  0.20682  1.0000
  H   H1360     1.0  0.34364  0.50404  0.16965  1.0000
  H   H1361     1.0  0.48667  0.63361  0.22081  1.0000
  C   C772      1.0  0.34881  0.38640  0.03253  1.0000
  H   H1362     1.0  0.33149  0.35578  0.13609  1.0000
  C   C773      1.0  0.40345  0.63104  0.44383  1.0000
  S   S177      1.0  0.40349  0.63963  0.36121  1.0000
  H   H1363     1.0  0.40252  0.47710  0.09179  1.0000
  H   H1364     1.0  0.47381  0.65678  0.47853  1.0000
  C   C774      1.0  0.35806  0.38686  0.12628  1.0000
  H   H1365     1.0  0.35522  0.33835  0.19124  1.0000
  H   H1366     1.0  0.28371  0.65288  0.45993  1.0000
  H   H1367     1.0  0.39481  0.50106  0.11097  1.0000
  H   H1368     1.0  0.42630  0.36868  0.02983  1.0000
  H   H1369     1.0  0.38118  0.36776  0.26985  1.0000
  H   H1370     1.0  0.45178  0.60304  0.43092  1.0000
  H   H1371     1.0  0.43448  0.55829  0.10807  1.0000
  H   H1372     1.0  0.37003  0.36831  0.32014  1.0000
  H   H1373     1.0  0.49349  0.34214  0.13141  1.0000
  H   H1374     1.0  0.26021  0.63803  0.45509  1.0000
  H   H1375     1.0  0.45700  0.65220  0.35451  1.0000
  C   C775      1.0  0.44009  0.55651  0.08627  1.0000
  C   C776      1.0  0.36592  0.51431  0.07565  1.0000
  H   H1376     1.0  0.46241  0.62629  0.20479  1.0000
  C   C777      1.0  0.36047  0.55051  0.48570  1.0000
  Fe  Fe91      1.0  0.36535  0.64869  0.03467  1.0000
  C   C778      1.0  0.32673  0.37103  0.32434  1.0000
  H   H1377     1.0  0.44767  0.38689  0.30764  1.0000
  C   C779      1.0  0.46808  0.64658  0.15551  1.0000
  H   H1378     1.0  0.41027  0.49630  0.00791  1.0000
  C   C780      1.0  0.47337  0.47103  0.41004  1.0000
  H   H1379     1.0  0.44286  0.53334  0.05338  1.0000
  H   H1380     1.0  0.47392  0.62839  0.46983  1.0000
  H   H1381     1.0  0.45105  0.33747  0.01678  1.0000
  C   C781      1.0  0.44384  0.37072  0.02756  1.0000
  H   H1382     1.0  0.48283  0.60498  0.16893  1.0000
  C   C782      1.0  0.49470  0.34018  0.08643  1.0000
  H   H1383     1.0  0.41234  0.48332  0.15229  1.0000
  H   H1384     1.0  0.29824  0.38859  0.36561  1.0000
  H   H1385     1.0  0.40381  0.66003  0.49601  1.0000
  H   H1386     1.0  0.48372  0.44121  0.37068  1.0000
  H   H1387     1.0  0.44102  0.47580  0.15154  1.0000
  H   H1388     1.0  0.45352  0.34357  0.05321  1.0000
  H   H1389     1.0  0.47206  0.48751  0.41926  1.0000
  H   H1390     1.0  0.44011  0.49407  0.05835  1.0000
  H   H1391     1.0  0.49510  0.63782  0.49134  1.0000
  H   H1392     1.0  0.41997  0.47729  0.04830  1.0000
  H   H1393     1.0  0.47891  0.63442  0.14417  1.0000
  H   H1394     1.0  0.29552  0.36373  0.11268  1.0000
  H   H1395     1.0  0.33260  0.38232  0.02520  1.0000
  N   N43       1.0  0.47755  0.65165  0.18358  1.0000
  C   C783      1.0  0.48427  0.64192  0.47336  1.0000
  H   H1396     1.0  0.46218  0.65757  0.24171  1.0000
  H   H1397     1.0  0.34521  0.65628  0.44146  1.0000
  C   C784      1.0  0.46497  0.42438  0.32718  1.0000
  H   H1398     1.0  0.47550  0.62701  0.37755  1.0000
  H   H1399     1.0  0.43558  0.65370  0.11471  1.0000
  H   H1400     1.0  0.44214  0.37597  0.34117  1.0000
  H   H1401     1.0  0.46123  0.42247  0.30472  1.0000
  C   C785      1.0  0.47794  0.45677  0.28763  1.0000
  H   H1402     1.0  0.33171  0.65347  0.47430  1.0000
  H   H1403     1.0  0.45548  0.40729  0.36458  1.0000
  C   C786      1.0  0.49027  0.47369  0.27315  1.0000
  C   C787      1.0  0.49255  0.63103  0.37961  1.0000
  H   H1404     1.0  0.38852  0.66128  0.17419  1.0000
  H   H1405     1.0  0.48659  0.58753  0.37076  1.0000
  C   C788      1.0  0.44474  0.49854  0.00577  1.0000
  N   N44       1.0  0.49379  0.65243  0.39434  1.0000
  H   H1406     1.0  0.48554  0.44064  0.28141  1.0000
  C   C789      1.0  0.45186  0.65850  0.10915  1.0000
  H   H1407     1.0  0.44951  0.48094  0.00619  1.0000
  H   H1408     1.0  0.49632  0.60739  0.41304  1.0000
  H   H1409     1.0  0.47492  0.49300  0.91322  1.0000
  H   H1410     1.0  0.33023  0.39532  0.85560  1.0000
  S   S178      1.0  0.40548  0.58085  0.61079  1.0000
  H   H1411     1.0  0.39241  0.53390  0.90174  1.0000
  H   H1412     1.0  0.39917  0.33722  0.77626  1.0000
  H   H1413     1.0  0.49098  0.41149  0.80442  1.0000
  Fe  Fe92      1.0  0.43659  0.42815  0.93418  1.0000
  S   S179      1.0  0.41116  0.40582  0.94343  1.0000
  H   H1414     1.0  0.33713  0.65131  0.71049  1.0000
  Fe  Fe93      1.0  0.40515  0.46790  0.94407  1.0000
  S   S180      1.0  0.37686  0.44862  0.95335  1.0000
  S   S181      1.0  0.40758  0.50379  0.94249  1.0000
  C   C790      1.0  0.46998  0.47507  0.86105  1.0000
  S   S182      1.0  0.39253  0.41454  0.52081  1.0000
  Fe  Fe94      1.0  0.38918  0.42785  0.91709  1.0000
  S   S183      1.0  0.37246  0.41102  0.88220  1.0000
  H   H1415     1.0  0.30140  0.34459  0.78725  1.0000
  S   S184      1.0  0.41521  0.44889  0.90587  1.0000
  Fe  Fe95      1.0  0.43932  0.58029  0.78380  1.0000
  S   S185      1.0  0.41066  0.60457  0.77864  1.0000
  S   S186      1.0  0.43123  0.54596  0.79135  1.0000
  Fe  Fe96      1.0  0.47036  0.61592  0.79176  1.0000
  H   H1416     1.0  0.33052  0.34928  0.83170  1.0000
  Fe  Fe97      1.0  0.42460  0.62160  0.81490  1.0000
  Fe  Fe98      1.0  0.43258  0.62262  0.75247  1.0000
  S   S187      1.0  0.45219  0.59660  0.82149  1.0000
  S   S188      1.0  0.46043  0.59701  0.75434  1.0000
  Fe  Fe99      1.0  0.36752  0.45210  0.66864  1.0000
  S   S189      1.0  0.39708  0.42885  0.67000  1.0000
  S   S190      1.0  0.35726  0.46711  0.62723  1.0000
  Fe  Fe100     1.0  0.36200  0.44959  0.73260  1.0000
  S   S191      1.0  0.39095  0.42585  0.73685  1.0000
  Fe  Fe101     1.0  0.40648  0.44773  0.70750  1.0000
  S   S192      1.0  0.43759  0.46396  0.71271  1.0000
  Fe  Fe102     1.0  0.37724  0.41020  0.69883  1.0000
  S   S193      1.0  0.37307  0.37427  0.69467  1.0000
  S   S194      1.0  0.37796  0.47196  0.70459  1.0000
  S   S195      1.0  0.39689  0.58155  0.53253  1.0000
  C   C791      1.0  0.34792  0.36638  0.68202  1.0000
  C   C792      1.0  0.34300  0.34477  0.68399  1.0000
  H   H1417     1.0  0.45068  0.47871  0.91376  1.0000
  C   C793      1.0  0.30714  0.35385  0.66419  1.0000
  C   C794      1.0  0.31225  0.37527  0.66189  1.0000
  C   C795      1.0  0.33256  0.38143  0.67038  1.0000
  C   C796      1.0  0.42073  0.35248  0.91216  1.0000
  H   H1418     1.0  0.34289  0.53439  0.75414  1.0000
  H   H1419     1.0  0.30037  0.38719  0.65341  1.0000
  H   H1420     1.0  0.33635  0.39781  0.66748  1.0000
  C   C797      1.0  0.43082  0.52554  0.76583  1.0000
  C   C798      1.0  0.41686  0.50921  0.76958  1.0000
  C   C799      1.0  0.41798  0.49101  0.75209  1.0000
  C   C800      1.0  0.43384  0.48842  0.73160  1.0000
  C   C801      1.0  0.44746  0.50503  0.72728  1.0000
  C   C802      1.0  0.44562  0.52382  0.74396  1.0000
  H   H1421     1.0  0.40537  0.51042  0.78643  1.0000
  H   H1422     1.0  0.40711  0.47854  0.75522  1.0000
  H   H1423     1.0  0.45972  0.50316  0.71138  1.0000
  H   H1424     1.0  0.45652  0.53630  0.74099  1.0000
  C   C803      1.0  0.36653  0.42595  0.85168  1.0000
  C   C804      1.0  0.36001  0.44804  0.85276  1.0000
  C   C805      1.0  0.35371  0.45917  0.82827  1.0000
  C   C806      1.0  0.35449  0.44843  0.80251  1.0000
  C   C807      1.0  0.36154  0.42648  0.80145  1.0000
  C   C808      1.0  0.36734  0.41525  0.82593  1.0000
  H   H1425     1.0  0.35916  0.45638  0.87255  1.0000
  H   H1426     1.0  0.36204  0.41809  0.78177  1.0000
  H   H1427     1.0  0.37258  0.39825  0.82491  1.0000
  C   C809      1.0  0.38399  0.43045  0.54985  1.0000
  C   C810      1.0  0.38586  0.42100  0.57611  1.0000
  C   C811      1.0  0.37761  0.43212  0.59965  1.0000
  C   C812      1.0  0.36778  0.45309  0.59746  1.0000
  C   C813      1.0  0.36597  0.46272  0.57115  1.0000
  C   C814      1.0  0.37408  0.45144  0.54737  1.0000
  H   H1428     1.0  0.39349  0.40480  0.57825  1.0000
  H   H1429     1.0  0.37830  0.42409  0.61936  1.0000
  H   H1430     1.0  0.31522  0.35158  0.58783  1.0000
  C   C815      1.0  0.42382  0.60185  0.68624  1.0000
  C   C816      1.0  0.42050  0.58876  0.66302  1.0000
  H   H1431     1.0  0.43054  0.59473  0.70512  1.0000
  H   H1432     1.0  0.42499  0.57165  0.66404  1.0000
  H   H1433     1.0  0.36714  0.52024  0.76789  1.0000
  H   H1434     1.0  0.38812  0.50552  0.53752  1.0000
  H   H1435     1.0  0.28515  0.34347  0.55556  1.0000
  H   H1436     1.0  0.29771  0.37293  0.60374  1.0000
  H   H1437     1.0  0.44971  0.47267  0.79387  1.0000
  H   H1438     1.0  0.28513  0.44743  0.61943  1.0000
  S   S196      1.0  0.34598  0.46244  0.77205  1.0000
  C   C817      1.0  0.37419  0.35532  0.60031  1.0000
  H   H1439     1.0  0.45316  0.45274  0.55761  1.0000
  S   S197      1.0  0.36817  0.62745  0.99658  1.0000
  Fe  Fe103     1.0  0.36218  0.59278  0.52475  1.0000
  H   H1440     1.0  0.31870  0.65039  0.53861  1.0000
  C   C818      1.0  0.47655  0.35677  0.94663  1.0000
  C   C819      1.0  0.46923  0.37851  0.94284  1.0000
  C   C820      1.0  0.48025  0.39135  0.92503  1.0000
  C   C821      1.0  0.32261  0.33850  0.67519  1.0000
  C   C822      1.0  0.30199  0.42322  0.59287  1.0000
  H   H1441     1.0  0.42632  0.53909  0.52243  1.0000
  H   H1442     1.0  0.45490  0.38529  0.95343  1.0000
  H   H1443     1.0  0.33047  0.51335  0.65484  1.0000
  C   C823      1.0  0.41348  0.45579  0.81107  1.0000
  S   S198      1.0  0.34728  0.43302  0.69635  1.0000
  C   C824      1.0  0.40955  0.63314  0.66046  1.0000
  C   C825      1.0  0.40641  0.52489  0.56713  1.0000
  S   S199      1.0  0.44367  0.64234  0.78816  1.0000
  C   C826      1.0  0.48593  0.49604  0.78912  1.0000
  C   C827      1.0  0.44319  0.53171  0.60569  1.0000
  C   C828      1.0  0.38789  0.52211  0.54588  1.0000
  C   C829      1.0  0.36576  0.52784  0.55908  1.0000
  C   C830      1.0  0.45781  0.54755  0.61906  1.0000
  H   H1444     1.0  0.40246  0.51639  0.58646  1.0000
  H   H1445     1.0  0.40459  0.54240  0.57270  1.0000
  C   C831      1.0  0.42072  0.33413  0.93384  1.0000
  C   C832      1.0  0.32218  0.37731  0.80434  1.0000
  H   H1446     1.0  0.43086  0.49194  0.58754  1.0000
  H   H1447     1.0  0.44882  0.51536  0.61317  1.0000
  H   H1448     1.0  0.42650  0.53591  0.61321  1.0000
  H   H1449     1.0  0.48802  0.64277  0.74793  1.0000
  H   H1450     1.0  0.36345  0.51739  0.57719  1.0000
  H   H1451     1.0  0.36419  0.54503  0.56583  1.0000
  H   H1452     1.0  0.35274  0.52545  0.54368  1.0000
  H   H1453     1.0  0.48677  0.47505  0.86957  1.0000
  C   C833      1.0  0.43210  0.52210  0.52751  1.0000
  C   C834      1.0  0.49521  0.34783  0.93312  1.0000
  H   H1454     1.0  0.28344  0.41222  0.73344  1.0000
  C   C835      1.0  0.39064  0.52180  0.96248  1.0000
  H   H1455     1.0  0.31205  0.51515  0.60932  1.0000
  H   H1456     1.0  0.30474  0.53927  0.62931  1.0000
  H   H1457     1.0  0.32398  0.53975  0.60117  1.0000
  H   H1458     1.0  0.35042  0.57287  0.71066  1.0000
  H   H1459     1.0  0.43212  0.36375  0.92056  1.0000
  H   H1460     1.0  0.39068  0.35564  0.74892  1.0000
  H   H1461     1.0  0.39696  0.35115  0.96119  1.0000
  C   C836      1.0  0.32728  0.37795  0.85654  1.0000
  H   H1462     1.0  0.39935  0.49492  0.88535  1.0000
  H   H1463     1.0  0.34925  0.51364  0.62658  1.0000
  H   H1464     1.0  0.32825  0.33344  0.79173  1.0000
  C   C837      1.0  0.35444  0.37174  0.60073  1.0000
  C   C838      1.0  0.43596  0.49509  0.56596  1.0000
  H   H1465     1.0  0.38641  0.48744  0.85372  1.0000
  C   C839      1.0  0.31113  0.37907  0.75571  1.0000
  H   H1466     1.0  0.46411  0.50335  0.52488  1.0000
  H   H1467     1.0  0.37012  0.49817  0.88222  1.0000
  H   H1468     1.0  0.44054  0.54970  0.56719  1.0000
  H   H1469     1.0  0.37892  0.35094  0.62197  1.0000
  H   H1470     1.0  0.42484  0.35520  0.96962  1.0000
  H   H1471     1.0  0.35896  0.38581  0.61325  1.0000
  H   H1472     1.0  0.34081  0.59664  0.94262  1.0000
  H   H1473     1.0  0.35020  0.51353  0.69353  1.0000
  C   C840      1.0  0.40583  0.62002  0.63740  1.0000
  H   H1474     1.0  0.26759  0.36416  0.57287  1.0000
  C   C841      1.0  0.49387  0.51796  0.78209  1.0000
  H   H1475     1.0  0.32530  0.38572  0.50822  1.0000
  H   H1476     1.0  0.44880  0.50774  0.91535  1.0000
  H   H1477     1.0  0.29372  0.37789  0.76070  1.0000
  H   H1478     1.0  0.49711  0.43808  0.85767  1.0000
  H   H1479     1.0  0.37584  0.54409  0.72982  1.0000
  H   H1480     1.0  0.27546  0.65142  0.90832  1.0000
  C   C842      1.0  0.40188  0.63619  0.93277  1.0000
  H   H1481     1.0  0.41194  0.54724  0.95846  1.0000
  C   C843      1.0  0.36921  0.52859  0.72438  1.0000
  C   C844      1.0  0.36465  0.34692  0.77577  1.0000
  H   H1482     1.0  0.47496  0.54353  0.61306  1.0000
  S   S200      1.0  0.28145  0.34744  0.65199  1.0000
  C   C845      1.0  0.33680  0.52356  0.63853  1.0000
  C   C846      1.0  0.30801  0.37975  0.56126  1.0000
  H   H1483     1.0  0.43909  0.49452  0.86820  1.0000
  H   H1484     1.0  0.36609  0.49999  0.96974  1.0000
  H   H1485     1.0  0.31348  0.37211  0.73445  1.0000
  H   H1486     1.0  0.30553  0.40632  0.70947  1.0000
  H   H1487     1.0  0.33243  0.55378  0.66050  1.0000
  H   H1488     1.0  0.43256  0.45543  0.84828  1.0000
  H   H1489     1.0  0.33135  0.62115  0.62245  1.0000
  C   C847      1.0  0.30090  0.41386  0.72974  1.0000
  H   H1490     1.0  0.45392  0.49199  0.56638  1.0000
  H   H1491     1.0  0.37041  0.34044  0.58903  1.0000
  C   C848      1.0  0.34875  0.36642  0.76722  1.0000
  C   C849      1.0  0.38127  0.52362  0.65938  1.0000
  H   H1492     1.0  0.45270  0.56435  0.61268  1.0000
  H   H1493     1.0  0.30343  0.43132  0.72878  1.0000
  C   C850      1.0  0.39616  0.63951  0.90475  1.0000
  H   H1494     1.0  0.36594  0.53889  0.88876  1.0000
  C   C851      1.0  0.38562  0.49929  0.87106  1.0000
  C   C852      1.0  0.31474  0.40340  0.75314  1.0000
  N   N45       1.0  0.47079  0.47449  0.82973  1.0000
  H   H1495     1.0  0.31758  0.63462  0.59353  1.0000
  C   C853      1.0  0.48592  0.45551  0.81999  1.0000
  H   H1496     1.0  0.49152  0.63905  0.71093  1.0000
  C   C854      1.0  0.44855  0.47381  0.81685  1.0000
  H   H1497     1.0  0.31414  0.44511  0.62384  1.0000
  C   C855      1.0  0.39687  0.54267  0.96693  1.0000
  H   H1498     1.0  0.33689  0.37065  0.87413  1.0000
  C   C856      1.0  0.48792  0.43495  0.83834  1.0000
  H   H1499     1.0  0.30144  0.33822  0.73816  1.0000
  H   H1500     1.0  0.44062  0.41724  0.86077  1.0000
  H   H1501     1.0  0.42906  0.44242  0.54361  1.0000
  H   H1502     1.0  0.46359  0.54843  0.89312  1.0000
  H   H1503     1.0  0.40436  0.36151  0.91241  1.0000
  H   H1504     1.0  0.46353  0.46034  0.86947  1.0000
  H   H1505     1.0  0.48163  0.45074  0.79841  1.0000
  H   H1506     1.0  0.46420  0.65973  0.99444  1.0000
  H   H1507     1.0  0.45665  0.54668  0.64200  1.0000
  H   H1508     1.0  0.45482  0.57353  0.87673  1.0000
  C   C857      1.0  0.44418  0.53254  0.57356  1.0000
  C   C858      1.0  0.41370  0.34322  0.96226  1.0000
  C   C859      1.0  0.30180  0.36418  0.58413  1.0000
  H   H1509     1.0  0.44420  0.43944  0.81946  1.0000
  H   H1510     1.0  0.48979  0.65747  0.95518  1.0000
  N   N46       1.0  0.42945  0.51825  0.55815  1.0000
  C   C860      1.0  0.45639  0.49443  0.87441  1.0000
  H   H1511     1.0  0.42918  0.45209  0.57891  1.0000
  C   C861      1.0  0.36433  0.55205  0.99365  1.0000
  H   H1512     1.0  0.47208  0.42985  0.84462  1.0000
  S   S201      1.0  0.34242  0.56840  0.50439  1.0000
  N   N47       1.0  0.42676  0.34576  0.88282  1.0000
  H   H1513     1.0  0.46827  0.64029  0.95033  1.0000
  H   H1514     1.0  0.49458  0.49810  0.83260  1.0000
  C   C862      1.0  0.48594  0.65072  0.72746  1.0000
  H   H1515     1.0  0.37629  0.50686  0.66103  1.0000
  H   H1516     1.0  0.48116  0.53118  0.78669  1.0000
  H   H1517     1.0  0.42161  0.51208  0.51488  1.0000
  S   S202      1.0  0.42091  0.64064  0.71419  1.0000
  H   H1518     1.0  0.39187  0.64380  0.94894  1.0000
  Fe  Fe104     1.0  0.39262  0.59881  0.57306  1.0000
  C   C863      1.0  0.41818  0.62405  0.68502  1.0000
  S   S203      1.0  0.40201  0.63492  0.84867  1.0000
  C   C864      1.0  0.32247  0.40711  0.59331  1.0000
  H   H1519     1.0  0.33928  0.53944  0.70345  1.0000
  H   H1520     1.0  0.34969  0.36707  0.74419  1.0000
  H   H1521     1.0  0.48722  0.62739  0.85532  1.0000
  C   C865      1.0  0.43389  0.61409  0.91857  1.0000
  H   H1522     1.0  0.33663  0.41665  0.59736  1.0000
  C   C866      1.0  0.43550  0.45497  0.82564  1.0000
  H   H1523     1.0  0.36947  0.59488  0.94961  1.0000
  H   H1524     1.0  0.34045  0.42041  0.54902  1.0000
  H   H1525     1.0  0.31319  0.41751  0.53885  1.0000
  H   H1526     1.0  0.30287  0.43528  0.57619  1.0000
  H   H1527     1.0  0.30455  0.37937  0.80922  1.0000
  C   C867      1.0  0.35766  0.57858  0.69138  1.0000
  S   S204      1.0  0.42959  0.62048  0.97433  1.0000
  H   H1528     1.0  0.37453  0.52452  0.84344  1.0000
  H   H1529     1.0  0.35555  0.65150  0.75658  1.0000
  H   H1530     1.0  0.40582  0.37203  0.86594  1.0000
  H   H1531     1.0  0.35489  0.33289  0.69259  1.0000
  C   C868      1.0  0.34633  0.54380  0.65126  1.0000
  C   C869      1.0  0.35634  0.52199  0.74942  1.0000
  H   H1532     1.0  0.28714  0.41462  0.58993  1.0000
  H   H1533     1.0  0.44844  0.60410  0.92391  1.0000
  C   C870      1.0  0.35783  0.53125  0.98866  1.0000
  H   H1534     1.0  0.30477  0.63530  0.62693  1.0000
  H   H1535     1.0  0.35052  0.64557  0.65805  1.0000
  H   H1536     1.0  0.34443  0.58364  0.67660  1.0000
  C   C871      1.0  0.42702  0.47731  0.54754  1.0000
  C   C872      1.0  0.35480  0.53014  0.69789  1.0000
  H   H1537     1.0  0.49299  0.33858  0.86464  1.0000
  H   H1538     1.0  0.38276  0.51606  0.72169  1.0000
  H   H1539     1.0  0.32111  0.39711  0.61199  1.0000
  N   N48       1.0  0.36436  0.53951  0.67237  1.0000
  N   N49       1.0  0.32547  0.36636  0.77641  1.0000
  H   H1540     1.0  0.35206  0.55332  0.63362  1.0000
  C   C873      1.0  0.37365  0.56076  0.67837  1.0000
  H   H1541     1.0  0.37236  0.45882  0.52714  1.0000
  C   C874      1.0  0.40495  0.52369  0.66996  1.0000
  C   C875      1.0  0.41856  0.50354  0.65985  1.0000
  C   C876      1.0  0.36895  0.59876  0.69887  1.0000
  H   H1542     1.0  0.38000  0.56729  0.65887  1.0000
  H   H1543     1.0  0.38794  0.55869  0.69240  1.0000
  H   H1544     1.0  0.38241  0.52663  0.63667  1.0000
  H   H1545     1.0  0.41223  0.53796  0.66158  1.0000
  H   H1546     1.0  0.40634  0.52443  0.69276  1.0000
  H   H1547     1.0  0.41294  0.48892  0.66957  1.0000
  H   H1548     1.0  0.41726  0.50171  0.63701  1.0000
  H   H1549     1.0  0.43582  0.50463  0.66564  1.0000
  S   S205      1.0  0.35708  0.60771  0.56709  1.0000
  H   H1550     1.0  0.37507  0.60607  0.67987  1.0000
  H   H1551     1.0  0.35728  0.61083  0.70897  1.0000
  H   H1552     1.0  0.34748  0.36446  0.55739  1.0000
  S   S206      1.0  0.47025  0.41815  0.91827  1.0000
  H   H1553     1.0  0.27844  0.34069  0.59149  1.0000
  C   C877      1.0  0.41119  0.59776  0.63873  1.0000
  C   C878      1.0  0.37111  0.51602  0.97341  1.0000
  H   H1554     1.0  0.29325  0.39023  0.55548  1.0000
  N   N50       1.0  0.32660  0.39323  0.56771  1.0000
  H   H1555     1.0  0.40919  0.47826  0.54841  1.0000
  H   H1556     1.0  0.39245  0.36537  0.78430  1.0000
  S   S207      1.0  0.40329  0.62962  0.55613  1.0000
  H   H1557     1.0  0.42632  0.36183  0.84280  1.0000
  H   H1558     1.0  0.35564  0.38145  0.77449  1.0000
  H   H1559     1.0  0.30993  0.41240  0.77240  1.0000
  C   C879      1.0  0.41196  0.32881  0.87360  1.0000
  H   H1560     1.0  0.46144  0.52820  0.56825  1.0000
  H   H1561     1.0  0.34960  0.50623  0.74545  1.0000
  H   H1562     1.0  0.34133  0.36438  0.61172  1.0000
  H   H1563     1.0  0.44343  0.50377  0.98381  1.0000
  H   H1564     1.0  0.35811  0.47881  0.56911  1.0000
  C   C880      1.0  0.43518  0.45483  0.55766  1.0000
  C   C881      1.0  0.45562  0.51829  0.51642  1.0000
  H   H1565     1.0  0.39587  0.33163  0.88386  1.0000
  H   H1566     1.0  0.45386  0.54844  0.85769  1.0000
  H   H1567     1.0  0.38928  0.53314  0.52817  1.0000
  H   H1568     1.0  0.29813  0.42480  0.63791  1.0000
  Fe  Fe105     1.0  0.40149  0.42835  0.97873  1.0000
  C   C882      1.0  0.45781  0.49332  0.90606  1.0000
  H   H1569     1.0  0.33046  0.33454  0.73636  1.0000
  C   C883      1.0  0.33408  0.36634  0.82950  1.0000
  H   H1570     1.0  0.38811  0.36226  0.59028  1.0000
  H   H1571     1.0  0.43869  0.61060  0.87456  1.0000
  H   H1572     1.0  0.33197  0.40566  0.74876  1.0000
  H   H1573     1.0  0.46495  0.53216  0.52232  1.0000
  C   C884      1.0  0.47982  0.49506  0.82028  1.0000
  H   H1574     1.0  0.35179  0.36725  0.82758  1.0000
  H   H1575     1.0  0.36151  0.38763  0.56343  1.0000
  H   H1576     1.0  0.31175  0.36941  0.54273  1.0000
  C   C885      1.0  0.29976  0.43585  0.62022  1.0000
  C   C886      1.0  0.34763  0.37907  0.57090  1.0000
  C   C887      1.0  0.43712  0.38448  0.87237  1.0000
  Fe  Fe106     1.0  0.40382  0.61319  0.51446  1.0000
  H   H1577     1.0  0.32782  0.39382  0.80399  1.0000
  C   C888      1.0  0.42831  0.61760  0.89062  1.0000
  C   C889      1.0  0.43210  0.40344  0.85290  1.0000
  H   H1578     1.0  0.41557  0.45199  0.78866  1.0000
  C   C890      1.0  0.32057  0.63551  0.61625  1.0000
  S   S208      1.0  0.42897  0.44895  0.97156  1.0000
  C   C891      1.0  0.31635  0.33203  0.74951  1.0000
  H   H1579     1.0  0.43224  0.47848  0.52567  1.0000
  H   H1580     1.0  0.46252  0.50993  0.86846  1.0000
  H   H1581     1.0  0.46790  0.50922  0.82394  1.0000
  H   H1582     1.0  0.47178  0.62805  0.90264  1.0000
  H   H1583     1.0  0.40369  0.44349  0.82014  1.0000
  C   C892      1.0  0.42088  0.62359  0.93970  1.0000
  H   H1584     1.0  0.39871  0.62709  0.61871  1.0000
  H   H1585     1.0  0.43372  0.39071  0.89356  1.0000
  H   H1586     1.0  0.45468  0.37948  0.87076  1.0000
  C   C893      1.0  0.48599  0.63739  0.89919  1.0000
  Fe  Fe107     1.0  0.36781  0.63763  0.54729  1.0000
  H   H1587     1.0  0.38263  0.59485  0.71352  1.0000
  C   C894      1.0  0.40945  0.63035  0.88359  1.0000
  C   C895      1.0  0.31825  0.52994  0.61838  1.0000
  H   H1588     1.0  0.34820  0.47612  0.82929  1.0000
  H   H1589     1.0  0.36305  0.34250  0.79774  1.0000
  H   H1590     1.0  0.43767  0.39923  0.83154  1.0000
  H   H1591     1.0  0.41449  0.40849  0.85249  1.0000
  H   H1592     1.0  0.46756  0.34678  0.95977  1.0000
  H   H1593     1.0  0.45093  0.65243  0.87311  1.0000
  H   H1594     1.0  0.38151  0.64938  0.89947  1.0000
  N   N51       1.0  0.38800  0.56192  0.87552  1.0000
  C   C896      1.0  0.41143  0.56316  0.86760  1.0000
  C   C897      1.0  0.37306  0.57079  0.85251  1.0000
  C   C898      1.0  0.38385  0.57615  0.90083  1.0000
  C   C899      1.0  0.38322  0.53930  0.88285  1.0000
  C   C900      1.0  0.38719  0.52198  0.85977  1.0000
  C   C901      1.0  0.42870  0.55437  0.88908  1.0000
  C   C902      1.0  0.36027  0.57821  0.91191  1.0000
  C   C903      1.0  0.38095  0.56710  0.82222  1.0000
  C   C904      1.0  0.36318  0.57402  0.80122  1.0000
  C   C905      1.0  0.45162  0.55631  0.87838  1.0000
  C   C906      1.0  0.35703  0.59670  0.93295  1.0000
  H   H1595     1.0  0.41436  0.58020  0.86297  1.0000
  H   H1596     1.0  0.41535  0.55414  0.84815  1.0000
  H   H1597     1.0  0.35692  0.56425  0.85416  1.0000
  H   H1598     1.0  0.36996  0.58868  0.85465  1.0000
  H   H1599     1.0  0.38862  0.59269  0.89657  1.0000
  H   H1600     1.0  0.39397  0.57019  0.91868  1.0000
  H   H1601     1.0  0.41404  0.32995  0.97757  1.0000
  H   H1602     1.0  0.40339  0.52228  0.85028  1.0000
  H   H1603     1.0  0.35820  0.61246  0.92265  1.0000
  H   H1604     1.0  0.42738  0.56342  0.90898  1.0000
  H   H1605     1.0  0.42708  0.53707  0.89315  1.0000
  H   H1606     1.0  0.35684  0.56311  0.92261  1.0000
  H   H1607     1.0  0.34810  0.58137  0.89517  1.0000
  H   H1608     1.0  0.39475  0.57692  0.81849  1.0000
  H   H1609     1.0  0.38647  0.55007  0.81781  1.0000
  H   H1610     1.0  0.34915  0.56417  0.80353  1.0000
  H   H1611     1.0  0.35775  0.59138  0.80406  1.0000
  H   H1612     1.0  0.36963  0.57160  0.77987  1.0000
  C   C907      1.0  0.32888  0.40821  0.54354  1.0000
  C   C908      1.0  0.45016  0.33678  0.88302  1.0000
  H   H1613     1.0  0.40567  0.65033  0.65944  1.0000
  H   H1614     1.0  0.38878  0.57376  0.98551  1.0000
  C   C909      1.0  0.38383  0.55769  0.98253  1.0000
  H   H1615     1.0  0.43844  0.48915  0.82104  1.0000
  H   H1616     1.0  0.40445  0.47186  0.81349  1.0000
  C   C910      1.0  0.47227  0.65738  0.95074  1.0000
  H   H1617     1.0  0.30983  0.37653  0.86064  1.0000
  C   C911      1.0  0.38816  0.35164  0.77103  1.0000
  H   H1618     1.0  0.46048  0.34838  0.89318  1.0000
  H   H1619     1.0  0.36155  0.33252  0.76305  1.0000
  H   H1620     1.0  0.47183  0.49362  0.77562  1.0000
  C   C912      1.0  0.42320  0.36563  0.86499  1.0000
  C   C913      1.0  0.28204  0.35248  0.57533  1.0000
  H   H1621     1.0  0.32289  0.65148  0.66632  1.0000
  H   H1622     1.0  0.49148  0.59408  0.88326  1.0000
  H   H1623     1.0  0.49520  0.33609  0.59019  1.0000
  H   H1624     1.0  0.37441  0.64477  0.72904  1.0000
  C   C914      1.0  0.33112  0.65625  0.62323  1.0000
  C   C915      1.0  0.33648  0.65773  0.65465  1.0000
  C   C916      1.0  0.36324  0.65788  0.73796  1.0000
  H   H1625     1.0  0.47272  0.66024  0.85286  1.0000
  H   H1626     1.0  0.46838  0.65529  0.72419  1.0000
  H   H1627     1.0  0.45797  0.34350  0.83939  1.0000
  H   H1628     1.0  0.49668  0.63399  0.91743  1.0000
  H   H1629     1.0  0.35294  0.38893  0.51769  1.0000
  S   S209      1.0  0.36915  0.62356  0.50421  1.0000
  C   C917      1.0  0.33656  0.39747  0.51565  1.0000
  H   H1630     1.0  0.39571  0.34195  0.83604  1.0000
  H   H1631     1.0  0.34626  0.65606  0.61113  1.0000
  C   C918      1.0  0.46025  0.33026  0.85463  1.0000
  C   C919      1.0  0.31782  0.34396  0.77778  1.0000
  H   H1632     1.0  0.44066  0.65624  0.51360  1.0000
  H   H1633     1.0  0.34834  0.42702  0.49943  1.0000
  N   N52       1.0  0.47858  0.66109  0.89728  1.0000
  H   H1634     1.0  0.34254  0.52689  0.99664  1.0000
  Fe  Fe108     1.0  0.43201  0.91183  0.05036  1.0000
  S   S210      1.0  0.39764  0.90300  0.04911  1.0000
  C   C920      1.0  0.39297  0.98963  0.12367  1.0000
  C   C921      1.0  0.32467  0.81834  0.15220  1.0000
  S   S211      1.0  0.41771  0.85276  0.04224  1.0000
  H   H1635     1.0  0.44548  0.69972  0.37005  1.0000
  S   S212      1.0  0.37918  0.89494  0.47314  1.0000
  Fe  Fe109     1.0  0.40968  0.87600  0.07719  1.0000
  S   S213      1.0  0.38976  0.86613  0.11330  1.0000
  H   H1636     1.0  0.44857  0.66216  0.38832  1.0000
  C   C922      1.0  0.33303  0.91026  0.18479  1.0000
  Fe  Fe110     1.0  0.38477  0.91811  0.31671  1.0000
  S   S214      1.0  0.35069  0.93181  0.32447  1.0000
  S   S215      1.0  0.40909  0.90574  0.34906  1.0000
  Fe  Fe111     1.0  0.38160  0.92648  0.25478  1.0000
  S   S216      1.0  0.34722  0.94076  0.25750  1.0000
  S   S217      1.0  0.40081  0.92858  0.21557  1.0000
  Fe  Fe112     1.0  0.35846  0.95815  0.29524  1.0000
  C   C923      1.0  0.27584  0.73198  0.23145  1.0000
  Fe  Fe113     1.0  0.34270  0.91308  0.28623  1.0000
  S   S218      1.0  0.31220  0.89558  0.28119  1.0000
  S   S219      1.0  0.39316  0.94585  0.29058  1.0000
  S   S220      1.0  0.37641  0.89740  0.28029  1.0000
  S   S221      1.0  0.27692  0.72358  0.11238  1.0000
  S   S222      1.0  0.29743  0.80868  0.34418  1.0000
  H   H1637     1.0  0.30447  0.83912  0.04693  1.0000
  H   H1638     1.0  0.26500  0.90396  0.35696  1.0000
  H   H1639     1.0  0.33656  0.89917  0.04366  1.0000
  H   H1640     1.0  0.26104  0.70779  0.38284  1.0000
  N   N53       1.0  0.31769  0.87325  0.19295  1.0000
  H   H1641     1.0  0.47568  0.66877  0.42799  1.0000
  H   H1642     1.0  0.32748  0.90753  0.46825  1.0000
  C   C924      1.0  0.37596  0.81734  0.07578  1.0000
  H   H1643     1.0  0.27912  0.82090  0.40656  1.0000
  S   S223      1.0  0.26551  0.81891  0.16659  1.0000
  H   H1644     1.0  0.27993  0.73171  0.17673  1.0000
  S   S224      1.0  0.34717  0.68158  0.02864  1.0000
  H   H1645     1.0  0.30687  0.81046  0.41099  1.0000
  H   H1646     1.0  0.37605  0.97621  0.00544  1.0000
  H   H1647     1.0  0.28647  0.71677  0.00470  1.0000
  H   H1648     1.0  0.39113  0.97304  0.08286  1.0000
  C   C925      1.0  0.32739  0.88813  0.17271  1.0000
  H   H1649     1.0  0.36658  0.87033  0.36957  1.0000
  C   C926      1.0  0.34976  0.84332  0.25384  1.0000
  H   H1650     1.0  0.47976  0.96123  0.20894  1.0000
  H   H1651     1.0  0.42352  0.98712  0.25251  1.0000
  H   H1652     1.0  0.47966  0.79991  0.23834  1.0000
  Fe  Fe114     1.0  0.26236  0.80105  0.34541  1.0000
  H   H1653     1.0  0.25987  0.74853  0.26756  1.0000
  C   C927      1.0  0.46422  0.98632  0.11303  1.0000
  H   H1654     1.0  0.25365  0.67470  0.43589  1.0000
  S   S225      1.0  0.24785  0.78524  0.38205  1.0000
  C   C928      1.0  0.40168  0.70439  0.41113  1.0000
  C   C929      1.0  0.32848  0.69318  0.05302  1.0000
  C   C930      1.0  0.31955  0.71443  0.04894  1.0000
  C   C931      1.0  0.30393  0.72397  0.06724  1.0000
  C   C932      1.0  0.29711  0.71227  0.08975  1.0000
  C   C933      1.0  0.30617  0.69110  0.09399  1.0000
  C   C934      1.0  0.32183  0.68155  0.07567  1.0000
  H   H1655     1.0  0.32470  0.72352  0.03151  1.0000
  H   H1656     1.0  0.29702  0.74030  0.06381  1.0000
  H   H1657     1.0  0.30092  0.68197  0.11133  1.0000
  H   H1658     1.0  0.38537  0.98758  0.22554  1.0000
  C   C935      1.0  0.30879  0.87127  0.29872  1.0000
  C   C936      1.0  0.28924  0.86166  0.29528  1.0000
  C   C937      1.0  0.28588  0.84225  0.30861  1.0000
  C   C938      1.0  0.30204  0.83220  0.32553  1.0000
  C   C939      1.0  0.32192  0.84133  0.32817  1.0000
  C   C940      1.0  0.32524  0.86095  0.31507  1.0000
  H   H1659     1.0  0.27648  0.86939  0.28256  1.0000
  H   H1660     1.0  0.27073  0.83512  0.30578  1.0000
  H   H1661     1.0  0.33468  0.83332  0.34063  1.0000
  H   H1662     1.0  0.34051  0.86805  0.31755  1.0000
  S   S226      1.0  0.28219  0.78568  0.10192  1.0000
  H   H1663     1.0  0.45357  0.95263  0.40130  1.0000
  S   S227      1.0  0.44232  0.89154  0.01322  1.0000
  S   S228      1.0  0.44354  0.88626  0.08124  1.0000
  H   H1664     1.0  0.34925  0.72336  0.48695  1.0000
  H   H1665     1.0  0.42940  0.68222  0.35005  1.0000
  C   C941      1.0  0.39394  0.88253  0.14237  1.0000
  C   C942      1.0  0.40379  0.90173  0.13919  1.0000
  C   C943      1.0  0.40609  0.91544  0.16202  1.0000
  C   C944      1.0  0.39839  0.91019  0.18811  1.0000
  C   C945      1.0  0.38895  0.89072  0.19157  1.0000
  C   C946      1.0  0.38685  0.87682  0.16867  1.0000
  H   H1666     1.0  0.40931  0.90626  0.11901  1.0000
  H   H1667     1.0  0.41343  0.93041  0.15921  1.0000
  H   H1668     1.0  0.38342  0.88642  0.21185  1.0000
  H   H1669     1.0  0.37973  0.86169  0.17126  1.0000
  C   C947      1.0  0.38769  0.89799  0.43879  1.0000
  C   C948      1.0  0.40859  0.89060  0.43049  1.0000
  C   C949      1.0  0.41476  0.89257  0.40271  1.0000
  C   C950      1.0  0.40018  0.90214  0.38318  1.0000
  C   C951      1.0  0.37929  0.90964  0.39154  1.0000
  C   C952      1.0  0.37305  0.90746  0.41925  1.0000
  H   H1670     1.0  0.41988  0.88303  0.44535  1.0000
  H   H1671     1.0  0.43096  0.88680  0.39639  1.0000
  H   H1672     1.0  0.36796  0.91713  0.37675  1.0000
  H   H1673     1.0  0.35689  0.91329  0.42564  1.0000
  C   C953      1.0  0.42565  0.96592  0.03561  1.0000
  H   H1674     1.0  0.39719  0.94844  0.03337  1.0000
  H   H1675     1.0  0.31860  0.91950  0.19372  1.0000
  C   C954      1.0  0.44339  0.95283  0.42012  1.0000
  C   C955      1.0  0.46688  0.67153  0.22956  1.0000
  H   H1676     1.0  0.42871  0.97340  0.30990  1.0000
  H   H1677     1.0  0.27026  0.80663  0.45287  1.0000
  H   H1678     1.0  0.30373  0.84242  0.19043  1.0000
  H   H1679     1.0  0.30024  0.85805  0.16018  1.0000
  C   C956      1.0  0.49469  0.83726  0.08831  1.0000
  H   H1680     1.0  0.34265  0.88046  0.16386  1.0000
  H   H1681     1.0  0.37050  0.85808  0.40318  1.0000
  H   H1682     1.0  0.39364  0.97227  0.19492  1.0000
  C   C957      1.0  0.38674  0.80606  0.10096  1.0000
  H   H1683     1.0  0.49028  0.67116  0.35679  1.0000
  H   H1684     1.0  0.31940  0.85367  0.10496  1.0000
  H   H1685     1.0  0.30999  0.82136  0.07473  1.0000
  H   H1686     1.0  0.28172  0.78578  0.42987  1.0000
  H   H1687     1.0  0.33255  0.89857  0.00654  1.0000
  H   H1688     1.0  0.31625  0.89133  0.15466  1.0000
  C   C958      1.0  0.34261  0.68540  0.46729  1.0000
  H   H1689     1.0  0.31843  0.80856  0.16911  1.0000
  C   C959      1.0  0.29738  0.88532  0.20450  1.0000
  H   H1690     1.0  0.32884  0.82466  0.01557  1.0000
  H   H1691     1.0  0.26669  0.89546  0.24558  1.0000
  H   H1692     1.0  0.29378  0.72582  0.47222  1.0000
  H   H1693     1.0  0.34420  0.80930  0.08917  1.0000
  C   C960      1.0  0.44621  0.68562  0.35570  1.0000
  C   C961      1.0  0.34730  0.85448  0.04953  1.0000
  H   H1694     1.0  0.46572  0.93439  0.24627  1.0000
  S   S229      1.0  0.27773  0.80829  0.02639  1.0000
  H   H1695     1.0  0.33878  0.80896  0.14265  1.0000
  H   H1696     1.0  0.24916  0.82373  0.26607  1.0000
  C   C962      1.0  0.28324  0.88524  0.38839  1.0000
  H   H1697     1.0  0.41221  0.99157  0.43172  1.0000
  C   C963      1.0  0.24955  0.71921  0.43733  1.0000
  H   H1698     1.0  0.25154  0.88139  0.36975  1.0000
  H   H1699     1.0  0.36052  0.84288  0.37432  1.0000
  C   C964      1.0  0.30904  0.85500  0.08621  1.0000
  H   H1700     1.0  0.37309  0.72223  0.45113  1.0000
  C   C965      1.0  0.26746  0.88693  0.36386  1.0000
  H   H1701     1.0  0.28948  0.89626  0.18851  1.0000
  C   C966      1.0  0.27904  0.87186  0.21456  1.0000
  H   H1702     1.0  0.42527  0.81025  0.00244  1.0000
  H   H1703     1.0  0.33844  0.84848  0.14633  1.0000
  H   H1704     1.0  0.28499  0.85993  0.23017  1.0000
  H   H1705     1.0  0.27057  0.85798  0.40662  1.0000
  H   H1706     1.0  0.32049  0.79352  0.04813  1.0000
  C   C967      1.0  0.35160  0.82374  0.08122  1.0000
  H   H1707     1.0  0.28196  0.70346  0.42723  1.0000
  H   H1708     1.0  0.27876  0.69211  0.46957  1.0000
  C   C968      1.0  0.37918  0.95294  0.11391  1.0000
  H   H1709     1.0  0.38125  0.94935  0.13632  1.0000
  H   H1710     1.0  0.45832  0.70630  0.22998  1.0000
  C   C969      1.0  0.40965  0.98638  0.34478  1.0000
  N   N54       1.0  0.30399  0.85685  0.42108  1.0000
  C   C970      1.0  0.30524  0.87603  0.44031  1.0000
  C   C971      1.0  0.34811  0.97121  0.41203  1.0000
  C   C972      1.0  0.29723  0.83836  0.43829  1.0000
  H   H1711     1.0  0.31086  0.87091  0.07666  1.0000
  H   H1712     1.0  0.33911  0.85899  0.00551  1.0000
  C   C973      1.0  0.32212  0.87340  0.46427  1.0000
  C   C974      1.0  0.29231  0.81759  0.42204  1.0000
  H   H1713     1.0  0.35111  0.83538  0.09888  1.0000
  H   H1714     1.0  0.35293  0.85769  0.26657  1.0000
  C   C975      1.0  0.46277  0.96789  0.20501  1.0000
  H   H1715     1.0  0.28906  0.88034  0.44977  1.0000
  H   H1716     1.0  0.30905  0.89060  0.42883  1.0000
  H   H1717     1.0  0.40440  0.69264  0.39373  1.0000
  H   H1718     1.0  0.38230  0.93771  0.10186  1.0000
  H   H1719     1.0  0.28249  0.84367  0.45057  1.0000
  H   H1720     1.0  0.31004  0.83316  0.45366  1.0000
  H   H1721     1.0  0.31522  0.72354  0.15366  1.0000
  H   H1722     1.0  0.34551  0.90802  0.20137  1.0000
  H   H1723     1.0  0.33774  0.88222  0.40430  1.0000
  H   H1724     1.0  0.44866  0.91786  0.42424  1.0000
  H   H1725     1.0  0.31179  0.82121  0.13622  1.0000
  H   H1726     1.0  0.33871  0.86952  0.45612  1.0000
  H   H1727     1.0  0.28593  0.72089  0.38234  1.0000
  H   H1728     1.0  0.27409  0.87700  0.34623  1.0000
  H   H1729     1.0  0.36218  0.95940  0.11002  1.0000
  H   H1730     1.0  0.34482  0.83587  0.17890  1.0000
  S   S230      1.0  0.47919  0.84107  0.03430  1.0000
  H   H1731     1.0  0.28127  0.86849  0.10979  1.0000
  C   C976      1.0  0.34047  0.81851  0.03199  1.0000
  H   H1732     1.0  0.26053  0.73677  0.38676  1.0000
  C   C977      1.0  0.33392  0.66453  0.45673  1.0000
  Fe  Fe115     1.0  0.45070  0.86505  0.04393  1.0000
  C   C978      1.0  0.31215  0.85343  0.17699  1.0000
  C   C979      1.0  0.46206  0.66788  0.19832  1.0000
  C   C980      1.0  0.27619  0.68529  0.01056  1.0000
  C   C981      1.0  0.40440  0.96294  0.02757  1.0000
  H   H1733     1.0  0.35673  0.81859  0.02229  1.0000
  H   H1734     1.0  0.37459  0.66838  0.46950  1.0000
  C   C982      1.0  0.46309  0.96887  0.25676  1.0000
  C   C983      1.0  0.49382  0.85385  0.46789  1.0000
  H   H1735     1.0  0.42347  0.96409  0.23126  1.0000
  C   C984      1.0  0.31517  0.83638  0.06539  1.0000
  H   H1736     1.0  0.37850  0.80632  0.05771  1.0000
  H   H1737     1.0  0.33661  0.74086  0.16013  1.0000
  H   H1738     1.0  0.43600  0.97852  0.13519  1.0000
  C   C985      1.0  0.49397  0.66851  0.29997  1.0000
  H   H1739     1.0  0.25879  0.71633  0.29700  1.0000
  H   H1740     1.0  0.35064  0.86473  0.20661  1.0000
  C   C986      1.0  0.28546  0.85481  0.09533  1.0000
  H   H1741     1.0  0.39444  0.98061  0.33618  1.0000
  C   C987      1.0  0.38537  0.70974  0.45939  1.0000
  C   C988      1.0  0.39040  0.69374  0.43483  1.0000
  Fe  Fe116     1.0  0.26191  0.79668  0.06495  1.0000
  C   C989      1.0  0.39239  0.97878  0.01198  1.0000
  C   C990      1.0  0.26124  0.69239  0.47416  1.0000
  H   H1742     1.0  0.32942  0.92844  0.14628  1.0000
  C   C991      1.0  0.27198  0.71877  0.42335  1.0000
  H   H1743     1.0  0.31801  0.66828  0.44637  1.0000
  H   H1744     1.0  0.48723  0.76127  0.13584  1.0000
  H   H1745     1.0  0.37822  0.98358  0.37891  1.0000
  H   H1746     1.0  0.40089  0.67937  0.44104  1.0000
  H   H1747     1.0  0.27110  0.69935  0.26991  1.0000
  H   H1748     1.0  0.36451  0.83808  0.24177  1.0000
  H   H1749     1.0  0.34624  0.83012  0.26808  1.0000
  H   H1750     1.0  0.37521  0.68801  0.42627  1.0000
  C   C992      1.0  0.36507  0.68099  0.48156  1.0000
  H   H1751     1.0  0.40006  0.71852  0.46332  1.0000
  C   C993      1.0  0.45012  0.94935  0.19295  1.0000
  C   C994      1.0  0.33042  0.84850  0.23448  1.0000
  C   C995      1.0  0.28519  0.80047  0.44180  1.0000
  H   H1752     1.0  0.28895  0.76330  0.49184  1.0000
  H   H1753     1.0  0.41766  0.70941  0.41808  1.0000
  H   H1754     1.0  0.27437  0.85641  0.07709  1.0000
  H   H1755     1.0  0.40427  0.80225  0.09685  1.0000
  C   C996      1.0  0.39486  0.96920  0.10481  1.0000
  C   C997      1.0  0.46316  0.93658  0.17058  1.0000
  C   C998      1.0  0.38582  0.97003  0.39151  1.0000
  N   N55       1.0  0.27205  0.75144  0.21312  1.0000
  C   C999      1.0  0.26103  0.69070  0.03498  1.0000
  C   C1000     1.0  0.27867  0.77187  0.22699  1.0000
  C   C1001     1.0  0.28381  0.74743  0.18597  1.0000
  H   H1756     1.0  0.48148  0.84882  0.09422  1.0000
  H   H1757     1.0  0.28286  0.83956  0.10621  1.0000
  C   C1002     1.0  0.32236  0.89423  0.48130  1.0000
  C   C1003     1.0  0.30877  0.74709  0.18707  1.0000
  C   C1004     1.0  0.29815  0.76993  0.24764  1.0000
  C   C1005     1.0  0.30388  0.79223  0.25745  1.0000
  H   H1758     1.0  0.45405  0.67935  0.14433  1.0000
  C   C1006     1.0  0.32562  0.84985  0.40825  1.0000
  C   C1007     1.0  0.31876  0.74030  0.15909  1.0000
  C   C1008     1.0  0.43463  0.98512  0.02862  1.0000
  H   H1759     1.0  0.43470  0.95598  0.18331  1.0000
  H   H1760     1.0  0.28187  0.78396  0.21090  1.0000
  H   H1761     1.0  0.45374  0.92342  0.16244  1.0000
  H   H1762     1.0  0.27813  0.75996  0.17048  1.0000
  H   H1763     1.0  0.33889  0.97070  0.43166  1.0000
  C   C1009     1.0  0.33604  0.79466  0.03728  1.0000
  H   H1764     1.0  0.29306  0.72969  0.23810  1.0000
  Fe  Fe117     1.0  0.40874  0.88062  0.01416  1.0000
  H   H1765     1.0  0.34904  0.78641  0.05022  1.0000
  H   H1766     1.0  0.44525  0.66280  0.19691  1.0000
  C   C1010     1.0  0.25610  0.82215  0.22217  1.0000
  H   H1767     1.0  0.31567  0.73554  0.20284  1.0000
  H   H1768     1.0  0.31368  0.76350  0.19183  1.0000
  H   H1769     1.0  0.29406  0.76094  0.26641  1.0000
  H   H1770     1.0  0.31283  0.76145  0.23853  1.0000
  H   H1771     1.0  0.31764  0.79051  0.27241  1.0000
  H   H1772     1.0  0.30864  0.80194  0.23963  1.0000
  H   H1773     1.0  0.28988  0.80096  0.26815  1.0000
  H   H1774     1.0  0.44076  0.93207  0.45601  1.0000
  H   H1775     1.0  0.34424  0.95731  0.39877  1.0000
  H   H1776     1.0  0.27197  0.86327  0.19681  1.0000
  C   C1011     1.0  0.28397  0.72894  0.49110  1.0000
  C   C1012     1.0  0.34197  0.92423  0.16234  1.0000
  H   H1777     1.0  0.30154  0.89610  0.22196  1.0000
  H   H1778     1.0  0.27607  0.89594  0.40510  1.0000
  C   C1013     1.0  0.46664  0.93745  0.29029  1.0000
  C   C1014     1.0  0.45378  0.69163  0.24073  1.0000
  H   H1779     1.0  0.26043  0.68918  0.49682  1.0000
  C   C1015     1.0  0.35997  0.85903  0.38438  1.0000
  C   C1016     1.0  0.28680  0.86166  0.39892  1.0000
  C   C1017     1.0  0.48165  0.66947  0.37668  1.0000
  C   C1018     1.0  0.46398  0.66554  0.13503  1.0000
  N   N56       1.0  0.45368  0.97941  0.23073  1.0000
  H   H1780     1.0  0.44656  0.96687  0.43348  1.0000
  H   H1781     1.0  0.38458  0.83187  0.07188  1.0000
  S   S231      1.0  0.44099  0.94622  0.05515  1.0000
  H   H1782     1.0  0.32784  0.87098  0.37258  1.0000
  H   H1783     1.0  0.28616  0.71971  0.28660  1.0000
  C   C1019     1.0  0.40521  0.98046  0.48889  1.0000
  H   H1784     1.0  0.27347  0.71689  0.21968  1.0000
  H   H1785     1.0  0.41787  0.95350  0.35779  1.0000
  H   H1786     1.0  0.46255  0.92060  0.29355  1.0000
  H   H1787     1.0  0.31227  0.75130  0.14241  1.0000
  H   H1788     1.0  0.47570  0.98020  0.12948  1.0000
  H   H1789     1.0  0.49733  0.80386  0.26778  1.0000
  H   H1790     1.0  0.35877  0.89054  0.02100  1.0000
  H   H1791     1.0  0.39151  0.71867  0.40338  1.0000
  H   H1792     1.0  0.32394  0.83644  0.39316  1.0000
  H   H1793     1.0  0.37619  0.95485  0.43027  1.0000
  H   H1794     1.0  0.45703  0.69355  0.26325  1.0000
  H   H1795     1.0  0.44013  0.94368  0.26203  1.0000
  H   H1796     1.0  0.38515  0.81674  0.11957  1.0000
  H   H1797     1.0  0.43615  0.69007  0.23782  1.0000
  C   C1020     1.0  0.42927  0.98042  0.23208  1.0000
  C   C1021     1.0  0.45051  0.93264  0.43680  1.0000
  H   H1798     1.0  0.45101  0.98762  0.03505  1.0000
  H   H1799     1.0  0.31614  0.85229  0.24765  1.0000
  H   H1800     1.0  0.44603  0.93783  0.20898  1.0000
  C   C1022     1.0  0.45780  0.94535  0.26212  1.0000
  H   H1801     1.0  0.28171  0.86199  0.01031  1.0000
  H   H1802     1.0  0.34341  0.69659  0.44959  1.0000
  H   H1803     1.0  0.39056  0.97633  0.47855  1.0000
  H   H1804     1.0  0.27264  0.82604  0.22489  1.0000
  H   H1805     1.0  0.47805  0.66686  0.29156  1.0000
  H   H1806     1.0  0.35635  0.91568  0.15231  1.0000
  C   C1023     1.0  0.26124  0.73238  0.25753  1.0000
  H   H1807     1.0  0.41080  0.95373  0.43310  1.0000
  H   H1808     1.0  0.49177  0.82506  0.24281  1.0000
  C   C1024     1.0  0.41901  0.95356  0.41268  1.0000
  H   H1809     1.0  0.34702  0.93938  0.17185  1.0000
  H   H1810     1.0  0.45786  0.97882  0.27526  1.0000
  H   H1811     1.0  0.41593  0.93803  0.40254  1.0000
  N   N57       1.0  0.33869  0.83330  0.05700  1.0000
  H   H1812     1.0  0.47965  0.67089  0.12795  1.0000
  H   H1813     1.0  0.37934  0.79077  0.10522  1.0000
  H   H1814     1.0  0.45933  0.94759  0.30740  1.0000
  H   H1815     1.0  0.46780  0.93291  0.44292  1.0000
  H   H1816     1.0  0.28999  0.85086  0.38056  1.0000
  H   H1817     1.0  0.28067  0.73257  0.43093  1.0000
  H   H1818     1.0  0.42032  0.67785  0.47746  1.0000
  H   H1819     1.0  0.29851  0.89162  0.38180  1.0000
  H   H1820     1.0  0.46115  0.68378  0.18802  1.0000
  H   H1821     1.0  0.26508  0.77970  0.23944  1.0000
  H   H1822     1.0  0.33199  0.76502  0.01445  1.0000
  H   H1823     1.0  0.34794  0.86512  0.06819  1.0000
  H   H1824     1.0  0.33554  0.88202  0.22969  1.0000
  C   C1025     1.0  0.49450  0.80730  0.24539  1.0000
  H   H1825     1.0  0.26601  0.70493  0.04671  1.0000
  C   C1026     1.0  0.33679  0.86718  0.39212  1.0000
  H   H1826     1.0  0.33717  0.84300  0.42431  1.0000
  H   H1827     1.0  0.32814  0.83359  0.22250  1.0000
  H   H1828     1.0  0.43742  0.97109  0.36720  1.0000
  C   C1027     1.0  0.33420  0.86789  0.21564  1.0000
  H   H1829     1.0  0.38302  0.95500  0.37970  1.0000
  C   C1028     1.0  0.41969  0.96997  0.36643  1.0000
  C   C1029     1.0  0.42493  0.98910  0.32058  1.0000
  H   H1830     1.0  0.46665  0.94715  0.15303  1.0000
  H   H1831     1.0  0.46393  0.97946  0.18764  1.0000
  H   H1832     1.0  0.36442  0.85192  0.04258  1.0000
  C   C1030     1.0  0.33160  0.83973  0.16368  1.0000
  N   N58       1.0  0.40985  0.97212  0.39498  1.0000
  Fe  Fe118     1.0  0.25521  0.80181  0.12754  1.0000
  C   C1031     1.0  0.26966  0.72118  0.39193  1.0000
  H   H1833     1.0  0.41156  0.96118  0.10585  1.0000
  C   C1032     1.0  0.37236  0.96998  0.41855  1.0000
  H   H1834     1.0  0.47916  0.84480  0.46950  1.0000
  H   H1835     1.0  0.48135  0.68556  0.38702  1.0000
  H   H1836     1.0  0.26160  0.67680  0.04936  1.0000
  H   H1837     1.0  0.31724  0.86776  0.02827  1.0000
  Fe  Fe119     1.0  0.26259  0.75706  0.10183  1.0000
  N   N59       1.0  0.37766  0.70046  0.48619  1.0000
  H   H1838     1.0  0.48454  0.93774  0.29116  1.0000
  H   H1839     1.0  0.49387  0.99411  0.21731  1.0000
  H   H1840     1.0  0.34289  0.98650  0.40122  1.0000
  H   H1841     1.0  0.45474  0.68959  0.33644  1.0000
  H   H1842     1.0  0.42622  0.99162  0.08536  1.0000
  C   C1033     1.0  0.34112  0.89024  0.02423  1.0000
  C   C1034     1.0  0.33500  0.86700  0.02571  1.0000
  H   H1843     1.0  0.33070  0.69286  0.48244  1.0000
  H   H1844     1.0  0.48108  0.96826  0.25660  1.0000
  C   C1035     1.0  0.26061  0.88626  0.22769  1.0000
  C   C1036     1.0  0.26994  0.71588  0.27899  1.0000
  H   H1845     1.0  0.42539  0.99241  0.18912  1.0000
  H   H1846     1.0  0.44968  0.67209  0.09432  1.0000
  H   H1847     1.0  0.39978  0.98472  0.14428  1.0000
  H   H1848     1.0  0.37546  0.98394  0.43206  1.0000
  H   H1849     1.0  0.35044  0.78216  0.99856  1.0000
  H   H1850     1.0  0.48925  0.70324  0.30339  1.0000
  H   H1851     1.0  0.31825  0.86055  0.47877  1.0000
  H   H1852     1.0  0.46286  0.97333  0.09730  1.0000
  S   S232      1.0  0.34760  0.99281  0.30650  1.0000
  C   C1037     1.0  0.25928  0.73170  0.48472  1.0000
  H   H1853     1.0  0.29814  0.79597  0.45725  1.0000
  H   H1854     1.0  0.47863  0.92911  0.17930  1.0000
  H   H1855     1.0  0.48981  0.86806  0.45444  1.0000
  C   C1038     1.0  0.33497  0.78203  0.01003  1.0000
  C   C1039     1.0  0.49713  0.83086  0.06054  1.0000
  H   H1856     1.0  0.29239  0.67988  0.01920  1.0000
  C   C1040     1.0  0.45775  0.66578  0.36948  1.0000
  C   C1041     1.0  0.41325  0.99344  0.40891  1.0000
  N   N60       1.0  0.24957  0.71414  0.46791  1.0000
  H   H1857     1.0  0.25569  0.74764  0.47462  1.0000
  C   C1042     1.0  0.39375  0.98824  0.20535  1.0000
  C   C1043     1.0  0.25289  0.67270  0.45870  1.0000
  H   H1858     1.0  0.30613  0.89894  0.49013  1.0000
  H   H1859     1.0  0.48434  0.67322  0.23340  1.0000
  C   C1044     1.0  0.44209  0.99298  0.12569  1.0000
  C   C1045     1.0  0.41702  0.99423  0.20934  1.0000
  H   H1860     1.0  0.25309  0.89777  0.21222  1.0000
  H   H1861     1.0  0.37542  0.99390  0.12736  1.0000
  H   H1862     1.0  0.44883  0.99177  0.40085  1.0000
  H   H1863     1.0  0.49429  0.76761  0.18579  1.0000
  H   H1864     1.0  0.49094  0.69100  0.16180  1.0000
  H   H1865     1.0  0.32858  0.66515  0.07890  1.0000
  H   H1866     1.0  0.24800  0.87609  0.23527  1.0000
  C   C1046     1.0  0.24826  0.81787  0.19546  1.0000
  C   C1047     1.0  0.24823  0.75566  0.20613  1.0000
  H   H1867     1.0  0.26997  0.67152  0.99913  1.0000
  H   H1868     1.0  0.38331  0.74447  0.49460  1.0000
  C   C1048     1.0  0.41230  0.67499  0.49734  1.0000
  H   H1869     1.0  0.36122  0.98042  0.86938  1.0000
  S   S233      1.0  0.40272  0.91696  0.54068  1.0000
  H   H1870     1.0  0.29172  0.74573  0.98277  1.0000
  H   H1871     1.0  0.47107  0.97517  0.60893  1.0000
  S   S234      1.0  0.41033  0.86476  0.53543  1.0000
  H   H1872     1.0  0.38674  0.71504  0.62351  1.0000
  S   S235      1.0  0.38719  0.87526  0.97690  1.0000
  Fe  Fe120     1.0  0.41127  0.88943  0.56942  1.0000
  S   S236      1.0  0.39279  0.88307  0.60830  1.0000
  H   H1873     1.0  0.41663  0.80367  0.96755  1.0000
  H   H1874     1.0  0.29207  0.68668  0.90723  1.0000
  Fe  Fe121     1.0  0.40668  0.89969  0.82479  1.0000
  S   S237      1.0  0.37640  0.92067  0.83390  1.0000
  S   S238      1.0  0.42821  0.88369  0.85785  1.0000
  Fe  Fe122     1.0  0.40558  0.91093  0.76288  1.0000
  S   S239      1.0  0.37486  0.93260  0.76704  1.0000
  S   S240      1.0  0.42793  0.90981  0.72585  1.0000
  Fe  Fe123     1.0  0.38978  0.94512  0.80594  1.0000
  S   S241      1.0  0.39573  0.97883  0.82080  1.0000
  Fe  Fe124     1.0  0.36421  0.90605  0.79447  1.0000
  S   S242      1.0  0.33024  0.89515  0.79166  1.0000
  S   S243      1.0  0.42104  0.92504  0.80007  1.0000
  S   S244      1.0  0.39392  0.88337  0.78703  1.0000
  H   H1875     1.0  0.32477  0.70734  0.68640  1.0000
  S   S245      1.0  0.30730  0.80669  0.84494  1.0000
  H   H1876     1.0  0.43999  0.81430  0.63482  1.0000
  H   H1877     1.0  0.42469  0.93976  0.86005  1.0000
  H   H1878     1.0  0.47716  0.90218  0.61502  1.0000
  H   H1879     1.0  0.29599  0.68409  0.64526  1.0000
  H   H1880     1.0  0.28376  0.80918  0.67079  1.0000
  H   H1881     1.0  0.30762  0.87336  0.97441  1.0000
  H   H1882     1.0  0.43770  0.92384  0.88729  1.0000
  H   H1883     1.0  0.29410  0.83629  0.90998  1.0000
  H   H1884     1.0  0.48150  0.80515  0.60995  1.0000
  H   H1885     1.0  0.47150  0.85508  0.60466  1.0000
  H   H1886     1.0  0.27171  0.86036  0.93474  1.0000
  H   H1887     1.0  0.47627  0.98620  0.57548  1.0000
  H   H1888     1.0  0.33180  0.88049  0.90378  1.0000
  H   H1889     1.0  0.32097  0.67516  0.93137  1.0000
  C   C1049     1.0  0.46564  0.66833  0.92274  1.0000
  H   H1890     1.0  0.33021  0.87426  0.93944  1.0000
  H   H1891     1.0  0.49595  0.88547  0.97026  1.0000
  H   H1892     1.0  0.27944  0.66254  0.53774  1.0000
  C   C1050     1.0  0.47553  0.94838  0.77614  1.0000
  H   H1893     1.0  0.37397  0.96915  0.91605  1.0000
  C   C1051     1.0  0.29097  0.67323  0.54568  1.0000
  H   H1894     1.0  0.42641  0.80028  0.59058  1.0000
  C   C1052     1.0  0.32652  0.68868  0.94394  1.0000
  N   N61       1.0  0.34124  0.67956  0.66614  1.0000
  H   H1895     1.0  0.35097  0.66727  0.96494  1.0000
  H   H1896     1.0  0.26110  0.71309  0.98852  1.0000
  H   H1897     1.0  0.33391  0.93308  0.94301  1.0000
  H   H1898     1.0  0.43897  0.98983  0.63538  1.0000
  C   C1053     1.0  0.32810  0.68008  0.55649  1.0000
  C   C1054     1.0  0.32080  0.70071  0.56624  1.0000
  C   C1055     1.0  0.29862  0.70750  0.56601  1.0000
  C   C1056     1.0  0.28363  0.69379  0.55572  1.0000
  H   H1899     1.0  0.48996  0.95163  0.78881  1.0000
  H   H1900     1.0  0.39981  0.97059  0.58333  1.0000
  H   H1901     1.0  0.33231  0.71141  0.57423  1.0000
  H   H1902     1.0  0.29314  0.72338  0.57367  1.0000
  H   H1903     1.0  0.45576  0.79861  0.95739  1.0000
  H   H1904     1.0  0.42361  0.66926  0.53993  1.0000
  C   C1057     1.0  0.32436  0.87066  0.80709  1.0000
  C   C1058     1.0  0.30303  0.86475  0.80604  1.0000
  C   C1059     1.0  0.29769  0.84518  0.81746  1.0000
  C   C1060     1.0  0.31364  0.83130  0.83010  1.0000
  C   C1061     1.0  0.33501  0.83726  0.83137  1.0000
  C   C1062     1.0  0.34038  0.85690  0.81994  1.0000
  H   H1905     1.0  0.29058  0.87538  0.79624  1.0000
  H   H1906     1.0  0.28127  0.84074  0.81626  1.0000
  H   H1907     1.0  0.34748  0.82665  0.84119  1.0000
  H   H1908     1.0  0.35690  0.86131  0.82092  1.0000
  C   C1063     1.0  0.37363  0.73773  0.51122  1.0000
  H   H1909     1.0  0.36171  0.69162  0.69856  1.0000
  H   H1910     1.0  0.24768  0.82822  0.74896  1.0000
  C   C1064     1.0  0.29885  0.74095  0.96237  1.0000
  H   H1911     1.0  0.25825  0.86581  0.89392  1.0000
  C   C1065     1.0  0.43040  0.67121  0.51894  1.0000
  C   C1066     1.0  0.40176  0.89255  0.64049  1.0000
  C   C1067     1.0  0.38985  0.88887  0.66437  1.0000
  C   C1068     1.0  0.39724  0.89506  0.69062  1.0000
  C   C1069     1.0  0.41686  0.90449  0.69310  1.0000
  C   C1070     1.0  0.42854  0.90867  0.66918  1.0000
  C   C1071     1.0  0.42086  0.90295  0.64286  1.0000
  H   H1912     1.0  0.37496  0.88100  0.66259  1.0000
  H   H1913     1.0  0.38813  0.89188  0.70900  1.0000
  H   H1914     1.0  0.44365  0.91613  0.67102  1.0000
  H   H1915     1.0  0.42985  0.90629  0.62447  1.0000
  C   C1072     1.0  0.39869  0.87781  0.94385  1.0000
  C   C1073     1.0  0.38548  0.87746  0.92013  1.0000
  C   C1074     1.0  0.39421  0.87988  0.89361  1.0000
  C   C1075     1.0  0.41635  0.88215  0.89071  1.0000
  C   C1076     1.0  0.42954  0.88251  0.91439  1.0000
  C   C1077     1.0  0.42073  0.88048  0.94086  1.0000
  H   H1916     1.0  0.36851  0.87522  0.92228  1.0000
  H   H1917     1.0  0.38395  0.87943  0.87537  1.0000
  H   H1918     1.0  0.44661  0.88446  0.91218  1.0000
  H   H1919     1.0  0.43104  0.88080  0.95890  1.0000
  C   C1078     1.0  0.27032  0.81295  0.97078  1.0000
  H   H1920     1.0  0.48037  0.66447  0.79867  1.0000
  H   H1921     1.0  0.25257  0.82871  0.69706  1.0000
  H   H1922     1.0  0.37674  0.66764  0.63068  1.0000
  H   H1923     1.0  0.49709  0.97965  0.75846  1.0000
  H   H1924     1.0  0.31529  0.80364  0.92345  1.0000
  N   N62       1.0  0.30100  0.86971  0.91557  1.0000
  C   C1079     1.0  0.32067  0.88173  0.92193  1.0000
  C   C1080     1.0  0.28978  0.88025  0.89059  1.0000
  C   C1081     1.0  0.28495  0.87095  0.93910  1.0000
  C   C1082     1.0  0.31633  0.90602  0.92936  1.0000
  H   H1925     1.0  0.24955  0.85277  0.79012  1.0000
  C   C1083     1.0  0.33739  0.91577  0.93746  1.0000
  H   H1926     1.0  0.32659  0.70328  0.93094  1.0000
  H   H1927     1.0  0.33356  0.80785  0.89527  1.0000
  C   C1084     1.0  0.37608  0.68460  0.63810  1.0000
  C   C1085     1.0  0.45698  0.98345  0.78744  1.0000
  H   H1928     1.0  0.27673  0.88753  0.94082  1.0000
  H   H1929     1.0  0.30940  0.91528  0.91137  1.0000
  H   H1930     1.0  0.30504  0.90840  0.94709  1.0000
  H   H1931     1.0  0.45777  0.91869  0.84377  1.0000
  H   H1932     1.0  0.27702  0.70656  0.68197  1.0000
  H   H1933     1.0  0.31987  0.70359  0.98428  1.0000
  H   H1934     1.0  0.34890  0.91463  0.91983  1.0000
  C   C1086     1.0  0.30791  0.84649  0.90787  1.0000
  H   H1935     1.0  0.34517  0.90731  0.95563  1.0000
  C   C1087     1.0  0.25749  0.81724  0.94704  1.0000
  H   H1936     1.0  0.48245  0.97682  0.81937  1.0000
  H   H1937     1.0  0.42444  0.67590  0.84564  1.0000
  N   N63       1.0  0.45941  0.84130  0.64227  1.0000
  H   H1938     1.0  0.42097  0.95955  0.60645  1.0000
  C   C1088     1.0  0.45099  0.85005  0.66988  1.0000
  S   S246      1.0  0.25579  0.70220  0.55390  1.0000
  C   C1089     1.0  0.44156  0.83351  0.68945  1.0000
  C   C1090     1.0  0.47884  0.84677  0.95608  1.0000
  C   C1091     1.0  0.43201  0.84466  0.71554  1.0000
  C   C1092     1.0  0.30348  0.69865  0.65285  1.0000
  C   C1093     1.0  0.43897  0.93814  0.87408  1.0000
  H   H1939     1.0  0.43811  0.86337  0.66647  1.0000
  H   H1940     1.0  0.28231  0.75238  0.52509  1.0000
  H   H1941     1.0  0.49541  0.67827  0.70591  1.0000
  H   H1942     1.0  0.26498  0.81717  0.92696  1.0000
  H   H1943     1.0  0.45444  0.82118  0.69628  1.0000
  H   H1944     1.0  0.42845  0.82521  0.67918  1.0000
  C   C1094     1.0  0.44622  0.96285  0.74565  1.0000
  H   H1945     1.0  0.28758  0.80917  0.96869  1.0000
  H   H1946     1.0  0.41793  0.85608  0.71007  1.0000
  H   H1947     1.0  0.42637  0.83245  0.72988  1.0000
  H   H1948     1.0  0.44430  0.85367  0.72655  1.0000
  C   C1095     1.0  0.39016  0.94707  0.61183  1.0000
  C   C1096     1.0  0.42057  0.81696  0.98176  1.0000
  H   H1949     1.0  0.45171  0.95876  0.72414  1.0000
  H   H1950     1.0  0.44828  0.66506  0.91991  1.0000
  H   H1951     1.0  0.42398  0.81757  0.56072  1.0000
  N   N64       1.0  0.28878  0.70114  0.96417  1.0000
  S   S247      1.0  0.25996  0.78584  0.88718  1.0000
  C   C1097     1.0  0.49130  0.81582  0.62248  1.0000
  H   H1952     1.0  0.39034  0.69118  0.52667  1.0000
  H   H1953     1.0  0.48932  0.79656  0.54195  1.0000
  H   H1954     1.0  0.24886  0.66581  0.91135  1.0000
  C   C1098     1.0  0.27663  0.82561  0.66540  1.0000
  H   H1955     1.0  0.40982  0.91813  0.97186  1.0000
  C   C1099     1.0  0.31317  0.66634  0.54614  1.0000
  H   H1956     1.0  0.31641  0.73635  0.96523  1.0000
  H   H1957     1.0  0.28767  0.71518  0.50534  1.0000
  H   H1958     1.0  0.34340  0.69507  0.62599  1.0000
  C   C1100     1.0  0.27582  0.68597  0.91638  1.0000
  H   H1959     1.0  0.46073  0.94722  0.84169  1.0000
  H   H1960     1.0  0.44754  0.83066  0.86154  1.0000
  C   C1101     1.0  0.32792  0.83537  0.92326  1.0000
  C   C1102     1.0  0.42595  0.97913  0.74365  1.0000
  H   H1961     1.0  0.28331  0.66788  0.95407  1.0000
  H   H1962     1.0  0.45762  0.84540  0.90654  1.0000
  N   N65       1.0  0.28181  0.83904  0.71621  1.0000
  H   H1963     1.0  0.26648  0.81406  0.62508  1.0000
  C   C1103     1.0  0.30120  0.85025  0.70684  1.0000
  C   C1104     1.0  0.49118  0.83098  0.54273  1.0000
  C   C1105     1.0  0.28859  0.81647  0.72621  1.0000
  C   C1106     1.0  0.29416  0.81367  0.75753  1.0000
  H   H1964     1.0  0.46246  0.80517  0.86905  1.0000
  H   H1965     1.0  0.38442  0.73360  0.52925  1.0000
  C   C1107     1.0  0.31824  0.85498  0.72929  1.0000
  C   C1108     1.0  0.33533  0.86881  0.71772  1.0000
  C   C1109     1.0  0.30420  0.79090  0.76357  1.0000
  C   C1110     1.0  0.39901  0.98461  0.62591  1.0000
  H   H1966     1.0  0.27291  0.71812  0.64801  1.0000
  C   C1111     1.0  0.42355  0.81729  0.58376  1.0000
  H   H1967     1.0  0.27936  0.85364  0.75723  1.0000
  H   H1968     1.0  0.31046  0.84042  0.69087  1.0000
  H   H1969     1.0  0.29565  0.86584  0.69676  1.0000
  H   H1970     1.0  0.48783  0.77982  0.97076  1.0000
  C   C1112     1.0  0.29657  0.76105  0.94424  1.0000
  C   C1113     1.0  0.46006  0.81406  0.96696  1.0000
  H   H1971     1.0  0.30266  0.80934  0.71401  1.0000
  H   H1972     1.0  0.27931  0.81626  0.77028  1.0000
  H   H1973     1.0  0.30562  0.82514  0.76496  1.0000
  C   C1114     1.0  0.36287  0.71746  0.50083  1.0000
  C   C1115     1.0  0.31193  0.69268  0.96969  1.0000
  S   S248      1.0  0.25657  0.76812  0.66479  1.0000
  H   H1974     1.0  0.28932  0.83470  0.65595  1.0000
  H   H1975     1.0  0.31083  0.86390  0.74725  1.0000
  H   H1976     1.0  0.32695  0.83970  0.73640  1.0000
  H   H1977     1.0  0.34383  0.86063  0.69983  1.0000
  H   H1978     1.0  0.32775  0.88480  0.71113  1.0000
  H   H1979     1.0  0.34751  0.87158  0.73414  1.0000
  H   H1980     1.0  0.29296  0.77870  0.75733  1.0000
  H   H1981     1.0  0.31976  0.78768  0.75238  1.0000
  H   H1982     1.0  0.30749  0.78925  0.78617  1.0000
  S   S249      1.0  0.26372  0.76147  0.58551  1.0000
  C   C1116     1.0  0.40290  0.97360  0.89170  1.0000
  H   H1983     1.0  0.36011  0.67922  0.93370  1.0000
  H   H1984     1.0  0.46396  0.85719  0.68204  1.0000
  H   H1985     1.0  0.27556  0.80563  0.72204  1.0000
  C   C1117     1.0  0.35260  0.69304  0.64574  1.0000
  C   C1118     1.0  0.44065  0.95881  0.89196  1.0000
  H   H1986     1.0  0.40800  0.98627  0.87759  1.0000
  H   H1987     1.0  0.25932  0.68559  0.95485  1.0000
  N   N66       1.0  0.46499  0.96891  0.76371  1.0000
  C   C1119     1.0  0.43697  0.68750  0.84312  1.0000
  Fe  Fe125     1.0  0.40535  0.89248  0.50615  1.0000
  H   H1988     1.0  0.39818  0.96044  0.87774  1.0000
  H   H1989     1.0  0.49667  0.88279  0.59873  1.0000
  H   H1990     1.0  0.32721  0.83782  0.94594  1.0000
  C   C1120     1.0  0.38522  0.69840  0.61563  1.0000
  H   H1991     1.0  0.38109  0.98769  0.62799  1.0000
  H   H1992     1.0  0.45185  0.87191  0.62248  1.0000
  H   H1993     1.0  0.41740  0.95574  0.97029  1.0000
  S   S250      1.0  0.46513  0.83597  0.52820  1.0000
  H   H1994     1.0  0.32013  0.66992  0.61580  1.0000
  S   S251      1.0  0.45310  0.94950  0.53495  1.0000
  C   C1121     1.0  0.40512  0.95052  0.95529  1.0000
  C   C1122     1.0  0.48452  0.87266  0.63858  1.0000
  H   H1995     1.0  0.39497  0.93303  0.59822  1.0000
  H   H1996     1.0  0.46415  0.68544  0.97734  1.0000
  C   C1123     1.0  0.33027  0.81109  0.91759  1.0000
  H   H1997     1.0  0.34405  0.80345  0.92985  1.0000
  H   H1998     1.0  0.43971  0.94791  0.75348  1.0000
  H   H1999     1.0  0.37266  0.95176  0.60835  1.0000
  H   H2000     1.0  0.30343  0.75754  0.92329  1.0000
  C   C1124     1.0  0.45913  0.93366  0.85615  1.0000
  H   H2001     1.0  0.27925  0.76711  0.94213  1.0000
  H   H2002     1.0  0.34294  0.84204  0.91585  1.0000
  H   H2003     1.0  0.40583  0.82825  0.98422  1.0000
  C   C1125     1.0  0.47817  0.82479  0.64790  1.0000
  H   H2004     1.0  0.44205  0.97644  0.94296  1.0000
  C   C1126     1.0  0.42834  0.98303  0.92956  1.0000
  C   C1127     1.0  0.27668  0.68452  0.94854  1.0000
  H   H2005     1.0  0.49609  0.89679  0.75460  1.0000
  H   H2006     1.0  0.45569  0.95620  0.90478  1.0000
  H   H2007     1.0  0.47111  0.92722  0.73939  1.0000
  C   C1128     1.0  0.48360  0.93044  0.75511  1.0000
  C   C1129     1.0  0.39627  0.93030  0.96688  1.0000
  H   H2008     1.0  0.48972  0.70076  0.81354  1.0000
  H   H2009     1.0  0.38721  0.93427  0.98626  1.0000
  C   C1130     1.0  0.25929  0.82335  0.64303  1.0000
  H   H2010     1.0  0.27202  0.88645  0.99269  1.0000
  C   C1131     1.0  0.45213  0.68695  0.86830  1.0000
  H   H2011     1.0  0.26567  0.70070  0.91005  1.0000
  C   C1132     1.0  0.40957  0.97152  0.72266  1.0000
  C   C1133     1.0  0.40368  0.96579  0.60500  1.0000
  H   H2012     1.0  0.43746  0.84748  0.58751  1.0000
  H   H2013     1.0  0.37463  0.69921  0.59696  1.0000
  C   C1134     1.0  0.32067  0.69227  0.67552  1.0000
  C   C1135     1.0  0.28518  0.71407  0.66451  1.0000
  H   H2014     1.0  0.45676  0.82436  0.58697  1.0000
  H   H2015     1.0  0.26774  0.76186  0.72166  1.0000
  C   C1136     1.0  0.29366  0.86435  0.96819  1.0000
  H   H2016     1.0  0.26469  0.66853  0.88061  1.0000
  H   H2017     1.0  0.29840  0.84683  0.96867  1.0000
  H   H2018     1.0  0.31253  0.67698  0.98069  1.0000
  C   C1137     1.0  0.41594  0.94610  0.92663  1.0000
  H   H2019     1.0  0.40554  0.93596  0.91390  1.0000
  H   H2020     1.0  0.43089  0.93549  0.93147  1.0000
  H   H2021     1.0  0.31039  0.70690  0.63511  1.0000
  H   H2022     1.0  0.31238  0.84526  0.88553  1.0000
  C   C1138     1.0  0.44098  0.83116  0.62764  1.0000
  H   H2023     1.0  0.40724  0.82405  0.59055  1.0000
  H   H2024     1.0  0.48966  0.83138  0.66299  1.0000
  Fe  Fe126     1.0  0.44588  0.86850  0.53130  1.0000
  C   C1139     1.0  0.43885  0.82908  0.96989  1.0000
  Fe  Fe127     1.0  0.43856  0.91741  0.53513  1.0000
  H   H2025     1.0  0.43734  0.98281  0.58111  1.0000
  C   C1140     1.0  0.48172  0.97887  0.74649  1.0000
  H   H2026     1.0  0.39274  0.94198  0.63372  1.0000
  S   S252      1.0  0.44713  0.89174  0.56705  1.0000
  C   C1141     1.0  0.38177  0.98251  0.90613  1.0000
  C   C1142     1.0  0.35584  0.67604  0.69130  1.0000
  H   H2027     1.0  0.47389  0.93135  0.86936  1.0000
  H   H2028     1.0  0.44349  0.97179  0.87703  1.0000
  H   H2029     1.0  0.44490  0.97535  0.79984  1.0000
  H   H2030     1.0  0.46405  0.94141  0.79058  1.0000
  H   H2031     1.0  0.26727  0.86992  0.73075  1.0000
  H   H2032     1.0  0.35523  0.71038  0.51917  1.0000
  H   H2033     1.0  0.28313  0.89697  0.89571  1.0000
  H   H2034     1.0  0.44080  0.68492  0.51938  1.0000
  C   C1143     1.0  0.45890  0.82766  0.90409  1.0000
  H   H2035     1.0  0.29424  0.72016  0.92758  1.0000
  C   C1144     1.0  0.46370  0.66402  0.87232  1.0000
  H   H2036     1.0  0.34602  0.76111  0.50337  1.0000
  N   N67       1.0  0.42150  0.96555  0.91026  1.0000
  H   H2037     1.0  0.29150  0.72934  0.67184  1.0000
  S   S253      1.0  0.25731  0.77308  0.82202  1.0000
  Fe  Fe128     1.0  0.27233  0.79853  0.84738  1.0000
  C   C1145     1.0  0.44101  0.83084  0.59545  1.0000
  H   H2038     1.0  0.42510  0.83999  0.63314  1.0000
  C   C1146     1.0  0.45992  0.66852  0.97493  1.0000
  C   C1147     1.0  0.26684  0.83752  0.69143  1.0000
  H   H2039     1.0  0.30163  0.88176  0.87349  1.0000
  C   C1148     1.0  0.47802  0.81683  0.92114  1.0000
  H   H2040     1.0  0.47898  0.88981  0.93979  1.0000
  H   H2041     1.0  0.35336  0.70973  0.65413  1.0000
  C   C1149     1.0  0.36546  0.99261  0.88506  1.0000
  H   H2042     1.0  0.39166  0.96332  0.95457  1.0000
  H   H2043     1.0  0.46491  0.81002  0.98879  1.0000
  H   H2044     1.0  0.49343  0.82023  0.91093  1.0000
  H   H2045     1.0  0.25162  0.73329  0.50559  1.0000
  H   H2046     1.0  0.44154  0.84263  0.98437  1.0000
  C   C1150     1.0  0.49105  0.89005  0.61883  1.0000
  H   H2047     1.0  0.38503  0.92343  0.95181  1.0000
  C   C1151     1.0  0.43712  0.96946  0.51651  1.0000
  H   H2048     1.0  0.43317  0.83601  0.94985  1.0000
  C   C1152     1.0  0.25904  0.88214  0.85527  1.0000
  H   H2049     1.0  0.37063  0.66544  0.68585  1.0000
  H   H2050     1.0  0.44222  0.69218  0.88660  1.0000
  H   H2051     1.0  0.35666  0.69529  0.96493  1.0000
  H   H2052     1.0  0.24996  0.75288  0.97539  1.0000
  S   S254      1.0  0.35597  0.67211  0.55764  1.0000
  H   H2053     1.0  0.40152  0.69121  0.60949  1.0000
  H   H2054     1.0  0.25270  0.83947  0.63567  1.0000
  H   H2055     1.0  0.27064  0.88627  0.83913  1.0000
  C   C1153     1.0  0.26094  0.81350  0.99714  1.0000
  H   H2056     1.0  0.44626  0.68346  0.82390  1.0000
  H   H2057     1.0  0.46402  0.69898  0.86463  1.0000
  H   H2058     1.0  0.46339  0.85539  0.94926  1.0000
  H   H2059     1.0  0.30890  0.74634  0.51087  1.0000
  H   H2060     1.0  0.47555  0.90330  0.78024  1.0000
  H   H2061     1.0  0.27001  0.72802  0.94522  1.0000
  H   H2062     1.0  0.49155  0.69209  0.89219  1.0000
  H   H2063     1.0  0.41661  0.97052  0.70154  1.0000
  H   H2064     1.0  0.47704  0.79915  0.91845  1.0000
  C   C1154     1.0  0.46615  0.86014  0.62581  1.0000
  H   H2065     1.0  0.26026  0.85396  0.68489  1.0000
  H   H2066     1.0  0.40507  0.97796  0.64612  1.0000
  C   C1155     1.0  0.49630  0.66650  0.80686  1.0000
  C   C1156     1.0  0.49700  0.85808  0.94154  1.0000
  H   H2067     1.0  0.46561  0.68612  0.92564  1.0000
  H   H2068     1.0  0.47654  0.82940  0.86527  1.0000
  H   H2069     1.0  0.42866  0.70393  0.84089  1.0000
  H   H2070     1.0  0.30546  0.77392  0.95402  1.0000
  H   H2071     1.0  0.48616  0.96847  0.72817  1.0000
  C   C1157     1.0  0.46163  0.82283  0.87312  1.0000
  H   H2072     1.0  0.25101  0.77567  0.76532  1.0000
  C   C1158     1.0  0.28735  0.72225  0.94869  1.0000
  H   H2073     1.0  0.36218  0.67313  0.50162  1.0000
  H   H2074     1.0  0.40465  0.95539  0.72838  1.0000
  H   H2075     1.0  0.44215  0.66837  0.97159  1.0000
  H   H2076     1.0  0.31200  0.68303  0.69094  1.0000
  C   C1159     1.0  0.34583  0.66548  0.71675  1.0000
  C   C1160     1.0  0.25235  0.77146  0.72105  1.0000
  C   C1161     1.0  0.26973  0.85288  0.73788  1.0000
  H   H2077     1.0  0.34657  0.74929  0.53767  1.0000
  C   C1162     1.0  0.27060  0.86863  0.87815  1.0000
  C   C1163     1.0  0.49476  0.88236  0.94757  1.0000
  H   H2078     1.0  0.26112  0.86111  0.98408  1.0000
  C   C1164     1.0  0.48991  0.90919  0.76994  1.0000
  C   C1165     1.0  0.44297  0.99078  0.51609  1.0000
  H   H2079     1.0  0.38701  0.68552  0.65634  1.0000
  C   C1166     1.0  0.27604  0.86882  0.99008  1.0000
  C   C1167     1.0  0.34998  0.68225  0.95246  1.0000
  H   H2080     1.0  0.25104  0.89731  0.86410  1.0000
  H   H2081     1.0  0.27650  0.85278  0.86911  1.0000
  H   H2082     1.0  0.44350  0.82131  0.91044  1.0000
  H   H2083     1.0  0.49658  0.82881  0.60918  1.0000
  C   C1168     1.0  0.26559  0.66668  0.90351  1.0000
  H   H2084     1.0  0.40669  0.70837  0.50818  1.0000
  N   N68       1.0  0.47874  0.82270  0.95154  1.0000
  C   C1169     1.0  0.39651  0.69457  0.50558  1.0000
  H   H2085     1.0  0.36621  0.99329  0.77533  1.0000
  H   H2086     1.0  0.36483  0.76934  0.52924  1.0000
  H   H2087     1.0  0.47995  0.85038  0.97864  1.0000
  H   H2088     1.0  0.41780  0.98017  0.76400  1.0000
  H   H2089     1.0  0.37277  0.67142  0.74457  1.0000
  C   C1170     1.0  0.41839  0.96433  0.50244  1.0000
  S   S255      1.0  0.44088  0.89436  0.49882  1.0000
  H   H2090     1.0  0.41527  0.98846  0.94422  1.0000
  C   C1171     1.0  0.29144  0.74902  0.50555  1.0000
  C   C1172     1.0  0.47457  0.99071  0.80783  1.0000
  H   H2091     1.0  0.41401  0.94790  0.50189  1.0000
  C   C1173     1.0  0.27779  0.70531  0.99182  1.0000
  H   H2092     1.0  0.39485  0.98301  0.72260  1.0000
  H   H2093     1.0  0.47240  0.81045  0.65828  1.0000
  H   H2094     1.0  0.33427  0.67738  0.72742  1.0000
  H   H2095     1.0  0.49170  0.68200  0.74295  1.0000
  H   H2096     1.0  0.49620  0.85582  0.91870  1.0000
  H   H2097     1.0  0.47919  0.88100  0.65809  1.0000
  C   C1174     1.0  0.35665  0.75539  0.52093  1.0000
  C   C1175     1.0  0.46865  0.98986  0.59596  1.0000
  C   C1176     1.0  0.49732  0.67472  0.89306  1.0000
  H   H2098     1.0  0.32144  0.78912  0.99688  1.0000
  H   H2099     1.0  0.33416  0.89178  0.49869  1.0000
  N   N69       1.0  0.61606  0.28391  0.30226  1.0000
  C   C1177     1.0  0.68316  0.30956  0.45288  1.0000
  C   C1178     1.0  0.64807  0.28160  0.07089  1.0000
  C   C1179     1.0  0.56392  0.27049  0.01498  1.0000
  S   S256      1.0  0.72175  0.23891  0.11180  1.0000
  C   C1180     1.0  0.63899  0.27135  0.39407  1.0000
  H   H2100     1.0  0.50230  0.12817  0.06258  1.0000
  C   C1181     1.0  0.65397  0.30439  0.38107  1.0000
  H   H2101     1.0  0.71796  0.27984  0.44356  1.0000
  C   C1182     1.0  0.68628  0.27049  0.45768  1.0000
  C   C1183     1.0  0.62625  0.26351  0.25621  1.0000
  H   H2102     1.0  0.50075  0.14955  0.13352  1.0000
  H   H2103     1.0  0.54764  0.28932  0.04750  1.0000
  C   C1184     1.0  0.70565  0.24851  0.02964  1.0000
  H   H2104     1.0  0.68697  0.30105  0.36644  1.0000
  H   H2105     1.0  0.63414  0.24967  0.26780  1.0000
  H   H2106     1.0  0.60350  0.24346  0.23592  1.0000
  H   H2107     1.0  0.63951  0.25674  0.31127  1.0000
  S   S257      1.0  0.58372  0.25499  0.40822  1.0000
  C   C1185     1.0  0.65841  0.25961  0.38650  1.0000
  C   C1186     1.0  0.55188  0.24365  0.31498  1.0000
  Fe  Fe129     1.0  0.55539  0.20261  0.16702  1.0000
  S   S258      1.0  0.53842  0.23593  0.16558  1.0000
  S   S259      1.0  0.54109  0.17040  0.17280  1.0000
  Fe  Fe130     1.0  0.60033  0.21935  0.16018  1.0000
  S   S260      1.0  0.58715  0.25395  0.15885  1.0000
  S   S261      1.0  0.63545  0.20597  0.15950  1.0000
  Fe  Fe131     1.0  0.56535  0.24538  0.19334  1.0000
  S   S262      1.0  0.55772  0.26976  0.22755  1.0000
  Fe  Fe132     1.0  0.56141  0.24197  0.13108  1.0000
  H   H2108     1.0  0.50457  0.10124  0.09725  1.0000
  S   S263      1.0  0.58081  0.21163  0.19742  1.0000
  S   S264      1.0  0.57613  0.20771  0.12971  1.0000
  C   C1187     1.0  0.65740  0.21638  0.14249  1.0000
  Fe  Fe133     1.0  0.55331  0.25812  0.38285  1.0000
  C   C1188     1.0  0.65907  0.23854  0.13884  1.0000
  S   S265      1.0  0.54983  0.26371  0.09581  1.0000
  H   H2109     1.0  0.64575  0.24998  0.14479  1.0000
  C   C1189     1.0  0.55455  0.25924  0.26074  1.0000
  C   C1190     1.0  0.56158  0.23783  0.26660  1.0000
  C   C1191     1.0  0.56043  0.23011  0.29371  1.0000
  H   H2110     1.0  0.56839  0.22733  0.25045  1.0000
  H   H2111     1.0  0.56672  0.21378  0.29829  1.0000
  C   C1192     1.0  0.56092  0.25870  0.06270  1.0000
  C   C1193     1.0  0.57317  0.23944  0.05613  1.0000
  C   C1194     1.0  0.58057  0.23565  0.02886  1.0000
  H   H2112     1.0  0.57645  0.22728  0.07184  1.0000
  C   C1195     1.0  0.62441  0.26496  0.31980  1.0000
  H   H2113     1.0  0.59419  0.25361  0.33611  1.0000
  H   H2114     1.0  0.65998  0.24223  0.38850  1.0000
  C   C1196     1.0  0.51637  0.16577  0.18896  1.0000
  C   C1197     1.0  0.51263  0.14447  0.19535  1.0000
  H   H2115     1.0  0.55054  0.14550  0.23173  1.0000
  S   S266      1.0  0.56888  0.23581  0.48013  1.0000
  C   C1198     1.0  0.63958  0.24441  0.06219  1.0000
  C   C1199     1.0  0.58640  0.31611  0.30353  1.0000
  H   H2116     1.0  0.52503  0.13159  0.19106  1.0000
  H   H2117     1.0  0.55438  0.31506  0.32168  1.0000
  H   H2118     1.0  0.61515  0.29821  0.07332  1.0000
  C   C1200     1.0  0.66578  0.26163  0.03217  1.0000
  H   H2119     1.0  0.62902  0.27090  0.34058  1.0000
  H   H2120     1.0  0.66855  0.31666  0.27399  1.0000
  H   H2121     1.0  0.73793  0.22633  0.20391  1.0000
  H   H2122     1.0  0.51987  0.26843  0.48178  1.0000
  C   C1201     1.0  0.67578  0.27019  0.37637  1.0000
  Fe  Fe134     1.0  0.56228  0.25948  0.44532  1.0000
  H   H2123     1.0  0.69881  0.32467  0.23299  1.0000
  H   H2124     1.0  0.69037  0.26363  0.06512  1.0000
  Fe  Fe135     1.0  0.72741  0.27377  0.10481  1.0000
  C   C1202     1.0  0.71980  0.24555  0.44715  1.0000
  S   S267      1.0  0.53191  0.25936  0.42003  1.0000
  H   H2125     1.0  0.51613  0.30443  0.48172  1.0000
  H   H2126     1.0  0.65549  0.29585  0.06237  1.0000
  H   H2127     1.0  0.68081  0.26873  0.43578  1.0000
  H   H2128     1.0  0.70091  0.31064  0.45518  1.0000
  C   C1203     1.0  0.63645  0.29372  0.39075  1.0000
  C   C1204     1.0  0.64099  0.26988  0.46963  1.0000
  Fe  Fe136     1.0  0.53316  0.29541  0.41819  1.0000
  C   C1205     1.0  0.69623  0.23107  0.12225  1.0000
  C   C1206     1.0  0.73987  0.31227  0.49301  1.0000
  H   H2129     1.0  0.61126  0.28217  0.49054  1.0000
  H   H2130     1.0  0.50580  0.18925  0.13537  1.0000
  Fe  Fe137     1.0  0.73054  0.27047  0.36012  1.0000
  C   C1207     1.0  0.61932  0.22839  0.34086  1.0000
  H   H2131     1.0  0.71437  0.23282  0.46085  1.0000
  H   H2132     1.0  0.70309  0.26524  0.29410  1.0000
  Fe  Fe138     1.0  0.71443  0.31215  0.06891  1.0000
  C   C1208     1.0  0.68602  0.25225  0.04860  1.0000
  C   C1209     1.0  0.50027  0.18232  0.19481  1.0000
  Fe  Fe139     1.0  0.58181  0.29102  0.40715  1.0000
  C   C1210     1.0  0.67491  0.20176  0.13535  1.0000
  H   H2133     1.0  0.53101  0.32348  0.03815  1.0000
  H   H2134     1.0  0.60337  0.24063  0.30409  1.0000
  H   H2135     1.0  0.62403  0.23392  0.36183  1.0000
  S   S268      1.0  0.55258  0.29409  0.37878  1.0000
  H   H2136     1.0  0.64361  0.19250  0.48811  1.0000
  C   C1211     1.0  0.52357  0.17134  0.33465  1.0000
  H   H2137     1.0  0.61776  0.31109  0.12149  1.0000
  H   H2138     1.0  0.59418  0.30412  0.01284  1.0000
  C   C1212     1.0  0.61602  0.25437  0.23017  1.0000
  C   C1213     1.0  0.72501  0.32122  0.20365  1.0000
  C   C1214     1.0  0.55889  0.15049  0.25092  1.0000
  H   H2139     1.0  0.59465  0.26770  0.27528  1.0000
  H   H2140     1.0  0.51680  0.14302  0.10414  1.0000
  S   S269      1.0  0.69907  0.29818  0.10596  1.0000
  C   C1215     1.0  0.50842  0.08511  0.15045  1.0000
  C   C1216     1.0  0.63285  0.30022  0.30061  1.0000
  H   H2141     1.0  0.66190  0.28406  0.32014  1.0000
  H   H2142     1.0  0.60840  0.26759  0.21711  1.0000
  H   H2143     1.0  0.67018  0.27724  0.02364  1.0000
  S   S270      1.0  0.73226  0.30554  0.35031  1.0000
  C   C1217     1.0  0.60912  0.27694  0.27374  1.0000
  H   H2144     1.0  0.53793  0.16438  0.37519  1.0000
  S   S271      1.0  0.61167  0.30870  0.39840  1.0000
  N   N70       1.0  0.64509  0.26499  0.04852  1.0000
  H   H2145     1.0  0.52032  0.11517  0.13908  1.0000
  H   H2146     1.0  0.70257  0.23665  0.01302  1.0000
  H   H2147     1.0  0.58305  0.28392  0.31713  1.0000
  C   C1218     1.0  0.61634  0.27330  0.47125  1.0000
  H   H2148     1.0  0.71817  0.26998  0.47873  1.0000
  H   H2149     1.0  0.65225  0.32174  0.37869  1.0000
  S   S272      1.0  0.56227  0.29556  0.44652  1.0000
  H   H2150     1.0  0.51082  0.20328  0.32459  1.0000
  H   H2151     1.0  0.61662  0.20797  0.06782  1.0000
  N   N71       1.0  0.51056  0.18514  0.28604  1.0000
  C   C1219     1.0  0.67368  0.29270  0.37416  1.0000
  H   H2152     1.0  0.51840  0.07522  0.13524  1.0000
  C   C1220     1.0  0.55669  0.27431  0.04221  1.0000
  H   H2153     1.0  0.65065  0.24038  0.08002  1.0000
  H   H2154     1.0  0.50613  0.31702  0.11819  1.0000
  S   S273      1.0  0.69598  0.31604  0.02834  1.0000
  S   S274      1.0  0.74195  0.28653  0.06639  1.0000
  C   C1221     1.0  0.50932  0.18736  0.11291  1.0000
  H   H2155     1.0  0.53776  0.27546  0.32539  1.0000
  H   H2156     1.0  0.64567  0.29842  0.44699  1.0000
  Fe  Fe140     1.0  0.72057  0.31743  0.13235  1.0000
  H   H2157     1.0  0.51489  0.16368  0.25083  1.0000
  C   C1222     1.0  0.53641  0.17786  0.36015  1.0000
  C   C1223     1.0  0.54459  0.26500  0.30911  1.0000
  H   H2158     1.0  0.64447  0.29751  0.12517  1.0000
  H   H2159     1.0  0.62852  0.24488  0.21770  1.0000
  S   S275      1.0  0.55066  0.23349  0.34866  1.0000
  H   H2160     1.0  0.64652  0.29667  0.20045  1.0000
  C   C1224     1.0  0.67857  0.24587  0.12888  1.0000
  C   C1225     1.0  0.60862  0.24723  0.32423  1.0000
  C   C1226     1.0  0.63984  0.22413  0.04321  1.0000
  C   C1227     1.0  0.50433  0.10836  0.14049  1.0000
  H   H2161     1.0  0.61097  0.27282  0.03977  1.0000
  H   H2162     1.0  0.55972  0.13707  0.26604  1.0000
  H   H2163     1.0  0.62553  0.26048  0.01183  1.0000
  C   C1228     1.0  0.62686  0.27236  0.02900  1.0000
  C   C1229     1.0  0.54608  0.27284  0.28204  1.0000
  H   H2164     1.0  0.62593  0.26297  0.40209  1.0000
  S   S276      1.0  0.69940  0.25457  0.36587  1.0000
  H   H2165     1.0  0.73779  0.24421  0.44704  1.0000
  C   C1230     1.0  0.69410  0.20903  0.12520  1.0000
  H   H2166     1.0  0.63165  0.31120  0.31911  1.0000
  N   N72       1.0  0.70762  0.24566  0.21092  1.0000
  C   C1231     1.0  0.69377  0.22731  0.20478  1.0000
  C   C1232     1.0  0.69666  0.26627  0.19917  1.0000
  C   C1233     1.0  0.72870  0.24101  0.19555  1.0000
  C   C1234     1.0  0.71255  0.24820  0.24152  1.0000
  C   C1235     1.0  0.69507  0.24191  0.26221  1.0000
  C   C1236     1.0  0.70464  0.20433  0.21022  1.0000
  H   H2167     1.0  0.66274  0.28852  0.17071  1.0000
  C   C1237     1.0  0.67356  0.27323  0.20954  1.0000
  C   C1238     1.0  0.66333  0.29246  0.19320  1.0000
  C   C1239     1.0  0.70096  0.24776  0.29201  1.0000
  C   C1240     1.0  0.68784  0.18776  0.21228  1.0000
  H   H2168     1.0  0.50719  0.02972  0.22662  1.0000
  H   H2169     1.0  0.68871  0.22766  0.18263  1.0000
  H   H2170     1.0  0.67835  0.22909  0.21640  1.0000
  H   H2171     1.0  0.70620  0.28019  0.20398  1.0000
  H   H2172     1.0  0.69604  0.26512  0.17609  1.0000
  H   H2173     1.0  0.72546  0.23739  0.17326  1.0000
  C   C1241     1.0  0.49991  0.14829  0.11058  1.0000
  H   H2174     1.0  0.72767  0.23824  0.24739  1.0000
  H   H2175     1.0  0.71611  0.26514  0.24624  1.0000
  H   H2176     1.0  0.69367  0.22425  0.26163  1.0000
  H   H2177     1.0  0.67891  0.24988  0.25739  1.0000
  H   H2178     1.0  0.71560  0.19931  0.19273  1.0000
  H   H2179     1.0  0.71442  0.20380  0.22962  1.0000
  C   C1242     1.0  0.63277  0.30549  0.11016  1.0000
  H   H2180     1.0  0.68336  0.23665  0.05843  1.0000
  H   H2181     1.0  0.66259  0.26019  0.20711  1.0000
  H   H2182     1.0  0.67430  0.27844  0.23154  1.0000
  H   H2183     1.0  0.73761  0.27324  0.18451  1.0000
  C   C1243     1.0  0.59639  0.29476  0.31665  1.0000
  H   H2184     1.0  0.70756  0.19745  0.12022  1.0000
  H   H2185     1.0  0.68783  0.24380  0.30619  1.0000
  H   H2186     1.0  0.60370  0.29116  0.26089  1.0000
  H   H2187     1.0  0.64499  0.25979  0.45094  1.0000
  H   H2188     1.0  0.67712  0.19140  0.23039  1.0000
  H   H2189     1.0  0.67773  0.18779  0.19314  1.0000
  H   H2190     1.0  0.69615  0.17137  0.21488  1.0000
  H   H2191     1.0  0.71993  0.24208  0.04201  1.0000
  H   H2192     1.0  0.55294  0.18170  0.35416  1.0000
  C   C1244     1.0  0.63327  0.20473  0.05947  1.0000
  H   H2193     1.0  0.63386  0.22093  0.33001  1.0000
  H   H2194     1.0  0.50819  0.28569  0.03423  1.0000
  H   H2195     1.0  0.68012  0.26291  0.12731  1.0000
  H   H2196     1.0  0.62309  0.24658  0.07137  1.0000
  C   C1245     1.0  0.71141  0.26796  0.45761  1.0000
  C   C1246     1.0  0.71313  0.31063  0.99953  1.0000
  H   H2197     1.0  0.67382  0.18465  0.13829  1.0000
  H   H2198     1.0  0.64246  0.29344  0.00012  1.0000
  H   H2199     1.0  0.71398  0.24286  0.42562  1.0000
  H   H2200     1.0  0.65992  0.27493  0.08660  1.0000
  H   H2201     1.0  0.52806  0.19223  0.37055  1.0000
  C   C1247     1.0  0.54707  0.17084  0.26334  1.0000
  C   C1248     1.0  0.72912  0.31456  0.25347  1.0000
  C   C1249     1.0  0.74442  0.25914  0.19651  1.0000
  H   H2202     1.0  0.54068  0.28946  0.27758  1.0000
  H   H2203     1.0  0.61994  0.27612  0.09707  1.0000
  H   H2204     1.0  0.52712  0.21009  0.26585  1.0000
  H   H2205     1.0  0.53662  0.19648  0.31076  1.0000
  H   H2206     1.0  0.74146  0.32094  0.02022  1.0000
  H   H2207     1.0  0.61286  0.18051  0.46254  1.0000
  H   H2208     1.0  0.54758  0.18367  0.24754  1.0000
  H   H2209     1.0  0.55630  0.17538  0.28196  1.0000
  H   H2210     1.0  0.52386  0.15174  0.28232  1.0000
  H   H2211     1.0  0.70953  0.26392  0.02010  1.0000
  H   H2212     1.0  0.56036  0.28253  0.99923  1.0000
  H   H2213     1.0  0.60032  0.29821  0.33881  1.0000
  H   H2214     1.0  0.57566  0.15379  0.24536  1.0000
  C   C1250     1.0  0.67175  0.30952  0.29482  1.0000
  H   H2215     1.0  0.60760  0.21596  0.34338  1.0000
  N   N73       1.0  0.67577  0.29123  0.46983  1.0000
  C   C1251     1.0  0.65131  0.29173  0.46743  1.0000
  H   H2216     1.0  0.67271  0.30674  0.19635  1.0000
  C   C1252     1.0  0.65704  0.29143  0.29993  1.0000
  H   H2217     1.0  0.50628  0.31001  0.06758  1.0000
  C   C1253     1.0  0.61023  0.19471  0.47659  1.0000
  H   H2218     1.0  0.63352  0.19036  0.04561  1.0000
  H   H2219     1.0  0.52314  0.29675  0.00665  1.0000
  H   H2220     1.0  0.51716  0.08489  0.17066  1.0000
  H   H2221     1.0  0.65623  0.21974  0.03477  1.0000
  H   H2222     1.0  0.63857  0.27409  0.24919  1.0000
  H   H2223     1.0  0.64469  0.20103  0.07702  1.0000
  H   H2224     1.0  0.68896  0.30298  0.29586  1.0000
  H   H2225     1.0  0.66029  0.27898  0.28375  1.0000
  H   H2226     1.0  0.71618  0.23843  0.29860  1.0000
  H   H2227     1.0  0.59402  0.19431  0.48618  1.0000
  C   C1254     1.0  0.62739  0.28970  0.08715  1.0000
  H   H2228     1.0  0.60933  0.25746  0.47122  1.0000
  H   H2229     1.0  0.68104  0.25620  0.46850  1.0000
  H   H2230     1.0  0.64681  0.26053  0.48798  1.0000
  C   C1255     1.0  0.52331  0.16706  0.27068  1.0000
  H   H2231     1.0  0.63982  0.31976  0.10129  1.0000
  H   H2232     1.0  0.52668  0.18167  0.11022  1.0000
  H   H2233     1.0  0.60980  0.28254  0.45300  1.0000
  H   H2234     1.0  0.62841  0.22678  0.02555  1.0000
  H   H2235     1.0  0.53245  0.15681  0.32552  1.0000
  H   H2236     1.0  0.50482  0.23210  0.29791  1.0000
  H   H2237     1.0  0.58956  0.22053  0.02362  1.0000
  H   H2238     1.0  0.68024  0.30650  0.43042  1.0000
  H   H2239     1.0  0.50465  0.20152  0.24701  1.0000
  H   H2240     1.0  0.63131  0.30744  0.03020  1.0000
  C   C1256     1.0  0.62876  0.29449  0.01491  1.0000
  C   C1257     1.0  0.52067  0.19006  0.31370  1.0000
  H   H2241     1.0  0.62962  0.31079  0.28224  1.0000
  H   H2242     1.0  0.64347  0.30301  0.48316  1.0000
  H   H2243     1.0  0.61055  0.20958  0.46400  1.0000
  H   H2244     1.0  0.50640  0.20345  0.10313  1.0000
  H   H2245     1.0  0.72215  0.31430  0.27395  1.0000
  C   C1258     1.0  0.51047  0.20509  0.26833  1.0000
  H   H2246     1.0  0.74743  0.26442  0.21815  1.0000
  H   H2247     1.0  0.66350  0.25120  0.01368  1.0000
  C   C1259     1.0  0.56754  0.32613  0.32085  1.0000
  H   H2248     1.0  0.51167  0.24727  0.25101  1.0000
  H   H2249     1.0  0.51078  0.23150  0.47462  1.0000
  C   C1260     1.0  0.57576  0.25111  0.00819  1.0000
  C   C1261     1.0  0.71597  0.32052  0.23028  1.0000
  H   H2250     1.0  0.50296  0.19883  0.18991  1.0000
  H   H2251     1.0  0.57992  0.31313  0.28245  1.0000
  H   H2252     1.0  0.50752  0.16728  0.34210  1.0000
  H   H2253     1.0  0.66921  0.32233  0.31097  1.0000
  C   C1262     1.0  0.73488  0.31503  0.00103  1.0000
  C   C1263     1.0  0.50577  0.23984  0.49431  1.0000
  C   C1264     1.0  0.50408  0.26423  0.49000  1.0000
  S   S277      1.0  0.49984  0.31223  0.42631  1.0000
  C   C1265     1.0  0.50683  0.29309  0.01338  1.0000
  C   C1266     1.0  0.74722  0.31606  0.20049  1.0000
  C   C1267     1.0  0.60817  0.30143  0.99860  1.0000
  H   H2254     1.0  0.69018  0.25334  0.73251  1.0000
  C   C1268     1.0  0.68502  0.24710  0.62331  1.0000
  H   H2255     1.0  0.68588  0.26421  0.62041  1.0000
  C   C1269     1.0  0.53474  0.17228  0.84030  1.0000
  H   H2256     1.0  0.71142  0.29526  0.93120  1.0000
  H   H2257     1.0  0.66827  0.30631  0.72870  1.0000
  C   C1270     1.0  0.49922  0.27605  0.99337  1.0000
  H   H2258     1.0  0.53541  0.14290  0.62828  1.0000
  C   C1271     1.0  0.69997  0.27226  0.69785  1.0000
  C   C1272     1.0  0.62510  0.29408  0.85867  1.0000
  C   C1273     1.0  0.52239  0.14535  0.70820  1.0000
  H   H2259     1.0  0.50620  0.11470  0.58969  1.0000
  H   H2260     1.0  0.69607  0.27313  0.67531  1.0000
  C   C1274     1.0  0.68133  0.28750  0.76282  1.0000
  H   H2261     1.0  0.66461  0.29453  0.68394  1.0000
  Fe  Fe141     1.0  0.58199  0.30549  0.90458  1.0000
  H   H2262     1.0  0.59637  0.17078  0.59527  1.0000
  H   H2263     1.0  0.64816  0.29616  0.74959  1.0000
  S   S278      1.0  0.54484  0.24954  0.84740  1.0000
  C   C1275     1.0  0.63373  0.22995  0.76161  1.0000
  H   H2264     1.0  0.52032  0.08531  0.68679  1.0000
  Fe  Fe142     1.0  0.56343  0.20449  0.67626  1.0000
  S   S279      1.0  0.54783  0.23850  0.67900  1.0000
  S   S280      1.0  0.55104  0.17242  0.68860  1.0000
  Fe  Fe143     1.0  0.60656  0.21926  0.65477  1.0000
  S   S281      1.0  0.59451  0.25406  0.65580  1.0000
  S   S282      1.0  0.63969  0.20484  0.64138  1.0000
  Fe  Fe144     1.0  0.57982  0.24669  0.69670  1.0000
  S   S283      1.0  0.58504  0.27009  0.73149  1.0000
  Fe  Fe145     1.0  0.56374  0.24315  0.63776  1.0000
  H   H2265     1.0  0.73429  0.26991  0.68912  1.0000
  S   S284      1.0  0.59439  0.21252  0.69731  1.0000
  S   S285      1.0  0.57682  0.20853  0.63345  1.0000
  C   C1276     1.0  0.66392  0.21677  0.63408  1.0000
  C   C1277     1.0  0.70204  0.21069  0.62226  1.0000
  C   C1278     1.0  0.68248  0.20277  0.62986  1.0000
  H   H2266     1.0  0.71610  0.19951  0.61865  1.0000
  H   H2267     1.0  0.68166  0.18556  0.63211  1.0000
  C   C1279     1.0  0.57388  0.26428  0.76362  1.0000
  C   C1280     1.0  0.55942  0.24831  0.76581  1.0000
  C   C1281     1.0  0.55037  0.24419  0.79161  1.0000
  H   H2268     1.0  0.55496  0.23946  0.74752  1.0000
  H   H2269     1.0  0.53881  0.23231  0.79326  1.0000
  C   C1282     1.0  0.55488  0.25625  0.56977  1.0000
  C   C1283     1.0  0.55828  0.23442  0.56259  1.0000
  C   C1284     1.0  0.56270  0.22836  0.53498  1.0000
  H   H2270     1.0  0.55715  0.22222  0.57823  1.0000
  H   H2271     1.0  0.64812  0.24714  0.54988  1.0000
  H   H2272     1.0  0.62697  0.29572  0.64698  1.0000
  H   H2273     1.0  0.51689  0.18420  0.59893  1.0000
  H   H2274     1.0  0.51004  0.06171  0.84713  1.0000
  H   H2275     1.0  0.66714  0.19560  0.52169  1.0000
  H   H2276     1.0  0.68027  0.27197  0.77342  1.0000
  H   H2277     1.0  0.62549  0.15813  0.90666  1.0000
  H   H2278     1.0  0.67963  0.22806  0.56661  1.0000
  C   C1285     1.0  0.70486  0.30298  0.97442  1.0000
  H   H2279     1.0  0.53646  0.13390  0.71009  1.0000
  C   C1286     1.0  0.50011  0.31865  0.59298  1.0000
  C   C1287     1.0  0.71807  0.30055  0.95068  1.0000
  H   H2280     1.0  0.51275  0.29109  0.56982  1.0000
  H   H2281     1.0  0.64356  0.17971  0.55145  1.0000
  H   H2282     1.0  0.68605  0.29638  0.87678  1.0000
  Fe  Fe146     1.0  0.73604  0.27576  0.60504  1.0000
  H   H2283     1.0  0.67471  0.31008  0.50782  1.0000
  H   H2284     1.0  0.69784  0.28716  0.75409  1.0000
  C   C1288     1.0  0.50732  0.30816  0.56542  1.0000
  H   H2285     1.0  0.67972  0.24572  0.70011  1.0000
  C   C1289     1.0  0.66911  0.29594  0.87140  1.0000
  H   H2286     1.0  0.62951  0.26783  0.73273  1.0000
  C   C1290     1.0  0.67912  0.30542  0.78478  1.0000
  H   H2287     1.0  0.68197  0.29689  0.55685  1.0000
  H   H2288     1.0  0.63396  0.21771  0.74466  1.0000
  Fe  Fe147     1.0  0.57011  0.26979  0.94241  1.0000
  H   H2289     1.0  0.53699  0.16344  0.75632  1.0000
  H   H2290     1.0  0.68212  0.19909  0.56856  1.0000
  H   H2291     1.0  0.54499  0.17551  0.60512  1.0000
  Fe  Fe148     1.0  0.72899  0.31773  0.57403  1.0000
  C   C1291     1.0  0.66283  0.28146  0.85111  1.0000
  H   H2292     1.0  0.51172  0.06099  0.67118  1.0000
  H   H2293     1.0  0.63594  0.26993  0.82839  1.0000
  H   H2294     1.0  0.62461  0.16988  0.60463  1.0000
  H   H2295     1.0  0.60998  0.25325  0.53848  1.0000
  C   C1292     1.0  0.56047  0.26591  0.52163  1.0000
  H   H2296     1.0  0.56507  0.21144  0.52943  1.0000
  C   C1293     1.0  0.73375  0.32026  0.70848  1.0000
  H   H2297     1.0  0.72775  0.26058  0.72306  1.0000
  H   H2298     1.0  0.61637  0.15793  0.57224  1.0000
  C   C1294     1.0  0.61472  0.24702  0.55940  1.0000
  H   H2299     1.0  0.55387  0.28888  0.55491  1.0000
  H   H2300     1.0  0.60222  0.19401  0.55557  1.0000
  H   H2301     1.0  0.61593  0.16245  0.94164  1.0000
  H   H2302     1.0  0.52378  0.14449  0.59377  1.0000
  H   H2303     1.0  0.57483  0.28057  0.83139  1.0000
  H   H2304     1.0  0.66326  0.30544  0.79542  1.0000
  H   H2305     1.0  0.64208  0.24645  0.71226  1.0000
  C   C1295     1.0  0.49901  0.27652  0.51768  1.0000
  H   H2306     1.0  0.62634  0.17901  0.51111  1.0000
  H   H2307     1.0  0.52804  0.20235  0.81833  1.0000
  H   H2308     1.0  0.65815  0.32016  0.90156  1.0000
  H   H2309     1.0  0.51349  0.27282  0.53103  1.0000
  H   H2310     1.0  0.68815  0.29924  0.97321  1.0000
  S   S286      1.0  0.56678  0.30585  0.94681  1.0000
  C   C1296     1.0  0.68254  0.29461  0.49952  1.0000
  H   H2311     1.0  0.70745  0.19732  0.52836  1.0000
  H   H2312     1.0  0.53292  0.07465  0.65517  1.0000
  C   C1297     1.0  0.55612  0.27198  0.54929  1.0000
  C   C1298     1.0  0.56361  0.24408  0.51445  1.0000
  H   H2313     1.0  0.52431  0.13067  0.77560  1.0000
  H   H2314     1.0  0.64449  0.15646  0.93553  1.0000
  C   C1299     1.0  0.70411  0.21238  0.54068  1.0000
  H   H2315     1.0  0.51115  0.26167  0.99342  1.0000
  C   C1300     1.0  0.72414  0.31946  0.73465  1.0000
  H   H2316     1.0  0.50500  0.19014  0.82936  1.0000
  S   S287      1.0  0.55018  0.30766  0.88120  1.0000
  C   C1301     1.0  0.52479  0.16611  0.69810  1.0000
  H   H2317     1.0  0.51120  0.12056  0.66382  1.0000
  C   C1302     1.0  0.62938  0.16505  0.92725  1.0000
  H   H2318     1.0  0.60471  0.28891  0.98303  1.0000
  C   C1303     1.0  0.65345  0.28282  0.69169  1.0000
  C   C1304     1.0  0.51745  0.07705  0.66673  1.0000
  H   H2319     1.0  0.52314  0.11052  0.63241  1.0000
  H   H2320     1.0  0.60902  0.31506  0.66543  1.0000
  C   C1305     1.0  0.57943  0.27591  0.78731  1.0000
  N   N74       1.0  0.51829  0.17717  0.79069  1.0000
  H   H2321     1.0  0.51809  0.23510  0.51046  1.0000
  Fe  Fe149     1.0  0.73110  0.31706  0.63809  1.0000
  H   H2322     1.0  0.72876  0.31073  0.77777  1.0000
  H   H2323     1.0  0.49843  0.99966  0.70122  1.0000
  C   C1306     1.0  0.51336  0.31023  0.50339  1.0000
  C   C1307     1.0  0.63773  0.23515  0.55867  1.0000
  H   H2324     1.0  0.62886  0.30683  0.70942  1.0000
  H   H2325     1.0  0.59062  0.28829  0.78567  1.0000
  C   C1308     1.0  0.52103  0.18647  0.81941  1.0000
  C   C1309     1.0  0.63055  0.29502  0.69203  1.0000
  H   H2326     1.0  0.71678  0.21289  0.55706  1.0000
  S   S288      1.0  0.70961  0.30235  0.60675  1.0000
  C   C1310     1.0  0.61449  0.19314  0.57241  1.0000
  H   H2327     1.0  0.74088  0.29798  0.50572  1.0000
  C   C1311     1.0  0.63768  0.19521  0.56161  1.0000
  H   H2328     1.0  0.63764  0.22156  0.78148  1.0000
  H   H2329     1.0  0.52602  0.13415  0.81254  1.0000
  S   S289      1.0  0.53736  0.26846  0.92279  1.0000
  C   C1312     1.0  0.61297  0.17158  0.58699  1.0000
  S   S290      1.0  0.58712  0.26953  0.90164  1.0000
  S   S291      1.0  0.73310  0.25651  0.88466  1.0000
  C   C1313     1.0  0.50383  0.15866  0.79114  1.0000
  H   H2330     1.0  0.60251  0.23629  0.56615  1.0000
  C   C1314     1.0  0.64085  0.28088  0.84436  1.0000
  C   C1315     1.0  0.64522  0.25849  0.72881  1.0000
  C   C1316     1.0  0.55596  0.25568  0.81530  1.0000
  S   S292      1.0  0.74219  0.25283  0.81743  1.0000
  C   C1317     1.0  0.72266  0.26092  0.70091  1.0000
  N   N75       1.0  0.66165  0.27329  0.71895  1.0000
  C   C1318     1.0  0.57050  0.27159  0.81317  1.0000
  C   C1319     1.0  0.61393  0.26631  0.57936  1.0000
  C   C1320     1.0  0.66518  0.23906  0.63094  1.0000
  C   C1321     1.0  0.52829  0.17494  0.61317  1.0000
  N   N76       1.0  0.64067  0.21399  0.54277  1.0000
  S   S293      1.0  0.50266  0.32012  0.93699  1.0000
  H   H2331     1.0  0.61026  0.20607  0.58789  1.0000
  H   H2332     1.0  0.61800  0.28346  0.69411  1.0000
  S   S294      1.0  0.72844  0.24097  0.60671  1.0000
  C   C1322     1.0  0.63129  0.30824  0.87940  1.0000
  C   C1323     1.0  0.49999  0.15001  0.62756  1.0000
  Fe  Fe150     1.0  0.55412  0.27141  0.88219  1.0000
  H   H2333     1.0  0.65078  0.24994  0.63361  1.0000
  H   H2334     1.0  0.64330  0.23281  0.58054  1.0000
  N   N77       1.0  0.65338  0.21664  0.89737  1.0000
  C   C1324     1.0  0.64631  0.23180  0.92089  1.0000
  C   C1325     1.0  0.65117  0.19353  0.90577  1.0000
  C   C1326     1.0  0.67708  0.21913  0.89181  1.0000
  C   C1327     1.0  0.64097  0.22216  0.87095  1.0000
  C   C1328     1.0  0.61642  0.21951  0.87123  1.0000
  C   C1329     1.0  0.64874  0.25611  0.91626  1.0000
  C   C1330     1.0  0.68901  0.20158  0.87284  1.0000
  C   C1331     1.0  0.63188  0.18920  0.92489  1.0000
  H   H2335     1.0  0.52840  0.30451  0.51476  1.0000
  C   C1332     1.0  0.60535  0.22884  0.84503  1.0000
  C   C1333     1.0  0.64173  0.26942  0.94195  1.0000
  C   C1334     1.0  0.71202  0.20704  0.86638  1.0000
  H   H2336     1.0  0.65558  0.22697  0.94007  1.0000
  H   H2337     1.0  0.62901  0.23069  0.92607  1.0000
  H   H2338     1.0  0.65055  0.18304  0.88695  1.0000
  H   H2339     1.0  0.66576  0.18717  0.91776  1.0000
  H   H2340     1.0  0.68637  0.21930  0.91170  1.0000
  H   H2341     1.0  0.67904  0.23494  0.88190  1.0000
  H   H2342     1.0  0.64352  0.23882  0.86437  1.0000
  H   H2343     1.0  0.64736  0.21188  0.85347  1.0000
  H   H2344     1.0  0.60841  0.22773  0.88929  1.0000
  H   H2345     1.0  0.61367  0.20210  0.87168  1.0000
  H   H2346     1.0  0.66573  0.25925  0.91188  1.0000
  H   H2347     1.0  0.63825  0.26215  0.89884  1.0000
  H   H2348     1.0  0.68059  0.19993  0.85270  1.0000
  H   H2349     1.0  0.69034  0.18559  0.88304  1.0000
  H   H2350     1.0  0.60846  0.21688  0.52401  1.0000
  H   H2351     1.0  0.61624  0.19706  0.91754  1.0000
  H   H2352     1.0  0.66584  0.22396  0.51603  1.0000
  C   C1335     1.0  0.53855  0.18488  0.86705  1.0000
  H   H2353     1.0  0.58805  0.22543  0.84497  1.0000
  H   H2354     1.0  0.60614  0.24661  0.84448  1.0000
  H   H2355     1.0  0.61303  0.22149  0.82608  1.0000
  H   H2356     1.0  0.65235  0.26477  0.95994  1.0000
  H   H2357     1.0  0.64281  0.28682  0.93776  1.0000
  H   H2358     1.0  0.62466  0.26705  0.94719  1.0000
  H   H2359     1.0  0.72046  0.19386  0.85386  1.0000
  H   H2360     1.0  0.71160  0.22210  0.85411  1.0000
  H   H2361     1.0  0.72148  0.20898  0.88578  1.0000
  C   C1336     1.0  0.68768  0.28072  0.54849  1.0000
  C   C1337     1.0  0.53978  0.17009  0.77743  1.0000
  H   H2362     1.0  0.61718  0.23823  0.76315  1.0000
  H   H2363     1.0  0.63480  0.19546  0.94615  1.0000
  H   H2364     1.0  0.70562  0.27963  0.54667  1.0000
  C   C1338     1.0  0.62575  0.30711  0.66491  1.0000
  C   C1339     1.0  0.55585  0.18775  0.77423  1.0000
  H   H2365     1.0  0.66654  0.23729  0.75603  1.0000
  C   C1340     1.0  0.70349  0.23279  0.61869  1.0000
  C   C1341     1.0  0.68273  0.26010  0.71315  1.0000
  C   C1342     1.0  0.73952  0.30609  0.95193  1.0000
  C   C1343     1.0  0.57775  0.17819  0.76343  1.0000
  H   H2366     1.0  0.61794  0.26085  0.60080  1.0000
  H   H2367     1.0  0.54782  0.19904  0.86272  1.0000
  H   H2368     1.0  0.54846  0.15660  0.78893  1.0000
  H   H2369     1.0  0.60813  0.29331  0.85367  1.0000
  S   S295      1.0  0.54832  0.26425  0.60390  1.0000
  H   H2370     1.0  0.70516  0.22656  0.52707  1.0000
  H   H2371     1.0  0.65944  0.27795  0.52362  1.0000
  H   H2372     1.0  0.69215  0.30265  0.80060  1.0000
  H   H2373     1.0  0.64802  0.19609  0.58050  1.0000
  C   C1344     1.0  0.50031  0.09022  0.64958  1.0000
  Fe  Fe151     1.0  0.53534  0.30472  0.92327  1.0000
  H   H2374     1.0  0.54956  0.20003  0.75898  1.0000
  H   H2375     1.0  0.55881  0.19578  0.79436  1.0000
  H   H2376     1.0  0.70027  0.28899  0.70579  1.0000
  H   H2377     1.0  0.54802  0.17432  0.88201  1.0000
  C   C1345     1.0  0.66403  0.29147  0.73952  1.0000
  H   H2378     1.0  0.52289  0.19063  0.87678  1.0000
  H   H2379     1.0  0.64930  0.25782  0.77398  1.0000
  H   H2380     1.0  0.62549  0.27802  0.57292  1.0000
  H   H2381     1.0  0.61010  0.31669  0.98748  1.0000
  H   H2382     1.0  0.68310  0.26071  0.51313  1.0000
  S   S296      1.0  0.58501  0.24626  0.97416  1.0000
  H   H2383     1.0  0.50726  0.18936  0.75079  1.0000
  H   H2384     1.0  0.58864  0.19132  0.76066  1.0000
  H   H2385     1.0  0.58545  0.16635  0.77835  1.0000
  H   H2386     1.0  0.57577  0.17014  0.74302  1.0000
  C   C1346     1.0  0.65034  0.24628  0.75624  1.0000
  H   H2387     1.0  0.68050  0.32144  0.77526  1.0000
  H   H2388     1.0  0.65321  0.26994  0.67554  1.0000
  H   H2389     1.0  0.56147  0.27808  0.50592  1.0000
  C   C1347     1.0  0.68183  0.21296  0.55422  1.0000
  S   S297      1.0  0.68200  0.26313  0.83499  1.0000
  S   S298      1.0  0.73037  0.30073  0.84598  1.0000
  C   C1348     1.0  0.66364  0.21153  0.53208  1.0000
  H   H2390     1.0  0.59736  0.27465  0.57948  1.0000
  Fe  Fe152     1.0  0.71663  0.26843  0.84541  1.0000
  H   H2391     1.0  0.74277  0.21517  0.77661  1.0000
  H   H2392     1.0  0.68331  0.26830  0.56338  1.0000
  H   H2393     1.0  0.55089  0.16679  0.83195  1.0000
  H   H2394     1.0  0.52754  0.18276  0.63400  1.0000
  H   H2395     1.0  0.62833  0.22841  0.50458  1.0000
  H   H2396     1.0  0.50064  0.15612  0.64926  1.0000
  H   H2397     1.0  0.51378  0.31699  0.60809  1.0000
  H   H2398     1.0  0.50071  0.06994  0.89599  1.0000
  C   C1349     1.0  0.67719  0.27708  0.52030  1.0000
  C   C1350     1.0  0.65334  0.30942  0.88539  1.0000
  C   C1351     1.0  0.62569  0.21430  0.51785  1.0000
  S   S299      1.0  0.61160  0.32372  0.89879  1.0000
  C   C1352     1.0  0.73636  0.31171  0.75775  1.0000
  H   H2399     1.0  0.72308  0.24420  0.69248  1.0000
  C   C1353     1.0  0.52280  0.15147  0.61500  1.0000
  C   C1354     1.0  0.50744  0.11306  0.64352  1.0000
  H   H2400     1.0  0.49799  0.28236  0.97189  1.0000
  H   H2401     1.0  0.70711  0.32448  0.73691  1.0000
  H   H2402     1.0  0.52140  0.31642  0.55818  1.0000
  H   H2403     1.0  0.65548  0.32164  0.96034  1.0000
  H   H2404     1.0  0.50627  0.10252  0.79955  1.0000
  H   H2405     1.0  0.70012  0.29662  0.50083  1.0000
  H   H2406     1.0  0.50782  0.01207  0.73283  1.0000
  C   C1355     1.0  0.51487  0.13547  0.79451  1.0000
  H   H2407     1.0  0.63723  0.31970  0.66207  1.0000
  H   H2408     1.0  0.51646  0.20935  0.77319  1.0000
  H   H2409     1.0  0.52603  0.15811  0.84600  1.0000
  C   C1356     1.0  0.50648  0.18079  0.69581  1.0000
  H   H2410     1.0  0.50811  0.19683  0.68799  1.0000
  C   C1357     1.0  0.50202  0.13928  0.71623  1.0000
  H   H2411     1.0  0.50066  0.12343  0.72459  1.0000
  C   C1358     1.0  0.50731  0.19476  0.77280  1.0000
  H   H2412     1.0  0.49785  0.08111  0.63010  1.0000
  C   C1359     1.0  0.49804  0.11905  0.79805  1.0000
  C   C1360     1.0  0.62783  0.19387  0.49898  1.0000
  H   H2413     1.0  0.52687  0.64622  0.40949  1.0000
  H   H2414     1.0  0.50886  0.65795  0.45284  1.0000
  H   H2415     1.0  0.59316  0.65908  0.45911  1.0000
  H   H2416     1.0  0.71858  0.37355  0.18955  1.0000
  H   H2417     1.0  0.50757  0.47226  0.27965  1.0000
  C   C1361     1.0  0.50364  0.59111  0.37465  1.0000
  H   H2418     1.0  0.65487  0.33306  0.46156  1.0000
  H   H2419     1.0  0.51036  0.34761  0.08624  1.0000
  C   C1362     1.0  0.67806  0.34874  0.43812  1.0000
  H   H2420     1.0  0.73794  0.37796  0.00484  1.0000
  C   C1363     1.0  0.67276  0.33250  0.46016  1.0000
  C   C1364     1.0  0.50445  0.61100  0.39338  1.0000
  H   H2421     1.0  0.72333  0.64024  0.16932  1.0000
  H   H2422     1.0  0.66420  0.65620  0.21734  1.0000
  C   C1365     1.0  0.50573  0.35544  0.41763  1.0000
  H   H2423     1.0  0.50920  0.38924  0.41075  1.0000
  C   C1366     1.0  0.53224  0.34298  0.48889  1.0000
  H   H2424     1.0  0.59846  0.32826  0.30211  1.0000
  H   H2425     1.0  0.67921  0.33805  0.48032  1.0000
  C   C1367     1.0  0.50816  0.65013  0.30432  1.0000
  H   H2426     1.0  0.54006  0.63847  0.31838  1.0000
  C   C1368     1.0  0.55035  0.34741  0.00048  1.0000
  H   H2427     1.0  0.56088  0.34148  0.31130  1.0000
  H   H2428     1.0  0.53382  0.33693  0.46718  1.0000
  H   H2429     1.0  0.50416  0.59789  0.22632  1.0000
  H   H2430     1.0  0.51156  0.59369  0.35446  1.0000
  S   S300      1.0  0.70851  0.32900  0.17469  1.0000
  H   H2431     1.0  0.52225  0.35030  0.41203  1.0000
  C   C1369     1.0  0.72790  0.34986  0.48638  1.0000
  C   C1370     1.0  0.52893  0.65258  0.31501  1.0000
  H   H2432     1.0  0.67162  0.36522  0.44456  1.0000
  H   H2433     1.0  0.65004  0.65101  0.26416  1.0000
  H   H2434     1.0  0.51023  0.65416  0.19937  1.0000
  H   H2435     1.0  0.67052  0.34479  0.41793  1.0000
  H   H2436     1.0  0.50591  0.57917  0.19752  1.0000
  H   H2437     1.0  0.66973  0.64122  0.45652  1.0000
  C   C1371     1.0  0.73748  0.34919  0.46009  1.0000
  H   H2438     1.0  0.52175  0.61322  0.39747  1.0000
  H   H2439     1.0  0.64269  0.65431  0.45449  1.0000
  H   H2440     1.0  0.69780  0.65801  0.20289  1.0000
  C   C1372     1.0  0.49829  0.37747  0.41690  1.0000
  H   H2441     1.0  0.55323  0.36121  0.01442  1.0000
  H   H2442     1.0  0.50856  0.65061  0.16303  1.0000
  S   S301      1.0  0.73217  0.33528  0.09536  1.0000
  H   H2443     1.0  0.68512  0.65497  0.16923  1.0000
  H   H2444     1.0  0.56085  0.33295  0.00700  1.0000
  C   C1373     1.0  0.71927  0.65795  0.16833  1.0000
  H   H2445     1.0  0.73666  0.36364  0.44766  1.0000
  H   H2446     1.0  0.52488  0.65500  0.37499  1.0000
  C   C1374     1.0  0.51719  0.65754  0.39572  1.0000
  H   H2447     1.0  0.57305  0.32966  0.34229  1.0000
  H   H2448     1.0  0.69585  0.34869  0.43541  1.0000
  H   H2449     1.0  0.53095  0.36090  0.48842  1.0000
  H   H2450     1.0  0.71952  0.36474  0.49382  1.0000
  C   C1375     1.0  0.73128  0.38304  0.18076  1.0000
  C   C1376     1.0  0.66018  0.65711  0.45538  1.0000
  C   C1377     1.0  0.52652  0.34274  0.00093  1.0000
  H   H2451     1.0  0.72549  0.38939  0.16032  1.0000
  H   H2452     1.0  0.50800  0.63018  0.44359  1.0000
  H   H2453     1.0  0.73367  0.39669  0.19515  1.0000
  H   H2454     1.0  0.52260  0.35095  0.04399  1.0000
  H   H2455     1.0  0.51230  0.57690  0.38483  1.0000
  C   C1378     1.0  0.51952  0.33688  0.03059  1.0000
  H   H2456     1.0  0.50797  0.61547  0.17954  1.0000
  H   H2457     1.0  0.63891  0.66076  0.12889  1.0000
  C   C1379     1.0  0.50011  0.65903  0.18088  1.0000
  S   S302      1.0  0.50039  0.62390  0.29721  1.0000
  C   C1380     1.0  0.74747  0.32991  0.44940  1.0000
  H   H2458     1.0  0.49873  0.63208  0.35804  1.0000
  H   H2459     1.0  0.49792  0.34164  0.48952  1.0000
  C   C1381     1.0  0.49782  0.64532  0.44764  1.0000
  H   H2460     1.0  0.55693  0.65424  0.77021  1.0000
  H   H2461     1.0  0.51652  0.41993  0.81741  1.0000
  H   H2462     1.0  0.71928  0.37732  0.90315  1.0000
  H   H2463     1.0  0.52468  0.32933  0.98617  1.0000
  H   H2464     1.0  0.50167  0.40172  0.83728  1.0000
  C   C1382     1.0  0.68111  0.35180  0.93844  1.0000
  N   N78       1.0  0.69801  0.36778  0.93556  1.0000
  H   H2465     1.0  0.72941  0.34770  0.86057  1.0000
  H   H2466     1.0  0.55488  0.35160  0.97904  1.0000
  H   H2467     1.0  0.71376  0.37271  0.85223  1.0000
  C   C1383     1.0  0.67034  0.39661  0.91344  1.0000
  H   H2468     1.0  0.72482  0.35022  0.91408  1.0000
  H   H2469     1.0  0.72313  0.37815  0.70077  1.0000
  S   S303      1.0  0.50530  0.62241  0.79973  1.0000
  H   H2470     1.0  0.52178  0.65624  0.91916  1.0000
  H   H2471     1.0  0.73111  0.40052  0.68072  1.0000
  H   H2472     1.0  0.51054  0.34250  0.52325  1.0000
  H   H2473     1.0  0.70079  0.40208  0.93195  1.0000
  H   H2474     1.0  0.68137  0.39536  0.95627  1.0000
  C   C1384     1.0  0.66024  0.41967  0.91773  1.0000
  H   H2475     1.0  0.66031  0.37009  0.96905  1.0000
  C   C1385     1.0  0.68810  0.39080  0.93550  1.0000
  C   C1386     1.0  0.66761  0.35343  0.96545  1.0000
  H   H2476     1.0  0.67277  0.43140  0.91638  1.0000
  S   S304      1.0  0.71786  0.32886  0.67952  1.0000
  H   H2477     1.0  0.68330  0.36207  0.88026  1.0000
  C   C1387     1.0  0.51152  0.64868  0.80920  1.0000
  H   H2478     1.0  0.63746  0.34369  0.94733  1.0000
  C   C1388     1.0  0.71129  0.36280  0.90967  1.0000
  H   H2479     1.0  0.50782  0.39244  0.89820  1.0000
  H   H2480     1.0  0.70441  0.37002  0.97985  1.0000
  C   C1389     1.0  0.53228  0.65173  0.81938  1.0000
  H   H2481     1.0  0.72893  0.39569  0.95904  1.0000
  H   H2482     1.0  0.65698  0.38586  0.91438  1.0000
  H   H2483     1.0  0.52840  0.65072  0.71940  1.0000
  H   H2484     1.0  0.56454  0.65907  0.72020  1.0000
  H   H2485     1.0  0.72873  0.37446  0.66441  1.0000
  C   C1390     1.0  0.59042  0.65922  0.76593  1.0000
  C   C1391     1.0  0.71276  0.35552  0.85770  1.0000
  H   H2486     1.0  0.54416  0.63804  0.82134  1.0000
  C   C1392     1.0  0.69950  0.35374  0.88406  1.0000
  C   C1393     1.0  0.71308  0.36517  0.96036  1.0000
  C   C1394     1.0  0.72911  0.33153  0.50312  1.0000
  H   H2487     1.0  0.67788  0.34839  0.98361  1.0000
  C   C1395     1.0  0.64914  0.33862  0.96413  1.0000
  H   H2488     1.0  0.52110  0.35400  0.90552  1.0000
  H   H2489     1.0  0.67752  0.39584  0.89242  1.0000
  H   H2490     1.0  0.66942  0.35291  0.92093  1.0000
  H   H2491     1.0  0.74385  0.37350  0.94160  1.0000
  H   H2492     1.0  0.65220  0.42138  0.93825  1.0000
  H   H2493     1.0  0.64784  0.42358  0.90137  1.0000
  H   H2494     1.0  0.51687  0.35730  0.99315  1.0000
  H   H2495     1.0  0.63417  0.65847  0.55458  1.0000
  C   C1396     1.0  0.73352  0.37810  0.95977  1.0000
  H   H2496     1.0  0.59428  0.65514  0.78791  1.0000
  H   H2497     1.0  0.50288  0.46019  0.81894  1.0000
  S   S305      1.0  0.71460  0.33291  0.53477  1.0000
  H   H2498     1.0  0.59400  0.64452  0.75298  1.0000
  H   H2499     1.0  0.52405  0.65951  0.75382  1.0000
  H   H2500     1.0  0.71877  0.34787  0.96286  1.0000
  H   H2501     1.0  0.51718  0.60195  0.89656  1.0000
  C   C1397     1.0  0.73367  0.38279  0.68364  1.0000
  H   H2502     1.0  0.69728  0.33637  0.88736  1.0000
  C   C1398     1.0  0.50557  0.60344  0.87887  1.0000
  H   H2503     1.0  0.70486  0.34737  0.84020  1.0000
  H   H2504     1.0  0.68896  0.33508  0.93710  1.0000
  H   H2505     1.0  0.51381  0.59648  0.86004  1.0000
  H   H2506     1.0  0.50875  0.52075  0.79414  1.0000
  H   H2507     1.0  0.64040  0.33948  0.98418  1.0000
  H   H2508     1.0  0.53127  0.66131  0.67555  1.0000
  H   H2509     1.0  0.51260  0.63562  0.86892  1.0000
  C   C1399     1.0  0.50672  0.36082  0.91605  1.0000
  H   H2510     1.0  0.54699  0.33731  0.50087  1.0000
  C   C1400     1.0  0.51199  0.33524  0.50220  1.0000
  C   C1401     1.0  0.50004  0.41591  0.82333  1.0000
  C   C1402     1.0  0.49916  0.38254  0.91190  1.0000
  H   H2511     1.0  0.49905  0.48355  0.78358  1.0000
  C   C1403     1.0  0.49807  0.62711  0.87371  1.0000
  S   S306      1.0  0.74700  0.33616  0.60594  1.0000
  C   C1404     1.0  0.74749  0.37394  0.98579  1.0000
  H   H2512     1.0  0.49766  0.51846  0.75962  1.0000
  Fe  Fe153     1.0  0.61765  0.76261  0.10159  1.0000
  S   S307      1.0  0.65050  0.77567  0.10306  1.0000
  Fe  Fe154     1.0  0.56991  0.77709  0.11114  1.0000
  S   S308      1.0  0.56012  0.74369  0.10394  1.0000
  S   S309      1.0  0.54528  0.80329  0.12634  1.0000
  Fe  Fe155     1.0  0.58891  0.73292  0.13042  1.0000
  Fe  Fe156     1.0  0.58329  0.74233  0.06796  1.0000
  S   S310      1.0  0.59729  0.76646  0.13977  1.0000
  S   S311      1.0  0.59106  0.77682  0.07356  1.0000
  S   S312      1.0  0.68868  0.81914  0.42017  1.0000
  S   S313      1.0  0.59813  0.78641  0.38401  1.0000
  C   C1405     1.0  0.69808  0.75645  0.34670  1.0000
  H   H2513     1.0  0.68722  0.78270  0.13671  1.0000
  H   H2514     1.0  0.55752  0.83117  0.45411  1.0000
  H   H2515     1.0  0.50320  0.76641  0.23075  1.0000
  C   C1406     1.0  0.53613  0.79592  0.43638  1.0000
  C   C1407     1.0  0.52104  0.68090  0.40498  1.0000
  H   H2516     1.0  0.54893  0.67206  0.43173  1.0000
  C   C1408     1.0  0.59814  0.81887  0.45992  1.0000
  H   H2517     1.0  0.54506  0.77963  0.43460  1.0000
  H   H2518     1.0  0.51887  0.78078  0.00206  1.0000
  C   C1409     1.0  0.52100  0.69152  0.31797  1.0000
  C   C1410     1.0  0.66453  0.80854  0.40886  1.0000
  C   C1411     1.0  0.66229  0.78636  0.40592  1.0000
  C   C1412     1.0  0.64205  0.77910  0.39807  1.0000
  C   C1413     1.0  0.62418  0.79405  0.39292  1.0000
  C   C1414     1.0  0.62669  0.81607  0.39579  1.0000
  C   C1415     1.0  0.64662  0.82323  0.40387  1.0000
  H   H2519     1.0  0.67593  0.77488  0.41032  1.0000
  H   H2520     1.0  0.64022  0.76203  0.39655  1.0000
  H   H2521     1.0  0.61308  0.82773  0.39186  1.0000
  H   H2522     1.0  0.64816  0.84036  0.40622  1.0000
  C   C1416     1.0  0.52673  0.81371  0.10096  1.0000
  C   C1417     1.0  0.52900  0.80720  0.07325  1.0000
  C   C1418     1.0  0.50039  0.68912  0.30666  1.0000
  H   H2523     1.0  0.53523  0.73916  0.26422  1.0000
  H   H2524     1.0  0.49834  0.69218  0.19762  1.0000
  H   H2525     1.0  0.55472  0.77504  0.48007  1.0000
  H   H2526     1.0  0.54216  0.79561  0.06726  1.0000
  H   H2527     1.0  0.69726  0.72222  0.33422  1.0000
  C   C1419     1.0  0.57932  0.68134  0.48993  1.0000
  C   C1420     1.0  0.51435  0.81588  0.05314  1.0000
  C   C1421     1.0  0.54091  0.70650  0.25041  1.0000
  H   H2528     1.0  0.60997  0.74340  0.18716  1.0000
  C   C1422     1.0  0.70901  0.73082  0.12996  1.0000
  C   C1423     1.0  0.69278  0.72276  0.11333  1.0000
  C   C1424     1.0  0.67432  0.73618  0.10562  1.0000
  C   C1425     1.0  0.67233  0.75786  0.11400  1.0000
  C   C1426     1.0  0.68872  0.76597  0.13011  1.0000
  C   C1427     1.0  0.70665  0.75237  0.13866  1.0000
  H   H2529     1.0  0.69453  0.70614  0.10634  1.0000
  H   H2530     1.0  0.66194  0.72992  0.09266  1.0000
  H   H2531     1.0  0.54815  0.69688  0.23282  1.0000
  H   H2532     1.0  0.60820  0.75783  0.47505  1.0000
  S   S314      1.0  0.73345  0.76852  0.41528  1.0000
  H   H2533     1.0  0.51889  0.79322  0.43190  1.0000
  H   H2534     1.0  0.57727  0.73597  0.48570  1.0000
  H   H2535     1.0  0.65802  0.77196  0.00221  1.0000
  H   H2536     1.0  0.66954  0.79257  0.04926  1.0000
  H   H2537     1.0  0.50771  0.83384  0.12990  1.0000
  H   H2538     1.0  0.63409  0.77528  0.04313  1.0000
  H   H2539     1.0  0.69949  0.79995  0.36140  1.0000
  H   H2540     1.0  0.68727  0.76297  0.27666  1.0000
  H   H2541     1.0  0.70247  0.75262  0.48758  1.0000
  H   H2542     1.0  0.61409  0.80930  0.45986  1.0000
  C   C1428     1.0  0.69701  0.66375  0.18116  1.0000
  C   C1429     1.0  0.57515  0.70298  0.49785  1.0000
  H   H2543     1.0  0.68907  0.83318  0.07189  1.0000
  H   H2544     1.0  0.63514  0.69304  0.18089  1.0000
  C   C1430     1.0  0.65141  0.69122  0.14142  1.0000
  H   H2545     1.0  0.62074  0.76934  0.30842  1.0000
  Fe  Fe157     1.0  0.59373  0.75343  0.36622  1.0000
  H   H2546     1.0  0.63863  0.67150  0.22245  1.0000
  H   H2547     1.0  0.59541  0.82615  0.43911  1.0000
  H   H2548     1.0  0.70375  0.69560  0.19363  1.0000
  H   H2549     1.0  0.55767  0.82563  0.48988  1.0000
  C   C1431     1.0  0.65137  0.68684  0.17304  1.0000
  H   H2550     1.0  0.69297  0.76582  0.36560  1.0000
  H   H2551     1.0  0.69411  0.69413  0.15937  1.0000
  H   H2552     1.0  0.70425  0.78943  0.02293  1.0000
  H   H2553     1.0  0.74413  0.79735  0.07796  1.0000
  H   H2554     1.0  0.52127  0.79947  0.38103  1.0000
  C   C1432     1.0  0.58015  0.80434  0.46641  1.0000
  H   H2555     1.0  0.68301  0.71790  0.48592  1.0000
  S   S315      1.0  0.58965  0.69564  0.33659  1.0000
  C   C1433     1.0  0.70365  0.72385  0.37790  1.0000
  H   H2556     1.0  0.63509  0.69074  0.47428  1.0000
  H   H2557     1.0  0.65276  0.75157  0.04520  1.0000
  H   H2558     1.0  0.71064  0.71903  0.26470  1.0000
  H   H2559     1.0  0.68551  0.80042  0.48163  1.0000
  C   C1434     1.0  0.64035  0.74066  0.47401  1.0000
  H   H2560     1.0  0.53702  0.68182  0.18569  1.0000
  C   C1435     1.0  0.70130  0.76851  0.47719  1.0000
  H   H2561     1.0  0.62789  0.77078  0.45531  1.0000
  H   H2562     1.0  0.59851  0.83200  0.47558  1.0000
  H   H2563     1.0  0.52343  0.70389  0.25178  1.0000
  S   S316      1.0  0.61135  0.72799  0.09373  1.0000
  N   N79       1.0  0.53829  0.80502  0.46541  1.0000
  H   H2564     1.0  0.68718  0.80801  0.08800  1.0000
  C   C1436     1.0  0.63862  0.75923  0.03365  1.0000
  H   H2565     1.0  0.51587  0.75976  0.12890  1.0000
  H   H2566     1.0  0.54676  0.69960  0.42029  1.0000
  C   C1437     1.0  0.72300  0.82596  0.04202  1.0000
  H   H2567     1.0  0.52636  0.70575  0.16784  1.0000
  C   C1438     1.0  0.68162  0.73377  0.20408  1.0000
  C   C1439     1.0  0.67424  0.75784  0.20376  1.0000
  H   H2568     1.0  0.64708  0.81973  0.07884  1.0000
  H   H2569     1.0  0.66927  0.72487  0.16446  1.0000
  H   H2570     1.0  0.69832  0.73174  0.19563  1.0000
  H   H2571     1.0  0.68221  0.72874  0.22606  1.0000
  H   H2572     1.0  0.68671  0.76713  0.21390  1.0000
  H   H2573     1.0  0.67176  0.76367  0.18220  1.0000
  H   H2574     1.0  0.65882  0.76102  0.21520  1.0000
  C   C1440     1.0  0.65111  0.78390  0.30247  1.0000
  C   C1441     1.0  0.65611  0.67035  0.22822  1.0000
  C   C1442     1.0  0.62686  0.78562  0.30850  1.0000
  C   C1443     1.0  0.69755  0.78874  0.31806  1.0000
  H   H2575     1.0  0.65703  0.75404  0.32430  1.0000
  N   N80       1.0  0.68815  0.76728  0.32121  1.0000
  H   H2576     1.0  0.69048  0.75343  0.02493  1.0000
  S   S317      1.0  0.57010  0.73244  0.02601  1.0000
  C   C1444     1.0  0.51835  0.81934  0.47344  1.0000
  H   H2577     1.0  0.65826  0.70109  0.46050  1.0000
  S   S318      1.0  0.73155  0.71356  0.14070  1.0000
  H   H2578     1.0  0.57997  0.79180  0.44990  1.0000
  H   H2579     1.0  0.73197  0.66614  0.17972  1.0000
  H   H2580     1.0  0.51874  0.73333  0.21578  1.0000
  C   C1445     1.0  0.60251  0.70300  0.24641  1.0000
  C   C1446     1.0  0.61465  0.72066  0.25119  1.0000
  H   H2581     1.0  0.61796  0.79544  0.29229  1.0000
  H   H2582     1.0  0.73150  0.80770  0.14203  1.0000
  H   H2583     1.0  0.50202  0.78470  0.14125  1.0000
  C   C1447     1.0  0.69200  0.80556  0.34148  1.0000
  H   H2584     1.0  0.69938  0.70706  0.38113  1.0000
  H   H2585     1.0  0.64939  0.72677  0.19059  1.0000
  Fe  Fe158     1.0  0.56266  0.72176  0.34137  1.0000
  N   N81       1.0  0.66885  0.69634  0.19013  1.0000
  H   H2586     1.0  0.74159  0.83540  0.09214  1.0000
  H   H2587     1.0  0.69520  0.83977  0.01785  1.0000
  C   C1448     1.0  0.72770  0.80447  0.08397  1.0000
  S   S319      1.0  0.62925  0.72321  0.28239  1.0000
  C   C1449     1.0  0.53526  0.67315  0.32202  1.0000
  H   H2588     1.0  0.71822  0.75849  0.15275  1.0000
  H   H2589     1.0  0.65625  0.80055  0.30204  1.0000
  H   H2590     1.0  0.71606  0.75654  0.34649  1.0000
  C   C1450     1.0  0.70076  0.82716  0.33485  1.0000
  C   C1451     1.0  0.54061  0.78651  0.48566  1.0000
  H   H2591     1.0  0.56233  0.80942  0.41323  1.0000
  H   H2592     1.0  0.62490  0.74898  0.03586  1.0000
  C   C1452     1.0  0.69309  0.75389  0.29542  1.0000
  H   H2593     1.0  0.63698  0.81686  0.04411  1.0000
  H   H2594     1.0  0.63514  0.68197  0.10367  1.0000
  C   C1453     1.0  0.54449  0.80917  0.41208  1.0000
  H   H2595     1.0  0.72096  0.79232  0.09759  1.0000
  H   H2596     1.0  0.65958  0.77698  0.34545  1.0000
  H   H2597     1.0  0.68397  0.73918  0.29534  1.0000
  H   H2598     1.0  0.61503  0.71440  0.01650  1.0000
  C   C1454     1.0  0.50754  0.75989  0.17287  1.0000
  C   C1455     1.0  0.66388  0.77003  0.32470  1.0000
  C   C1456     1.0  0.72040  0.73321  0.26394  1.0000
  H   H2599     1.0  0.74390  0.83287  0.14275  1.0000
  H   H2600     1.0  0.67430  0.80862  0.34457  1.0000
  C   C1457     1.0  0.66604  0.69166  0.22067  1.0000
  C   C1458     1.0  0.51265  0.83956  0.45544  1.0000
  C   C1459     1.0  0.61704  0.73531  0.22976  1.0000
  H   H2601     1.0  0.52645  0.84966  0.45358  1.0000
  C   C1460     1.0  0.69125  0.68839  0.18063  1.0000
  H   H2602     1.0  0.69744  0.83853  0.35252  1.0000
  H   H2603     1.0  0.69275  0.79615  0.29775  1.0000
  C   C1461     1.0  0.71737  0.74685  0.29036  1.0000
  C   C1462     1.0  0.73085  0.82455  0.10252  1.0000
  H   H2604     1.0  0.58456  0.68568  0.21624  1.0000
  H   H2605     1.0  0.60081  0.69144  0.26274  1.0000
  H   H2606     1.0  0.55108  0.67468  0.33091  1.0000
  C   C1463     1.0  0.66633  0.72052  0.18632  1.0000
  H   H2607     1.0  0.65198  0.66910  0.17538  1.0000
  H   H2608     1.0  0.49817  0.85977  0.48883  1.0000
  H   H2609     1.0  0.62641  0.74897  0.23337  1.0000
  H   H2610     1.0  0.53759  0.82613  0.41227  1.0000
  H   H2611     1.0  0.51038  0.68637  0.42250  1.0000
  H   H2612     1.0  0.69578  0.77064  0.07082  1.0000
  H   H2613     1.0  0.54588  0.80853  0.36712  1.0000
  H   H2614     1.0  0.64693  0.70855  0.13725  1.0000
  C   C1464     1.0  0.62542  0.76149  0.47443  1.0000
  H   H2615     1.0  0.71906  0.74524  0.02303  1.0000
  C   C1465     1.0  0.71180  0.83227  0.01414  1.0000
  Fe  Fe159     1.0  0.59974  0.70639  0.37926  1.0000
  H   H2616     1.0  0.65133  0.84002  0.05320  1.0000
  H   H2617     1.0  0.71569  0.74313  0.24549  1.0000
  S   S320      1.0  0.60820  0.68435  0.41527  1.0000
  S   S321      1.0  0.58122  0.74776  0.32313  1.0000
  C   C1466     1.0  0.59021  0.71374  0.45398  1.0000
  Fe  Fe160     1.0  0.60874  0.72213  0.32078  1.0000
  C   C1467     1.0  0.58055  0.71922  0.47979  1.0000
  H   H2618     1.0  0.52960  0.68052  0.14937  1.0000
  Fe  Fe161     1.0  0.72294  0.80368  0.41725  1.0000
  S   S322      1.0  0.57156  0.73087  0.38498  1.0000
  C   C1468     1.0  0.69226  0.73305  0.35182  1.0000
  H   H2619     1.0  0.71556  0.78647  0.31756  1.0000
  C   C1469     1.0  0.55789  0.81766  0.46901  1.0000
  N   N82       1.0  0.53537  0.76262  0.21312  1.0000
  C   C1470     1.0  0.52994  0.76648  0.18286  1.0000
  C   C1471     1.0  0.55787  0.76915  0.21962  1.0000
  C   C1472     1.0  0.53537  0.73862  0.21809  1.0000
  H   H2620     1.0  0.72153  0.72363  0.37574  1.0000
  C   C1473     1.0  0.65057  0.82247  0.05663  1.0000
  H   H2621     1.0  0.67491  0.66411  0.26622  1.0000
  C   C1474     1.0  0.54391  0.73048  0.24691  1.0000
  C   C1475     1.0  0.56543  0.78903  0.20424  1.0000
  C   C1476     1.0  0.58704  0.79542  0.21581  1.0000
  H   H2622     1.0  0.51646  0.81103  0.03174  1.0000
  C   C1477     1.0  0.50953  0.82874  0.10848  1.0000
  H   H2623     1.0  0.58428  0.79607  0.48635  1.0000
  H   H2624     1.0  0.54256  0.75771  0.16958  1.0000
  H   H2625     1.0  0.53053  0.78370  0.17742  1.0000
  H   H2626     1.0  0.55990  0.77174  0.24236  1.0000
  H   H2627     1.0  0.57017  0.75579  0.21402  1.0000
  H   H2628     1.0  0.54545  0.72946  0.20211  1.0000
  H   H2629     1.0  0.52803  0.80714  0.23573  1.0000
  H   H2630     1.0  0.51042  0.80296  0.20634  1.0000
  H   H2631     1.0  0.54903  0.70062  0.26986  1.0000
  C   C1478     1.0  0.51404  0.79865  0.22824  1.0000
  H   H2632     1.0  0.66452  0.66523  0.43599  1.0000
  C   C1479     1.0  0.52080  0.77288  0.48785  1.0000
  H   H2633     1.0  0.74046  0.82124  0.03774  1.0000
  H   H2634     1.0  0.73150  0.78480  0.03276  1.0000
  H   H2635     1.0  0.56145  0.73260  0.24929  1.0000
  H   H2636     1.0  0.56784  0.78510  0.18192  1.0000
  H   H2637     1.0  0.55358  0.80327  0.20548  1.0000
  H   H2638     1.0  0.59975  0.78182  0.21367  1.0000
  H   H2639     1.0  0.59222  0.80934  0.20401  1.0000
  H   H2640     1.0  0.58546  0.80016  0.23802  1.0000
  H   H2641     1.0  0.72396  0.86418  0.01155  1.0000
  C   C1480     1.0  0.64435  0.76161  0.00314  1.0000
  C   C1481     1.0  0.58957  0.67588  0.46470  1.0000
  H   H2642     1.0  0.52396  0.77201  0.25419  1.0000
  H   H2643     1.0  0.71759  0.77467  0.47685  1.0000
  H   H2644     1.0  0.66744  0.68645  0.13222  1.0000
  H   H2645     1.0  0.69849  0.73368  0.39642  1.0000
  H   H2646     1.0  0.71856  0.82510  0.33159  1.0000
  C   C1482     1.0  0.50295  0.76683  0.14290  1.0000
  C   C1483     1.0  0.59587  0.71433  0.19851  1.0000
  H   H2647     1.0  0.72402  0.76158  0.07042  1.0000
  H   H2648     1.0  0.55572  0.67834  0.39636  1.0000
  C   C1484     1.0  0.70529  0.74899  0.03734  1.0000
  H   H2649     1.0  0.65514  0.70460  0.23062  1.0000
  H   H2650     1.0  0.71511  0.83371  0.10706  1.0000
  C   C1485     1.0  0.65770  0.66605  0.25937  1.0000
  H   H2651     1.0  0.63634  0.73152  0.45502  1.0000
  H   H2652     1.0  0.54638  0.78228  0.38256  1.0000
  C   C1486     1.0  0.50211  0.68364  0.17771  1.0000
  C   C1487     1.0  0.53908  0.79920  0.38404  1.0000
  H   H2653     1.0  0.59452  0.72629  0.44019  1.0000
  C   C1488     1.0  0.72402  0.84906  0.99910  1.0000
  C   C1489     1.0  0.59335  0.69974  0.22005  1.0000
  C   C1490     1.0  0.60765  0.73219  0.20356  1.0000
  H   H2654     1.0  0.51986  0.82478  0.49541  1.0000
  C   C1491     1.0  0.51881  0.77403  0.23217  1.0000
  H   H2655     1.0  0.67458  0.73258  0.35490  1.0000
  S   S323      1.0  0.58472  0.70940  0.16544  1.0000
  H   H2656     1.0  0.72666  0.76116  0.28775  1.0000
  H   H2657     1.0  0.73771  0.72726  0.26178  1.0000
  S   S324      1.0  0.62240  0.72945  0.36280  1.0000
  C   C1492     1.0  0.59486  0.69199  0.44648  1.0000
  H   H2658     1.0  0.65341  0.77655  0.28154  1.0000
  H   H2659     1.0  0.68267  0.67262  0.48100  1.0000
  C   C1493     1.0  0.52517  0.68812  0.16971  1.0000
  H   H2660     1.0  0.70271  0.73430  0.04941  1.0000
  H   H2661     1.0  0.67485  0.81368  0.02621  1.0000
  C   C1494     1.0  0.68544  0.78462  0.49215  1.0000
  S   S325      1.0  0.52817  0.71757  0.32732  1.0000
  H   H2662     1.0  0.51751  0.69216  0.38740  1.0000
  N   N83       1.0  0.71355  0.80847  0.05849  1.0000
  C   C1495     1.0  0.71496  0.78794  0.04143  1.0000
  H   H2663     1.0  0.62350  0.79345  0.32900  1.0000
  H   H2664     1.0  0.69276  0.83427  0.31597  1.0000
  C   C1496     1.0  0.69072  0.81548  0.06774  1.0000
  C   C1497     1.0  0.67187  0.81002  0.04815  1.0000
  C   C1498     1.0  0.70995  0.76733  0.05721  1.0000
  H   H2665     1.0  0.68179  0.69198  0.23192  1.0000
  H   H2666     1.0  0.72459  0.73712  0.30778  1.0000
  C   C1499     1.0  0.54456  0.68273  0.41384  1.0000
  H   H2667     1.0  0.69577  0.76637  0.45547  1.0000
  H   H2668     1.0  0.66898  0.77906  0.48963  1.0000
  H   H2669     1.0  0.50696  0.74214  0.17356  1.0000
  H   H2670     1.0  0.72246  0.84127  0.05416  1.0000
  H   H2671     1.0  0.65723  0.74511  0.47218  1.0000
  H   H2672     1.0  0.50731  0.83459  0.43449  1.0000
  C   C1500     1.0  0.65228  0.69322  0.47928  1.0000
  H   H2673     1.0  0.64909  0.67951  0.27121  1.0000
  H   H2674     1.0  0.50362  0.81031  0.47250  1.0000
  H   H2675     1.0  0.71115  0.81816  0.00006  1.0000
  C   C1501     1.0  0.66503  0.67082  0.48081  1.0000
  H   H2676     1.0  0.51464  0.76854  0.46706  1.0000
  H   H2677     1.0  0.61833  0.68284  0.13405  1.0000
  C   C1502     1.0  0.74169  0.81819  0.13011  1.0000
  H   H2678     1.0  0.53785  0.74101  0.49142  1.0000
  C   C1503     1.0  0.63492  0.67837  0.12619  1.0000
  H   H2679     1.0  0.62900  0.77162  0.49272  1.0000
  S   S326      1.0  0.74625  0.81248  0.38455  1.0000
  S   S327      1.0  0.74521  0.81055  0.45258  1.0000
  H   H2680     1.0  0.71929  0.66291  0.14622  1.0000
  H   H2681     1.0  0.71064  0.85592  0.49620  1.0000
  Fe  Fe162     1.0  0.61692  0.75208  0.57820  1.0000
  S   S328      1.0  0.65239  0.75335  0.56933  1.0000
  Fe  Fe163     1.0  0.57471  0.78085  0.57572  1.0000
  S   S329      1.0  0.55510  0.75392  0.58824  1.0000
  S   S330      1.0  0.56199  0.81556  0.56868  1.0000
  Fe  Fe164     1.0  0.58150  0.74581  0.61978  1.0000
  Fe  Fe165     1.0  0.57611  0.73359  0.55857  1.0000
  S   S331      1.0  0.59974  0.77432  0.60920  1.0000
  S   S332      1.0  0.59367  0.76121  0.54346  1.0000
  S   S333      1.0  0.69339  0.82216  0.89913  1.0000
  S   S334      1.0  0.60341  0.79118  0.85808  1.0000
  C   C1504     1.0  0.56932  0.78315  0.92720  1.0000
  H   H2682     1.0  0.64681  0.71851  0.60800  1.0000
  H   H2683     1.0  0.57418  0.71358  0.92762  1.0000
  H   H2684     1.0  0.59395  0.75701  0.93103  1.0000
  C   C1505     1.0  0.49955  0.81217  0.96373  1.0000
  C   C1506     1.0  0.49948  0.80952  0.54638  1.0000
  C   C1507     1.0  0.66067  0.75101  0.93765  1.0000
  H   H2685     1.0  0.52053  0.79528  0.61324  1.0000
  H   H2686     1.0  0.67976  0.83341  0.50981  1.0000
  S   S335      1.0  0.52903  0.71638  0.83464  1.0000
  H   H2687     1.0  0.68795  0.70443  0.54738  1.0000
  C   C1508     1.0  0.66929  0.81230  0.88667  1.0000
  C   C1509     1.0  0.66733  0.79043  0.88107  1.0000
  C   C1510     1.0  0.64727  0.78352  0.87203  1.0000
  C   C1511     1.0  0.62921  0.79853  0.86859  1.0000
  C   C1512     1.0  0.63141  0.82033  0.87414  1.0000
  C   C1513     1.0  0.65127  0.82715  0.88312  1.0000
  H   H2688     1.0  0.68122  0.77892  0.88393  1.0000
  H   H2689     1.0  0.64585  0.76666  0.86798  1.0000
  H   H2690     1.0  0.61762  0.83205  0.87160  1.0000
  H   H2691     1.0  0.65265  0.84409  0.88747  1.0000
  C   C1514     1.0  0.53440  0.82127  0.56012  1.0000
  C   C1515     1.0  0.52099  0.80465  0.55510  1.0000
  C   C1516     1.0  0.70769  0.80113  0.57994  1.0000
  H   H2692     1.0  0.64131  0.81861  0.57124  1.0000
  H   H2693     1.0  0.63707  0.73776  0.51877  1.0000
  C   C1517     1.0  0.52590  0.84280  0.55734  1.0000
  H   H2694     1.0  0.52731  0.78803  0.55734  1.0000
  H   H2695     1.0  0.69128  0.69372  0.86487  1.0000
  H   H2696     1.0  0.61657  0.78511  0.99800  1.0000
  H   H2697     1.0  0.53618  0.85574  0.56126  1.0000
  H   H2698     1.0  0.55590  0.72731  0.97038  1.0000
  H   H2699     1.0  0.56002  0.74020  0.72065  1.0000
  C   C1518     1.0  0.70083  0.71273  0.62311  1.0000
  C   C1519     1.0  0.70777  0.72843  0.60545  1.0000
  C   C1520     1.0  0.69282  0.74036  0.58848  1.0000
  C   C1521     1.0  0.67075  0.73711  0.58967  1.0000
  C   C1522     1.0  0.66378  0.72120  0.60703  1.0000
  H   H2700     1.0  0.62485  0.82405  0.96441  1.0000
  H   H2701     1.0  0.58327  0.76780  0.96333  1.0000
  H   H2702     1.0  0.69842  0.75241  0.57490  1.0000
  S   S336      1.0  0.71941  0.69887  0.64566  1.0000
  C   C1523     1.0  0.57292  0.72174  0.97108  1.0000
  H   H2703     1.0  0.49798  0.86429  0.54599  1.0000
  H   H2704     1.0  0.61255  0.70166  0.53385  1.0000
  H   H2705     1.0  0.67567  0.78988  0.57645  1.0000
  H   H2706     1.0  0.50919  0.68061  0.93507  1.0000
  H   H2707     1.0  0.58031  0.72739  0.76217  1.0000
  C   C1524     1.0  0.58825  0.72657  0.74245  1.0000
  H   H2708     1.0  0.53401  0.75533  0.52411  1.0000
  C   C1525     1.0  0.52293  0.66519  0.73202  1.0000
  C   C1526     1.0  0.56655  0.66741  0.76331  1.0000
  H   H2709     1.0  0.65735  0.72957  0.90207  1.0000
  C   C1527     1.0  0.65813  0.83018  0.96797  1.0000
  S   S337      1.0  0.60071  0.72288  0.59125  1.0000
  C   C1528     1.0  0.68940  0.82683  0.52792  1.0000
  H   H2710     1.0  0.70897  0.78497  0.52583  1.0000
  S   S338      1.0  0.73915  0.76963  0.90398  1.0000
  C   C1529     1.0  0.62527  0.68810  0.53187  1.0000
  N   N84       1.0  0.62869  0.77727  0.95677  1.0000
  C   C1530     1.0  0.64795  0.69684  0.53086  1.0000
  C   C1531     1.0  0.63593  0.75754  0.93945  1.0000
  C   C1532     1.0  0.54212  0.67461  0.67498  1.0000
  H   H2711     1.0  0.54696  0.68481  0.92348  1.0000
  C   C1533     1.0  0.58615  0.73170  0.69245  1.0000
  H   H2712     1.0  0.52471  0.76041  0.97598  1.0000
  H   H2713     1.0  0.73037  0.73886  0.78383  1.0000
  C   C1534     1.0  0.70806  0.79661  0.61110  1.0000
  H   H2714     1.0  0.55059  0.69823  0.64450  1.0000
  Fe  Fe166     1.0  0.56440  0.72216  0.84114  1.0000
  H   H2715     1.0  0.67033  0.73331  0.82396  1.0000
  H   H2716     1.0  0.69555  0.74561  0.73813  1.0000
  H   H2717     1.0  0.65482  0.84486  0.98102  1.0000
  H   H2718     1.0  0.66815  0.69778  0.80801  1.0000
  S   S339      1.0  0.58044  0.74462  0.81316  1.0000
  C   C1535     1.0  0.57661  0.73347  0.71868  1.0000
  Fe  Fe167     1.0  0.59716  0.75640  0.85101  1.0000
  H   H2719     1.0  0.50056  0.71424  0.73131  1.0000
  H   H2720     1.0  0.72667  0.70365  0.53750  1.0000
  H   H2721     1.0  0.51390  0.81746  0.95285  1.0000
  C   C1536     1.0  0.61660  0.70673  0.97257  1.0000
  S   S340      1.0  0.57729  0.73776  0.87936  1.0000
  Fe  Fe168     1.0  0.72628  0.80447  0.90645  1.0000
  C   C1537     1.0  0.60527  0.70686  0.94714  1.0000
  H   H2722     1.0  0.72675  0.73936  0.81999  1.0000
  C   C1538     1.0  0.53643  0.69139  0.69834  1.0000
  C   C1539     1.0  0.64504  0.79390  0.95489  1.0000
  S   S341      1.0  0.62516  0.73162  0.84866  1.0000
  S   S342      1.0  0.59104  0.69540  0.83880  1.0000
  H   H2723     1.0  0.50794  0.89016  0.93711  1.0000
  H   H2724     1.0  0.63043  0.75974  0.91748  1.0000
  H   H2725     1.0  0.68727  0.83965  0.54418  1.0000
  H   H2726     1.0  0.69139  0.80051  0.79425  1.0000
  C   C1540     1.0  0.51541  0.67314  0.91542  1.0000
  H   H2727     1.0  0.69572  0.72817  0.84095  1.0000
  Fe  Fe169     1.0  0.60765  0.71849  0.81204  1.0000
  C   C1541     1.0  0.60621  0.71456  0.99706  1.0000
  H   H2728     1.0  0.66860  0.74984  0.95825  1.0000
  H   H2729     1.0  0.64700  0.79834  0.93280  1.0000
  H   H2730     1.0  0.50479  0.78144  0.94083  1.0000
  Fe  Fe170     1.0  0.60480  0.71223  0.87580  1.0000
  H   H2731     1.0  0.67291  0.67574  0.84997  1.0000
  C   C1542     1.0  0.67888  0.70879  0.62347  1.0000
  H   H2732     1.0  0.55609  0.77215  0.92635  1.0000
  H   H2733     1.0  0.64954  0.74519  0.99526  1.0000
  C   C1543     1.0  0.69107  0.78635  0.52350  1.0000
  H   H2734     1.0  0.61205  0.81069  0.53734  1.0000
  H   H2735     1.0  0.50448  0.89848  0.62817  1.0000
  H   H2736     1.0  0.54386  0.67284  0.63000  1.0000
  C   C1544     1.0  0.71339  0.82538  0.51834  1.0000
  H   H2737     1.0  0.61038  0.79351  0.92350  1.0000
  C   C1545     1.0  0.68668  0.72454  0.82160  1.0000
  H   H2738     1.0  0.62799  0.74330  0.94677  1.0000
  H   H2739     1.0  0.54222  0.67815  0.88768  1.0000
  C   C1546     1.0  0.73323  0.70759  0.80359  1.0000
  H   H2740     1.0  0.50224  0.72743  0.78004  1.0000
  N   N85       1.0  0.53763  0.68304  0.72771  1.0000
  H   H2741     1.0  0.63609  0.70956  0.71247  1.0000
  C   C1547     1.0  0.51586  0.72008  0.73913  1.0000
  H   H2742     1.0  0.68589  0.77154  0.53346  1.0000
  C   C1548     1.0  0.69133  0.72127  0.77047  1.0000
  H   H2743     1.0  0.60892  0.83760  0.55163  1.0000
  H   H2744     1.0  0.54424  0.79253  0.50691  1.0000
  H   H2745     1.0  0.52535  0.74206  0.77177  1.0000
  H   H2746     1.0  0.72470  0.73139  0.60492  1.0000
  C   C1549     1.0  0.53251  0.70135  0.74819  1.0000
  H   H2747     1.0  0.68831  0.80485  0.83097  1.0000
  C   C1550     1.0  0.71489  0.71285  0.52366  1.0000
  C   C1551     1.0  0.65671  0.80717  0.53229  1.0000
  S   S343      1.0  0.56259  0.70896  0.53006  1.0000
  N   N86       1.0  0.62761  0.78729  0.70656  1.0000
  C   C1552     1.0  0.64454  0.76952  0.69846  1.0000
  C   C1553     1.0  0.61819  0.78192  0.73423  1.0000
  C   C1554     1.0  0.60955  0.78748  0.68522  1.0000
  C   C1555     1.0  0.63635  0.80931  0.70745  1.0000
  C   C1556     1.0  0.66064  0.81020  0.71559  1.0000
  C   C1557     1.0  0.65293  0.77043  0.66827  1.0000
  C   C1558     1.0  0.58886  0.80248  0.69170  1.0000
  C   C1559     1.0  0.63398  0.78059  0.75926  1.0000
  C   C1560     1.0  0.62296  0.77317  0.78531  1.0000
  C   C1561     1.0  0.66605  0.83336  0.72123  1.0000
  C   C1562     1.0  0.67443  0.75683  0.66486  1.0000
  C   C1563     1.0  0.57397  0.80531  0.66632  1.0000
  H   H2748     1.0  0.63804  0.75350  0.70084  1.0000
  H   H2749     1.0  0.65870  0.76889  0.71268  1.0000
  H   H2750     1.0  0.60506  0.79428  0.74038  1.0000
  H   H2751     1.0  0.61054  0.76633  0.73262  1.0000
  H   H2752     1.0  0.60436  0.77090  0.68201  1.0000
  H   H2753     1.0  0.61542  0.79246  0.66467  1.0000
  H   H2754     1.0  0.63450  0.81728  0.68685  1.0000
  H   H2755     1.0  0.62647  0.82020  0.72183  1.0000
  H   H2756     1.0  0.67124  0.80372  0.69848  1.0000
  H   H2757     1.0  0.66527  0.80063  0.73425  1.0000
  H   H2758     1.0  0.64104  0.76391  0.65369  1.0000
  H   H2759     1.0  0.65522  0.78719  0.66195  1.0000
  H   H2760     1.0  0.59303  0.81869  0.69861  1.0000
  H   H2761     1.0  0.57939  0.79532  0.70824  1.0000
  H   H2762     1.0  0.64806  0.76893  0.75520  1.0000
  H   H2763     1.0  0.63945  0.79675  0.76408  1.0000
  H   H2764     1.0  0.63443  0.77268  0.80316  1.0000
  H   H2765     1.0  0.60867  0.78439  0.79070  1.0000
  H   H2766     1.0  0.61772  0.75674  0.78204  1.0000
  H   H2767     1.0  0.65667  0.84033  0.73920  1.0000
  H   H2768     1.0  0.68359  0.83351  0.72620  1.0000
  H   H2769     1.0  0.66239  0.84355  0.70269  1.0000
  H   H2770     1.0  0.67238  0.73965  0.66938  1.0000
  H   H2771     1.0  0.68007  0.75793  0.64321  1.0000
  H   H2772     1.0  0.68703  0.76269  0.67887  1.0000
  H   H2773     1.0  0.58221  0.81307  0.64912  1.0000
  H   H2774     1.0  0.56896  0.78944  0.65910  1.0000
  H   H2775     1.0  0.55918  0.81573  0.67183  1.0000
  C   C1564     1.0  0.53778  0.67238  0.82727  1.0000
  H   H2776     1.0  0.72833  0.70045  0.82335  1.0000
  H   H2777     1.0  0.67332  0.72316  0.76826  1.0000
  H   H2778     1.0  0.68481  0.76523  0.83710  1.0000
  H   H2779     1.0  0.55371  0.67433  0.83542  1.0000
  H   H2780     1.0  0.71731  0.78757  0.56963  1.0000
  H   H2781     1.0  0.54750  0.70450  0.69612  1.0000
  H   H2782     1.0  0.71606  0.85292  0.97880  1.0000
  H   H2783     1.0  0.66307  0.70273  0.85968  1.0000
  C   C1565     1.0  0.62453  0.77113  0.98634  1.0000
  H   H2784     1.0  0.65047  0.79116  0.53604  1.0000
  C   C1566     1.0  0.61918  0.82652  0.53802  1.0000
  C   C1567     1.0  0.67579  0.71628  0.50682  1.0000
  H   H2785     1.0  0.50490  0.67108  0.87255  1.0000
  N   N87       1.0  0.65359  0.70779  0.50433  1.0000
  C   C1568     1.0  0.51041  0.73568  0.76323  1.0000
  H   H2786     1.0  0.64894  0.70824  0.54869  1.0000
  S   S344      1.0  0.73958  0.77205  0.73515  1.0000
  C   C1569     1.0  0.64234  0.82399  0.54940  1.0000
  H   H2787     1.0  0.69517  0.68623  0.51921  1.0000
  H   H2788     1.0  0.65991  0.68308  0.53563  1.0000
  H   H2789     1.0  0.56373  0.68126  0.77787  1.0000
  H   H2790     1.0  0.67660  0.81824  0.58014  1.0000
  H   H2791     1.0  0.53665  0.78576  0.97366  1.0000
  S   S345      1.0  0.62481  0.71076  0.77098  1.0000
  H   H2792     1.0  0.71075  0.77164  0.82493  1.0000
  H   H2793     1.0  0.66869  0.76316  0.92567  1.0000
  H   H2794     1.0  0.73789  0.84602  0.50529  1.0000
  C   C1570     1.0  0.68410  0.80382  0.56897  1.0000
  H   H2795     1.0  0.70152  0.78090  0.61530  1.0000
  C   C1571     1.0  0.50221  0.78707  0.96257  1.0000
  C   C1572     1.0  0.50426  0.84768  0.54883  1.0000
  C   C1573     1.0  0.61947  0.71627  0.71426  1.0000
  C   C1574     1.0  0.52650  0.75200  0.50369  1.0000
  H   H2796     1.0  0.72495  0.79586  0.61900  1.0000
  N   N88       1.0  0.69807  0.73273  0.79655  1.0000
  N   N89       1.0  0.68084  0.80621  0.53803  1.0000
  C   C1575     1.0  0.67707  0.69276  0.85086  1.0000
  H   H2797     1.0  0.52704  0.69495  0.76817  1.0000
  H   H2798     1.0  0.71563  0.81627  0.57707  1.0000
  S   S346      1.0  0.61889  0.69842  0.91614  1.0000
  C   C1576     1.0  0.58888  0.77210  0.94244  1.0000
  H   H2799     1.0  0.68304  0.72591  0.92001  1.0000
  H   H2800     1.0  0.52008  0.69902  0.69332  1.0000
  H   H2801     1.0  0.63352  0.70083  0.97324  1.0000
  C   C1577     1.0  0.64007  0.81512  0.97158  1.0000
  S   S347      1.0  0.73569  0.75559  0.65998  1.0000
  C   C1578     1.0  0.53457  0.68548  0.90667  1.0000
  C   C1579     1.0  0.58331  0.71414  0.94669  1.0000
  C   C1580     1.0  0.60768  0.72300  0.69019  1.0000
  C   C1581     1.0  0.56069  0.67388  0.73291  1.0000
  H   H2802     1.0  0.69986  0.69766  0.72135  1.0000
  C   C1582     1.0  0.62325  0.67347  0.55687  1.0000
  Fe  Fe171     1.0  0.74569  0.72029  0.65658  1.0000
  C   C1583     1.0  0.52255  0.69019  0.82513  1.0000
  H   H2803     1.0  0.52275  0.72949  0.72235  1.0000
  H   H2804     1.0  0.70019  0.76357  0.77638  1.0000
  H   H2805     1.0  0.69613  0.68957  0.81409  1.0000
  H   H2806     1.0  0.72911  0.69715  0.78591  1.0000
  C   C1584     1.0  0.69294  0.70346  0.52527  1.0000
  H   H2807     1.0  0.62195  0.67853  0.51308  1.0000
  C   C1585     1.0  0.66530  0.72934  0.92281  1.0000
  C   C1586     1.0  0.51175  0.80218  0.63169  1.0000
  H   H2808     1.0  0.54740  0.70942  0.75345  1.0000
  H   H2809     1.0  0.71348  0.72998  0.53062  1.0000
  H   H2810     1.0  0.50277  0.91127  0.78569  1.0000
  C   C1587     1.0  0.60760  0.78718  0.94466  1.0000
  C   C1588     1.0  0.60981  0.71825  0.74058  1.0000
  H   H2811     1.0  0.67628  0.71647  0.71596  1.0000
  S   S348      1.0  0.57007  0.74037  0.66359  1.0000
  H   H2812     1.0  0.72463  0.81738  0.53368  1.0000
  S   S349      1.0  0.73983  0.80937  0.94902  1.0000
  H   H2813     1.0  0.70151  0.72045  0.69904  1.0000
  H   H2814     1.0  0.66133  0.78729  0.96184  1.0000
  H   H2815     1.0  0.60105  0.80121  0.95731  1.0000
  C   C1589     1.0  0.69349  0.77107  0.81905  1.0000
  H   H2816     1.0  0.57367  0.78700  0.90560  1.0000
  H   H2817     1.0  0.51327  0.85191  0.94910  1.0000
  C   C1590     1.0  0.72229  0.73070  0.80079  1.0000
  H   H2818     1.0  0.67445  0.73290  0.51594  1.0000
  C   C1591     1.0  0.68431  0.79423  0.81335  1.0000
  H   H2819     1.0  0.66641  0.79502  0.81110  1.0000
  H   H2820     1.0  0.65902  0.83521  0.94596  1.0000
  H   H2821     1.0  0.69549  0.70364  0.77166  1.0000
  H   H2822     1.0  0.65932  0.71618  0.93532  1.0000
  H   H2823     1.0  0.67347  0.69666  0.63715  1.0000
  H   H2824     1.0  0.73055  0.79313  0.78702  1.0000
  H   H2825     1.0  0.64898  0.84002  0.54913  1.0000
  H   H2826     1.0  0.61519  0.72139  0.67000  1.0000
  C   C1592     1.0  0.68228  0.70028  0.82172  1.0000
  H   H2827     1.0  0.57227  0.68565  0.72634  1.0000
  H   H2828     1.0  0.69845  0.80959  0.62263  1.0000
  C   C1593     1.0  0.70111  0.72861  0.74286  1.0000
  C   C1594     1.0  0.69418  0.71492  0.71841  1.0000
  H   H2829     1.0  0.52929  0.70269  0.90256  1.0000
  C   C1595     1.0  0.69095  0.75641  0.79320  1.0000
  H   H2830     1.0  0.67359  0.75831  0.78703  1.0000
  H   H2831     1.0  0.71907  0.72696  0.74363  1.0000
  H   H2832     1.0  0.56333  0.79826  0.93810  1.0000
  C   C1596     1.0  0.49849  0.67086  0.72652  1.0000
  H   H2833     1.0  0.62742  0.68185  0.57639  1.0000
  H   H2834     1.0  0.51163  0.74365  0.50732  1.0000
  H   H2835     1.0  0.61273  0.75864  0.98695  1.0000
  H   H2836     1.0  0.63879  0.81173  0.99400  1.0000
  H   H2837     1.0  0.52281  0.81227  0.64327  1.0000
  H   H2838     1.0  0.60096  0.67183  0.75941  1.0000
  C   C1597     1.0  0.74540  0.78288  0.78938  1.0000
  H   H2839     1.0  0.49933  0.74946  0.75595  1.0000
  H   H2840     1.0  0.52262  0.69179  0.64290  1.0000
  H   H2841     1.0  0.57505  0.66872  0.50367  1.0000
  C   C1598     1.0  0.50169  0.68712  0.81515  1.0000
  C   C1599     1.0  0.58431  0.72226  0.99631  1.0000
  H   H2842     1.0  0.67406  0.82207  0.97416  1.0000
  C   C1600     1.0  0.53960  0.68508  0.64641  1.0000
  H   H2843     1.0  0.72010  0.85775  0.53181  1.0000
  H   H2844     1.0  0.74106  0.84282  0.99512  1.0000
  C   C1601     1.0  0.52182  0.77808  0.97957  1.0000
  H   H2845     1.0  0.50760  0.78863  0.64497  1.0000
  H   H2846     1.0  0.49918  0.86167  0.64284  1.0000
  H   H2847     1.0  0.65325  0.81070  0.51000  1.0000
  C   C1602     1.0  0.72086  0.84770  0.51263  1.0000
  H   H2848     1.0  0.55918  0.66776  0.67675  1.0000
  H   H2849     1.0  0.60630  0.66899  0.55833  1.0000
  H   H2850     1.0  0.50124  0.81736  0.98580  1.0000
  H   H2851     1.0  0.61899  0.83345  0.51690  1.0000
  H   H2852     1.0  0.49811  0.93519  0.74405  1.0000
  H   H2853     1.0  0.62064  0.72173  0.49864  1.0000
  C   C1603     1.0  0.63725  0.72695  0.50027  1.0000
  H   H2854     1.0  0.72123  0.71183  0.50214  1.0000
  H   H2855     1.0  0.66064  0.66173  0.49933  1.0000
  H   H2856     1.0  0.71523  0.81594  0.49879  1.0000
  H   H2857     1.0  0.50749  0.78199  0.49931  1.0000
  H   H2858     1.0  0.82046  0.27983  0.28823  1.0000
  H   H2859     1.0  0.86773  0.02305  0.47289  1.0000
  H   H2860     1.0  0.84782  0.20936  0.37183  1.0000
  S   S350      1.0  0.92324  0.09174  0.46208  1.0000
  Fe  Fe172     1.0  0.93159  0.10995  0.07079  1.0000
  S   S351      1.0  0.96572  0.09618  0.07767  1.0000
  S   S352      1.0  0.90984  0.12261  0.10579  1.0000
  Fe  Fe173     1.0  0.97279  0.11251  0.03788  1.0000
  S   S353      1.0  0.96665  0.08363  0.01131  1.0000
  Fe  Fe174     1.0  0.95687  0.06850  0.05087  1.0000
  S   S354      1.0  0.97037  0.03557  0.06547  1.0000
  S   S355      1.0  0.93910  0.12867  0.03275  1.0000
  S   S356      1.0  0.92203  0.08089  0.04719  1.0000
  C   C1604     1.0  0.82899  0.21580  0.29539  1.0000
  H   H2861     1.0  0.85134  0.07705  0.38648  1.0000
  C   C1605     1.0  0.97943  0.32338  0.29652  1.0000
  H   H2862     1.0  0.86802  0.18863  0.33455  1.0000
  H   H2863     1.0  0.88214  0.00065  0.17106  1.0000
  Fe  Fe175     1.0  0.88709  0.16046  0.28610  1.0000
  S   S357      1.0  0.92229  0.16672  0.28689  1.0000
  S   S358      1.0  0.86081  0.18663  0.27490  1.0000
  Fe  Fe176     1.0  0.89749  0.11211  0.29492  1.0000
  S   S359      1.0  0.93334  0.11466  0.29646  1.0000
  S   S360      1.0  0.88491  0.07959  0.30079  1.0000
  Fe  Fe177     1.0  0.92485  0.14387  0.32291  1.0000
  S   S361      1.0  0.94447  0.15077  0.36114  1.0000
  Fe  Fe178     1.0  0.92745  0.13690  0.26030  1.0000
  S   S362      1.0  0.95096  0.13593  0.22444  1.0000
  S   S363      1.0  0.88918  0.13983  0.32420  1.0000
  S   S364      1.0  0.89205  0.13218  0.25680  1.0000
  C   C1606     1.0  0.75144  0.30977  0.25017  1.0000
  H   H2864     1.0  0.84432  0.12734  0.22517  1.0000
  H   H2865     1.0  0.83204  0.30317  0.34590  1.0000
  C   C1607     1.0  0.90922  0.03144  0.23346  1.0000
  C   C1608     1.0  0.90928  0.05368  0.22908  1.0000
  C   C1609     1.0  0.90206  0.06847  0.24979  1.0000
  C   C1610     1.0  0.89379  0.06113  0.27457  1.0000
  C   C1611     1.0  0.89268  0.03892  0.27841  1.0000
  C   C1612     1.0  0.90076  0.02405  0.25811  1.0000
  H   H2866     1.0  0.91488  0.05958  0.20963  1.0000
  H   H2867     1.0  0.90268  0.08555  0.24644  1.0000
  H   H2868     1.0  0.88584  0.03319  0.29726  1.0000
  H   H2869     1.0  0.98544  0.20189  0.06108  1.0000
  H   H2870     1.0  0.78395  0.17211  0.36356  1.0000
  H   H2871     1.0  0.85339  0.07145  0.16913  1.0000
  H   H2872     1.0  0.96225  0.07744  0.19283  1.0000
  C   C1613     1.0  0.89546  0.02298  0.44568  1.0000
  H   H2873     1.0  0.94891  0.22793  0.37072  1.0000
  H   H2874     1.0  0.85553  0.21970  0.16198  1.0000
  H   H2875     1.0  0.97694  0.16426  0.05006  1.0000
  C   C1614     1.0  0.94042  0.12986  0.19151  1.0000
  C   C1615     1.0  0.95232  0.13367  0.16767  1.0000
  C   C1616     1.0  0.94340  0.13062  0.14115  1.0000
  C   C1617     1.0  0.92241  0.12412  0.13846  1.0000
  C   C1618     1.0  0.91078  0.11974  0.16227  1.0000
  C   C1619     1.0  0.91996  0.12216  0.18869  1.0000
  H   H2876     1.0  0.96817  0.13961  0.16974  1.0000
  H   H2877     1.0  0.95235  0.13417  0.12279  1.0000
  H   H2878     1.0  0.89464  0.11447  0.16025  1.0000
  H   H2879     1.0  0.91104  0.11833  0.20684  1.0000
  C   C1620     1.0  0.93110  0.10728  0.43410  1.0000
  C   C1621     1.0  0.94435  0.12424  0.43787  1.0000
  C   C1622     1.0  0.94899  0.13721  0.41521  1.0000
  C   C1623     1.0  0.94031  0.13330  0.38883  1.0000
  C   C1624     1.0  0.92780  0.11583  0.38494  1.0000
  C   C1625     1.0  0.92326  0.10285  0.40750  1.0000
  H   H2880     1.0  0.95059  0.12765  0.45833  1.0000
  H   H2881     1.0  0.95878  0.15064  0.41831  1.0000
  H   H2882     1.0  0.92150  0.11238  0.36454  1.0000
  H   H2883     1.0  0.91351  0.08940  0.40435  1.0000
  C   C1626     1.0  0.96261  0.01130  0.05080  1.0000
  H   H2884     1.0  0.88662  0.02283  0.07417  1.0000
  H   H2885     1.0  0.84087  0.01547  0.16519  1.0000
  C   C1627     1.0  0.80107  0.17555  0.36706  1.0000
  H   H2886     1.0  0.92989  0.02304  0.04033  1.0000
  H   H2887     1.0  0.98700  0.03958  0.12150  1.0000
  C   C1628     1.0  0.82280  0.28831  0.24516  1.0000
  C   C1629     1.0  0.81065  0.30892  0.01100  1.0000
  H   H2888     1.0  0.92137  0.20078  0.23208  1.0000
  H   H2889     1.0  0.84242  0.00977  0.05358  1.0000
  C   C1630     1.0  0.82404  0.22489  0.34422  1.0000
  H   H2890     1.0  0.86424  0.31393  0.31887  1.0000
  H   H2891     1.0  0.97563  0.31649  0.23360  1.0000
  C   C1631     1.0  0.84709  0.20151  0.30181  1.0000
  C   C1632     1.0  0.85393  0.19934  0.32943  1.0000
  C   C1633     1.0  0.84249  0.21109  0.35051  1.0000
  H   H2892     1.0  0.90860  0.16586  0.21657  1.0000
  H   H2893     1.0  0.91778  0.04696  0.44918  1.0000
  C   C1634     1.0  0.85372  0.31815  0.26641  1.0000
  H   H2894     1.0  0.98414  0.19924  0.28378  1.0000
  C   C1635     1.0  0.88488  0.02698  0.47396  1.0000
  H   H2895     1.0  0.76375  0.24577  0.16185  1.0000
  H   H2896     1.0  0.99318  0.12611  0.13192  1.0000
  S   S365      1.0  0.75447  0.26953  0.39544  1.0000
  H   H2897     1.0  0.98657  0.23623  0.26516  1.0000
  H   H2898     1.0  0.98359  0.28923  0.28794  1.0000
  H   H2899     1.0  0.93936  0.04022  0.16845  1.0000
  C   C1636     1.0  0.76616  0.25162  0.18343  1.0000
  Fe  Fe179     1.0  0.75919  0.29358  0.32145  1.0000
  H   H2900     1.0  0.95858  0.99868  0.40917  1.0000
  H   H2901     1.0  0.75443  0.31682  0.18029  1.0000
  H   H2902     1.0  0.96846  0.02113  0.20808  1.0000
  H   H2903     1.0  0.94151  0.18453  0.21260  1.0000
  H   H2904     1.0  0.83111  0.12402  0.48141  1.0000
  N   N90       1.0  0.87703  0.01332  0.12952  1.0000
  H   H2905     1.0  0.98529  0.07718  0.26505  1.0000
  H   H2906     1.0  0.99073  0.06194  0.45521  1.0000
  H   H2907     1.0  0.95656  0.20071  0.38182  1.0000
  C   C1637     1.0  0.81205  0.26796  0.23680  1.0000
  S   S366      1.0  0.75552  0.25842  0.32857  1.0000
  H   H2908     1.0  0.88264  0.14884  0.19765  1.0000
  H   H2909     1.0  0.88533  0.04415  0.48038  1.0000
  C   C1638     1.0  0.86915  0.02139  0.07766  1.0000
  H   H2910     1.0  0.80463  0.15507  0.40253  1.0000
  Fe  Fe180     1.0  0.75908  0.30880  0.09430  1.0000
  Fe  Fe181     1.0  0.93230  0.09838  0.00941  1.0000
  H   H2911     1.0  0.88061  0.19530  0.22207  1.0000
  C   C1639     1.0  0.98303  0.06253  0.22412  1.0000
  C   C1640     1.0  0.88554  0.19150  0.20025  1.0000
  H   H2912     1.0  0.85001  0.14413  0.48869  1.0000
  H   H2913     1.0  0.90693  0.03466  0.34083  1.0000
  H   H2914     1.0  0.95948  0.06690  0.25763  1.0000
  H   H2915     1.0  0.84313  0.32423  0.24892  1.0000
  H   H2916     1.0  0.79421  0.30394  0.01543  1.0000
  H   H2917     1.0  0.90041  0.00692  0.26155  1.0000
  C   C1641     1.0  0.98007  0.18774  0.33428  1.0000
  C   C1642     1.0  0.99227  0.12904  0.28234  1.0000
  H   H2918     1.0  0.84720  0.00951  0.10695  1.0000
  H   H2919     1.0  0.96622  0.18387  0.32083  1.0000
  H   H2920     1.0  0.92724  0.02251  0.46535  1.0000
  C   C1643     1.0  0.86685  0.15854  0.19881  1.0000
  N   N91       1.0  0.86817  0.18014  0.18521  1.0000
  H   H2921     1.0  0.95670  0.03313  0.14043  1.0000
  H   H2922     1.0  0.97110  0.15011  0.30694  1.0000
  H   H2923     1.0  0.81726  0.31561  0.03038  1.0000
  C   C1644     1.0  0.87012  0.03644  0.13719  1.0000
  C   C1645     1.0  0.97928  0.06071  0.43756  1.0000
  H   H2924     1.0  0.91398  0.05960  0.13177  1.0000
  C   C1646     1.0  0.93136  0.01785  0.36736  1.0000
  C   C1647     1.0  0.87782  0.04415  0.16601  1.0000
  C   C1648     1.0  0.97891  0.32252  0.21246  1.0000
  H   H2925     1.0  0.83803  0.11260  0.19419  1.0000
  C   C1649     1.0  0.92552  0.19398  0.21121  1.0000
  H   H2926     1.0  0.79300  0.31441  0.47804  1.0000
  C   C1650     1.0  0.87127  0.06818  0.17045  1.0000
  H   H2927     1.0  0.83379  0.15173  0.18572  1.0000
  C   C1651     1.0  0.87199  0.99808  0.15233  1.0000
  H   H2928     1.0  0.87624  0.04754  0.12161  1.0000
  H   H2929     1.0  0.90638  0.02491  0.11294  1.0000
  C   C1652     1.0  0.86002  0.01156  0.05140  1.0000
  H   H2930     1.0  0.93968  0.20545  0.35138  1.0000
  S   S367      1.0  0.76915  0.30369  0.27848  1.0000
  H   H2931     1.0  0.86109  0.03792  0.08021  1.0000
  H   H2932     1.0  0.83272  0.31949  0.49466  1.0000
  H   H2933     1.0  0.89567  0.04167  0.16791  1.0000
  H   H2934     1.0  0.87056  0.03527  0.18299  1.0000
  H   H2935     1.0  0.81146  0.32621  0.27738  1.0000
  H   H2936     1.0  0.86588  0.11411  0.20447  1.0000
  H   H2937     1.0  0.87077  0.15276  0.10552  1.0000
  H   H2938     1.0  0.99741  0.11791  0.29950  1.0000
  H   H2939     1.0  0.86326  0.16090  0.22133  1.0000
  H   H2940     1.0  0.98447  0.30797  0.20002  1.0000
  H   H2941     1.0  0.84219  0.19309  0.21187  1.0000
  H   H2942     1.0  0.99158  0.13343  0.09584  1.0000
  H   H2943     1.0  0.90995  0.01200  0.14531  1.0000
  H   H2944     1.0  0.87665  0.07326  0.19135  1.0000
  H   H2945     1.0  0.87897  0.07796  0.15472  1.0000
  N   N92       1.0  0.85127  0.14355  0.40205  1.0000
  C   C1653     1.0  0.87424  0.15006  0.40198  1.0000
  C   C1654     1.0  0.84960  0.12293  0.38545  1.0000
  C   C1655     1.0  0.83720  0.16128  0.38785  1.0000
  C   C1656     1.0  0.84288  0.14127  0.43111  1.0000
  C   C1657     1.0  0.85655  0.12566  0.45053  1.0000
  C   C1658     1.0  0.87808  0.17148  0.41729  1.0000
  C   C1659     1.0  0.81317  0.15686  0.38264  1.0000
  C   C1660     1.0  0.86926  0.10580  0.38637  1.0000
  H   H2946     1.0  0.99045  0.27021  0.38202  1.0000
  C   C1661     1.0  0.90216  0.17504  0.41857  1.0000
  H   H2947     1.0  0.91055  0.03974  0.39264  1.0000
  H   H2948     1.0  0.87976  0.15168  0.38026  1.0000
  H   H2949     1.0  0.88578  0.13738  0.41101  1.0000
  H   H2950     1.0  0.83493  0.11497  0.39162  1.0000
  H   H2951     1.0  0.84734  0.12661  0.36292  1.0000
  H   H2952     1.0  0.84427  0.16491  0.36736  1.0000
  H   H2953     1.0  0.83666  0.17655  0.40013  1.0000
  H   H2954     1.0  0.84056  0.15733  0.44153  1.0000
  H   H2955     1.0  0.82644  0.13534  0.43053  1.0000
  H   H2956     1.0  0.87387  0.12890  0.45108  1.0000
  H   H2957     1.0  0.85510  0.10874  0.44383  1.0000
  H   H2958     1.0  0.86986  0.18549  0.40625  1.0000
  H   H2959     1.0  0.87216  0.17147  0.43893  1.0000
  H   H2960     1.0  0.90334  0.00635  0.34585  1.0000
  H   H2961     1.0  0.88264  0.11151  0.37399  1.0000
  H   H2962     1.0  0.87536  0.10267  0.40765  1.0000
  C   C1662     1.0  0.86389  0.16982  0.10489  1.0000
  H   H2963     1.0  0.99071  0.21924  0.14465  1.0000
  S   S368      1.0  0.92007  0.01339  0.20788  1.0000
  S   S369      1.0  0.79404  0.31642  0.09024  1.0000
  H   H2964     1.0  0.90440  0.19092  0.42841  1.0000
  H   H2965     1.0  0.91101  0.16229  0.43123  1.0000
  H   H2966     1.0  0.90914  0.17487  0.39739  1.0000
  H   H2967     1.0  0.94922  0.30167  0.17904  1.0000
  C   C1663     1.0  0.99353  0.16850  0.04973  1.0000
  C   C1664     1.0  0.81297  0.30892  0.16362  1.0000
  H   H2968     1.0  0.81041  0.30215  0.24416  1.0000
  C   C1665     1.0  0.96618  0.06071  0.20039  1.0000
  H   H2969     1.0  0.85116  0.27696  0.37710  1.0000
  C   C1666     1.0  0.99238  0.05353  0.16314  1.0000
  H   H2970     1.0  0.92494  0.07913  0.11004  1.0000
  C   C1667     1.0  0.98547  0.15161  0.29367  1.0000
  H   H2971     1.0  0.92683  0.20733  0.19631  1.0000
  C   C1668     1.0  0.99134  0.30320  0.29520  1.0000
  C   C1669     1.0  0.97416  0.00341  0.17061  1.0000
  H   H2972     1.0  0.95436  0.00097  0.44536  1.0000
  H   H2973     1.0  0.84616  0.27280  0.27369  1.0000
  H   H2974     1.0  0.92435  0.01422  0.32342  1.0000
  S   S370      1.0  0.80942  0.23815  0.37164  1.0000
  C   C1670     1.0  0.84835  0.12763  0.48036  1.0000
  H   H2975     1.0  0.90646  0.01206  0.39632  1.0000
  C   C1671     1.0  0.90123  0.01115  0.12508  1.0000
  H   H2976     1.0  0.80861  0.17782  0.34655  1.0000
  H   H2977     1.0  0.88696  0.30328  0.27088  1.0000
  C   C1672     1.0  0.84692  0.19344  0.18956  1.0000
  C   C1673     1.0  0.90840  0.17922  0.20144  1.0000
  H   H2978     1.0  0.80567  0.26969  0.21532  1.0000
  H   H2979     1.0  0.88419  0.19056  0.14821  1.0000
  C   C1674     1.0  0.91927  0.02912  0.44609  1.0000
  H   H2980     1.0  0.85218  0.03957  0.13612  1.0000
  H   H2981     1.0  0.86877  0.29723  0.36709  1.0000
  H   H2982     1.0  0.87657  0.18011  0.09780  1.0000
  H   H2983     1.0  0.89789  0.30722  0.22210  1.0000
  N   N93       1.0  0.93310  0.02294  0.42097  1.0000
  C   C1675     1.0  0.95371  0.04529  0.15721  1.0000
  N   N94       1.0  0.84095  0.30637  0.28704  1.0000
  H   H2984     1.0  0.83535  0.29084  0.22949  1.0000
  H   H2985     1.0  0.85733  0.08666  0.35223  1.0000
  H   H2986     1.0  0.98676  0.21706  0.35820  1.0000
  C   C1676     1.0  0.86365  0.08432  0.37373  1.0000
  H   H2987     1.0  0.87844  0.07293  0.37287  1.0000
  H   H2988     1.0  0.96050  0.03538  0.40051  1.0000
  C   C1677     1.0  0.92884  0.06387  0.12128  1.0000
  H   H2989     1.0  0.96974  0.22185  0.32776  1.0000
  H   H2990     1.0  0.80141  0.30324  0.14801  1.0000
  H   H2991     1.0  0.89343  0.01647  0.48970  1.0000
  C   C1678     1.0  0.94162  0.00914  0.04068  1.0000
  H   H2992     1.0  0.80117  0.19076  0.37929  1.0000
  H   H2993     1.0  0.97420  0.02833  0.44861  1.0000
  C   C1679     1.0  0.84381  0.29079  0.33669  1.0000
  H   H2994     1.0  0.87066  0.28890  0.24733  1.0000
  H   H2995     1.0  0.83504  0.27664  0.33051  1.0000
  H   H2996     1.0  0.77753  0.30698  0.22075  1.0000
  C   C1680     1.0  0.95349  0.21119  0.36341  1.0000
  H   H2997     1.0  0.91333  0.17245  0.18085  1.0000
  H   H2998     1.0  0.95644  0.00242  0.16809  1.0000
  H   H2999     1.0  0.82366  0.21761  0.27406  1.0000
  H   H3000     1.0  0.85037  0.17099  0.08958  1.0000
  H   H3001     1.0  0.98942  0.07104  0.15846  1.0000
  H   H3002     1.0  0.94030  0.07934  0.15756  1.0000
  H   H3003     1.0  0.81048  0.31217  0.30870  1.0000
  S   S371      1.0  0.78483  0.29565  0.35448  1.0000
  C   C1681     1.0  0.97826  0.02324  0.18908  1.0000
  Fe  Fe182     1.0  0.77978  0.26114  0.36291  1.0000
  H   H3004     1.0  0.81443  0.22631  0.19786  1.0000
  H   H3005     1.0  0.80707  0.30555  0.18469  1.0000
  C   C1682     1.0  0.91931  0.02343  0.39495  1.0000
  C   C1683     1.0  0.91546  0.01830  0.34296  1.0000
  H   H3006     1.0  0.84314  0.16619  0.13953  1.0000
  C   C1684     1.0  0.85549  0.17707  0.13348  1.0000
  H   H3007     1.0  0.77647  0.26537  0.18265  1.0000
  H   H3008     1.0  0.82392  0.25357  0.23770  1.0000
  C   C1685     1.0  0.87432  0.17739  0.15496  1.0000
  H   H3009     1.0  0.81513  0.22035  0.16100  1.0000
  H   H3010     1.0  0.80329  0.23808  0.31146  1.0000
  C   C1686     1.0  0.82149  0.32104  0.29573  1.0000
  H   H3011     1.0  0.79829  0.26555  0.25081  1.0000
  H   H3012     1.0  0.82400  0.24545  0.17386  1.0000
  H   H3013     1.0  0.95116  0.05571  0.20997  1.0000
  H   H3014     1.0  0.89418  0.00588  0.44003  1.0000
  H   H3015     1.0  0.93998  0.00149  0.36812  1.0000
  H   H3016     1.0  0.98892  0.05668  0.41861  1.0000
  C   C1687     1.0  0.76036  0.31057  0.22359  1.0000
  H   H3017     1.0  0.93413  0.05126  0.10574  1.0000
  H   H3018     1.0  0.82893  0.29972  0.16056  1.0000
  H   H3019     1.0  0.99547  0.02136  0.19616  1.0000
  H   H3020     1.0  0.95430  0.04840  0.46204  1.0000
  H   H3021     1.0  0.85477  0.22657  0.19824  1.0000
  H   H3022     1.0  0.84717  0.19346  0.13120  1.0000
  C   C1688     1.0  0.87415  0.30519  0.25462  1.0000
  C   C1689     1.0  0.97289  0.07536  0.24864  1.0000
  C   C1690     1.0  0.82361  0.22800  0.17840  1.0000
  H   H3023     1.0  0.88581  0.03308  0.43035  1.0000
  C   C1691     1.0  0.84672  0.21759  0.18159  1.0000
  C   C1692     1.0  0.97374  0.21081  0.34535  1.0000
  C   C1693     1.0  0.83296  0.28608  0.27459  1.0000
  N   N95       1.0  0.97284  0.04545  0.17684  1.0000
  H   H3024     1.0  0.87182  0.27045  0.35159  1.0000
  H   H3025     1.0  0.94064  0.05563  0.41254  1.0000
  H   H3026     1.0  0.98061  0.16222  0.27590  1.0000
  C   C1694     1.0  0.96396  0.04327  0.44347  1.0000
  C   C1695     1.0  0.94923  0.03970  0.41787  1.0000
  C   C1696     1.0  0.85041  0.14365  0.18639  1.0000
  H   H3027     1.0  0.77459  0.23849  0.19588  1.0000
  C   C1697     1.0  0.94566  0.00133  0.42507  1.0000
  C   C1698     1.0  0.85536  0.30007  0.31153  1.0000
  H   H3028     1.0  0.85545  0.13836  0.16518  1.0000
  C   C1699     1.0  0.86500  0.00761  0.10354  1.0000
  H   H3029     1.0  0.98019  0.17647  0.35217  1.0000
  H   H3030     1.0  0.81182  0.14205  0.36997  1.0000
  H   H3031     1.0  0.96042  0.07301  0.13124  1.0000
  H   H3032     1.0  0.88763  0.20728  0.19037  1.0000
  H   H3033     1.0  0.97834  0.12254  0.27152  1.0000
  H   H3034     1.0  0.83350  0.18638  0.17831  1.0000
  C   C1700     1.0  0.94673  0.06687  0.14253  1.0000
  C   C1701     1.0  0.81744  0.22742  0.31653  1.0000
  H   H3035     1.0  0.88520  0.16232  0.15202  1.0000
  C   C1702     1.0  0.84967  0.12321  0.20367  1.0000
  C   C1703     1.0  0.88340  0.31689  0.23021  1.0000
  H   H3036     1.0  0.94316  0.02975  0.36269  1.0000
  H   H3037     1.0  0.96637  0.09167  0.24193  1.0000
  H   H3038     1.0  0.86834  0.28757  0.30519  1.0000
  H   H3039     1.0  0.96997  0.07662  0.43486  1.0000
  H   H3040     1.0  0.86242  0.02211  0.03339  1.0000
  H   H3041     1.0  0.98929  0.04649  0.23197  1.0000
  C   C1704     1.0  0.85999  0.28346  0.35945  1.0000
  C   C1705     1.0  0.84792  0.99879  0.16121  1.0000
  H   H3042     1.0  0.82116  0.29439  0.00464  1.0000
  H   H3043     1.0  0.75669  0.29644  0.45809  1.0000
  H   H3044     1.0  0.82669  0.31934  0.44785  1.0000
  H   H3045     1.0  0.92615  0.32044  0.18636  1.0000
  C   C1706     1.0  0.94199  0.31341  0.19456  1.0000
  H   H3046     1.0  0.94131  0.00384  0.10278  1.0000
  H   H3047     1.0  0.93912  0.30489  0.21421  1.0000
  S   S372      1.0  0.74846  0.29227  0.13253  1.0000
  S   S373      1.0  0.95243  0.32565  0.28470  1.0000
  H   H3048     1.0  0.87127  0.31920  0.21317  1.0000
  Fe  Fe183     1.0  0.75761  0.30390  0.38427  1.0000
  H   H3049     1.0  0.98137  0.00437  0.14977  1.0000
  H   H3050     1.0  0.83022  0.31670  0.39549  1.0000
  H   H3051     1.0  0.86858  0.99548  0.04718  1.0000
  H   H3052     1.0  0.85814  0.11595  0.49366  1.0000
  C   C1707     1.0  0.74863  0.31134  0.46592  1.0000
  H   H3053     1.0  0.99690  0.07110  0.21675  1.0000
  H   H3054     1.0  0.99734  0.23013  0.00642  1.0000
  H   H3055     1.0  0.84296  0.00732  0.72408  1.0000
  H   H3056     1.0  0.78986  0.26574  0.73473  1.0000
  H   H3057     1.0  0.79825  0.16913  0.84426  1.0000
  C   C1708     1.0  0.83998  0.01655  0.70459  1.0000
  Fe  Fe184     1.0  0.93477  0.09950  0.56581  1.0000
  S   S374      1.0  0.96942  0.08830  0.57472  1.0000
  S   S375      1.0  0.90951  0.10847  0.59876  1.0000
  Fe  Fe185     1.0  0.97708  0.10906  0.53895  1.0000
  H   H3058     1.0  0.88565  0.28729  0.74657  1.0000
  Fe  Fe186     1.0  0.96511  0.06237  0.54287  1.0000
  S   S376      1.0  0.98060  0.02895  0.55204  1.0000
  S   S377      1.0  0.94257  0.12236  0.53185  1.0000
  S   S378      1.0  0.92977  0.07181  0.53679  1.0000
  H   H3059     1.0  0.88241  0.99846  0.75959  1.0000
  H   H3060     1.0  0.94287  0.17417  0.59116  1.0000
  C   C1709     1.0  0.85541  0.04388  0.67269  1.0000
  H   H3061     1.0  0.83028  0.15997  0.81414  1.0000
  H   H3062     1.0  0.83184  0.17128  0.73561  1.0000
  Fe  Fe187     1.0  0.87821  0.15587  0.78537  1.0000
  S   S379      1.0  0.91395  0.15950  0.78734  1.0000
  S   S380      1.0  0.85743  0.18756  0.78335  1.0000
  Fe  Fe188     1.0  0.88539  0.10681  0.78543  1.0000
  S   S381      1.0  0.92149  0.10718  0.78833  1.0000
  S   S382      1.0  0.86906  0.07550  0.78381  1.0000
  Fe  Fe189     1.0  0.91465  0.13367  0.81958  1.0000
  S   S383      1.0  0.93529  0.13755  0.85785  1.0000
  Fe  Fe190     1.0  0.91722  0.13281  0.75577  1.0000
  S   S384      1.0  0.94089  0.13206  0.72008  1.0000
  S   S385      1.0  0.87867  0.13153  0.81954  1.0000
  S   S386      1.0  0.88144  0.13109  0.75104  1.0000
  C   C1710     1.0  0.75736  0.20400  0.78066  1.0000
  H   H3063     1.0  0.97874  0.16466  0.54584  1.0000
  H   H3064     1.0  0.83258  0.05292  0.86135  1.0000
  C   C1711     1.0  0.91010  0.01606  0.75117  1.0000
  C   C1712     1.0  0.88905  0.01400  0.76054  1.0000
  C   C1713     1.0  0.87649  0.03226  0.77084  1.0000
  C   C1714     1.0  0.88495  0.05254  0.77163  1.0000
  C   C1715     1.0  0.90602  0.05432  0.76254  1.0000
  C   C1716     1.0  0.91856  0.03618  0.75255  1.0000
  H   H3065     1.0  0.76915  0.23989  0.75760  1.0000
  H   H3066     1.0  0.86016  0.03071  0.77792  1.0000
  H   H3067     1.0  0.91264  0.06975  0.76270  1.0000
  H   H3068     1.0  0.93493  0.03778  0.74563  1.0000
  H   H3069     1.0  0.87100  0.07944  0.84815  1.0000
  N   N96       1.0  0.79578  0.23115  0.72975  1.0000
  H   H3070     1.0  0.79274  0.22815  0.77431  1.0000
  H   H3071     1.0  0.93896  0.15522  0.61830  1.0000
  H   H3072     1.0  0.85783  0.03103  0.65646  1.0000
  C   C1717     1.0  0.79025  0.23979  0.67746  1.0000
  C   C1718     1.0  0.86070  0.06402  0.58722  1.0000
  C   C1719     1.0  0.93166  0.12565  0.68658  1.0000
  C   C1720     1.0  0.94638  0.11546  0.66777  1.0000
  C   C1721     1.0  0.93984  0.11047  0.64069  1.0000
  C   C1722     1.0  0.91842  0.11557  0.63220  1.0000
  C   C1723     1.0  0.90363  0.12585  0.65098  1.0000
  C   C1724     1.0  0.91023  0.13094  0.67811  1.0000
  H   H3073     1.0  0.96288  0.11112  0.67435  1.0000
  H   H3074     1.0  0.95131  0.10238  0.62659  1.0000
  H   H3075     1.0  0.88704  0.12993  0.64451  1.0000
  H   H3076     1.0  0.89881  0.13904  0.69238  1.0000
  C   C1725     1.0  0.91774  0.10780  0.94031  1.0000
  C   C1726     1.0  0.90414  0.10632  0.91710  1.0000
  C   C1727     1.0  0.90985  0.11455  0.89137  1.0000
  C   C1728     1.0  0.92871  0.12523  0.88907  1.0000
  C   C1729     1.0  0.94226  0.12685  0.91232  1.0000
  C   C1730     1.0  0.93692  0.11795  0.93784  1.0000
  H   H3077     1.0  0.88906  0.09893  0.91917  1.0000
  H   H3078     1.0  0.89947  0.11307  0.87349  1.0000
  H   H3079     1.0  0.95691  0.13504  0.91055  1.0000
  H   H3080     1.0  0.94748  0.11914  0.95567  1.0000
  H   H3081     1.0  0.91617  0.02241  0.53842  1.0000
  H   H3082     1.0  0.92036  0.02367  0.81662  1.0000
  H   H3083     1.0  0.90218  0.04465  0.95213  1.0000
  H   H3084     1.0  0.98241  0.29609  0.79696  1.0000
  H   H3085     1.0  0.89414  0.00324  0.63053  1.0000
  H   H3086     1.0  0.75961  0.23987  0.65491  1.0000
  H   H3087     1.0  0.81013  0.19741  0.68761  1.0000
  C   C1731     1.0  0.89564  0.28161  0.72852  1.0000
  H   H3088     1.0  0.88797  0.01092  0.58710  1.0000
  H   H3089     1.0  0.96636  0.01644  0.61005  1.0000
  C   C1732     1.0  0.79897  0.20350  0.83967  1.0000
  C   C1733     1.0  0.80972  0.21989  0.82757  1.0000
  C   C1734     1.0  0.82797  0.21468  0.81099  1.0000
  C   C1735     1.0  0.83537  0.19312  0.80588  1.0000
  C   C1736     1.0  0.82471  0.17667  0.81804  1.0000
  C   C1737     1.0  0.80656  0.18188  0.83497  1.0000
  H   H3090     1.0  0.85216  0.12201  0.70479  1.0000
  H   H3091     1.0  0.83655  0.22744  0.80234  1.0000
  N   N97       1.0  0.87030  0.06164  0.66776  1.0000
  C   C1738     1.0  0.89170  0.05650  0.68251  1.0000
  C   C1739     1.0  0.85501  0.08684  0.70759  1.0000
  C   C1740     1.0  0.90961  0.07182  0.67708  1.0000
  C   C1741     1.0  0.85807  0.03149  0.70058  1.0000
  H   H3092     1.0  0.77764  0.21577  0.64974  1.0000
  C   C1742     1.0  0.84279  0.10890  0.71267  1.0000
  C   C1743     1.0  0.93005  0.06549  0.69408  1.0000
  H   H3093     1.0  0.89849  0.04001  0.67652  1.0000
  H   H3094     1.0  0.88957  0.05619  0.70534  1.0000
  H   H3095     1.0  0.87029  0.08607  0.71986  1.0000
  H   H3096     1.0  0.84441  0.07481  0.71533  1.0000
  H   H3097     1.0  0.91448  0.07126  0.65502  1.0000
  H   H3098     1.0  0.90387  0.08852  0.68292  1.0000
  H   H3099     1.0  0.87368  0.02133  0.70094  1.0000
  H   H3100     1.0  0.85806  0.04242  0.71873  1.0000
  S   S387      1.0  0.77629  0.20976  0.86099  1.0000
  H   H3101     1.0  0.94566  0.03289  0.59175  1.0000
  H   H3102     1.0  0.82670  0.10985  0.70222  1.0000
  H   H3103     1.0  0.84014  0.11136  0.73529  1.0000
  H   H3104     1.0  0.94382  0.07386  0.68609  1.0000
  H   H3105     1.0  0.92758  0.07056  0.71599  1.0000
  H   H3106     1.0  0.93453  0.04783  0.69291  1.0000
  C   C1744     1.0  0.81503  0.21463  0.72693  1.0000
  C   C1745     1.0  0.81162  0.19375  0.71006  1.0000
  C   C1746     1.0  0.83079  0.17685  0.71377  1.0000
  H   H3107     1.0  0.82881  0.22184  0.71680  1.0000
  H   H3108     1.0  0.82126  0.20972  0.74790  1.0000
  H   H3109     1.0  0.99015  0.14081  0.69264  1.0000
  H   H3110     1.0  0.89718  0.06527  0.89881  1.0000
  H   H3111     1.0  0.80726  0.23316  0.67443  1.0000
  H   H3112     1.0  0.83242  0.24357  0.75906  1.0000
  H   H3113     1.0  0.82862  0.16267  0.70019  1.0000
  H   H3114     1.0  0.84624  0.18358  0.70822  1.0000
  C   C1747     1.0  0.75849  0.30566  0.75496  1.0000
  H   H3115     1.0  0.96664  0.07237  0.84424  1.0000
  H   H3116     1.0  0.77473  0.21579  0.70070  1.0000
  S   S388      1.0  0.77440  0.29599  0.78339  1.0000
  C   C1748     1.0  0.88934  0.20480  0.86403  1.0000
  H   H3117     1.0  0.96531  0.17907  0.66296  1.0000
  H   H3118     1.0  0.85772  0.31366  0.73367  1.0000
  H   H3119     1.0  0.92626  0.01726  0.87063  1.0000
  S   S389      1.0  0.91014  0.09684  0.97196  1.0000
  H   H3120     1.0  0.87812  0.21817  0.85584  1.0000
  C   C1749     1.0  0.77681  0.23358  0.65238  1.0000
  H   H3121     1.0  0.80625  0.30585  0.53888  1.0000
  H   H3122     1.0  0.98399  0.17515  0.75633  1.0000
  H   H3123     1.0  0.79686  0.18625  0.71621  1.0000
  H   H3124     1.0  0.88414  0.04740  0.63011  1.0000
  H   H3125     1.0  0.84238  0.05416  0.62178  1.0000
  H   H3126     1.0  0.86704  0.04725  0.58225  1.0000
  C   C1750     1.0  0.97410  0.16546  0.65149  1.0000
  C   C1751     1.0  0.90144  0.01650  0.54759  1.0000
  H   H3127     1.0  0.84639  0.08251  0.62080  1.0000
  C   C1752     1.0  0.89666  0.17327  0.92254  1.0000
  H   H3128     1.0  0.78992  0.25770  0.67789  1.0000
  H   H3129     1.0  0.89665  0.21041  0.88359  1.0000
  H   H3130     1.0  0.83161  0.08116  0.85270  1.0000
  C   C1753     1.0  0.93402  0.01756  0.62909  1.0000
  C   C1754     1.0  0.88554  0.04441  0.94349  1.0000
  H   H3131     1.0  0.92150  0.16293  0.95268  1.0000
  H   H3132     1.0  0.87464  0.29729  0.69714  1.0000
  C   C1755     1.0  0.88948  0.25899  0.72091  1.0000
  H   H3133     1.0  0.78685  0.19208  0.76094  1.0000
  H   H3134     1.0  0.89601  0.01016  0.82061  1.0000
  H   H3135     1.0  0.87691  0.20303  0.92715  1.0000
  H   H3136     1.0  0.89609  0.32138  0.75323  1.0000
  C   C1756     1.0  0.87689  0.18451  0.86885  1.0000
  C   C1757     1.0  0.87465  0.06248  0.63696  1.0000
  H   H3137     1.0  0.90016  0.00823  0.87073  1.0000
  C   C1758     1.0  0.95582  0.00408  0.51800  1.0000
  C   C1759     1.0  0.92199  0.99759  0.58738  1.0000
  H   H3138     1.0  0.81003  0.25711  0.77788  1.0000
  H   H3139     1.0  0.89726  0.31153  0.64911  1.0000
  H   H3140     1.0  0.82406  0.02609  0.70623  1.0000
  H   H3141     1.0  0.87773  0.06116  0.94392  1.0000
  H   H3142     1.0  0.93040  0.30962  0.69332  1.0000
  H   H3143     1.0  0.94026  0.01555  0.65073  1.0000
  H   H3144     1.0  0.87223  0.25942  0.71436  1.0000
  C   C1760     1.0  0.90382  0.01507  0.57904  1.0000
  H   H3145     1.0  0.90713  0.03128  0.58688  1.0000
  H   H3146     1.0  0.89156  0.01798  0.91464  1.0000
  H   H3147     1.0  0.88901  0.17037  0.86997  1.0000
  C   C1761     1.0  0.78079  0.23177  0.70487  1.0000
  H   H3148     1.0  0.97080  0.17500  0.70825  1.0000
  H   H3149     1.0  0.87317  0.07524  0.58221  1.0000
  H   H3150     1.0  0.81082  0.30627  0.66488  1.0000
  H   H3151     1.0  0.81303  0.25748  0.71438  1.0000
  C   C1762     1.0  0.82965  0.27797  0.75607  1.0000
  C   C1763     1.0  0.97200  0.00464  0.53841  1.0000
  C   C1764     1.0  0.92257  0.31913  0.71072  1.0000
  C   C1765     1.0  0.88588  0.03537  0.91384  1.0000
  S   S390      1.0  0.80687  0.31389  0.60185  1.0000
  H   H3152     1.0  0.90119  0.28954  0.68588  1.0000
  H   H3153     1.0  0.90551  0.18736  0.96228  1.0000
  H   H3154     1.0  0.76488  0.20851  0.80058  1.0000
  C   C1766     1.0  0.96974  0.16985  0.62025  1.0000
  H   H3155     1.0  0.88465  0.07601  0.63205  1.0000
  H   H3156     1.0  0.91621  0.21503  0.84026  1.0000
  H   H3157     1.0  0.89988  0.25198  0.70387  1.0000
  H   H3158     1.0  0.87772  0.04236  0.83037  1.0000
  H   H3159     1.0  0.93469  0.01582  0.97535  1.0000
  H   H3160     1.0  0.90006  0.19657  0.82223  1.0000
  S   S391      1.0  0.77743  0.27378  0.85855  1.0000
  H   H3161     1.0  0.81163  0.23649  0.88942  1.0000
  N   N98       1.0  0.86199  0.18578  0.89362  1.0000
  S   S392      1.0  0.75682  0.28960  0.63784  1.0000
  C   C1767     1.0  0.84784  0.16716  0.89237  1.0000
  C   C1768     1.0  0.84728  0.20636  0.89101  1.0000
  C   C1769     1.0  0.87406  0.18618  0.92102  1.0000
  H   H3162     1.0  0.83813  0.05029  0.67065  1.0000
  H   H3163     1.0  0.98476  0.12502  0.63173  1.0000
  C   C1770     1.0  0.82810  0.20934  0.91161  1.0000
  C   C1771     1.0  0.85942  0.14423  0.89391  1.0000
  C   C1772     1.0  0.84381  0.12706  0.88737  1.0000
  H   H3164     1.0  0.94561  0.06105  0.62721  1.0000
  H   H3165     1.0  0.80392  0.31748  0.96900  1.0000
  C   C1773     1.0  0.81732  0.23237  0.91079  1.0000
  H   H3166     1.0  0.86751  0.18181  0.84947  1.0000
  N   N99       1.0  0.89820  0.31987  0.70831  1.0000
  H   H3167     1.0  0.83620  0.16798  0.90986  1.0000
  H   H3168     1.0  0.83789  0.16818  0.87306  1.0000
  H   H3169     1.0  0.84020  0.20763  0.86973  1.0000
  H   H3170     1.0  0.85671  0.22070  0.89377  1.0000
  H   H3171     1.0  0.78309  0.24064  0.63325  1.0000
  H   H3172     1.0  0.86388  0.18035  0.93790  1.0000
  C   C1774     1.0  0.90490  0.17121  0.95245  1.0000
  H   H3173     1.0  0.89648  0.15683  0.91387  1.0000
  C   C1775     1.0  0.92996  0.00389  0.95961  1.0000
  H   H3174     1.0  0.89185  0.24830  0.73924  1.0000
  H   H3175     1.0  0.83360  0.20585  0.93319  1.0000
  H   H3176     1.0  0.81542  0.19844  0.90585  1.0000
  H   H3177     1.0  0.87276  0.14201  0.87887  1.0000
  H   H3178     1.0  0.86583  0.14113  0.91520  1.0000
  H   H3179     1.0  0.85250  0.11079  0.88930  1.0000
  H   H3180     1.0  0.83004  0.12831  0.90209  1.0000
  H   H3181     1.0  0.83748  0.12888  0.86580  1.0000
  C   C1776     1.0  0.89193  0.29719  0.70359  1.0000
  H   H3182     1.0  0.80303  0.23375  0.92468  1.0000
  H   H3183     1.0  0.86890  0.03671  0.90629  1.0000
  C   C1777     1.0  0.90724  0.20044  0.84265  1.0000
  S   S393      1.0  0.75557  0.30728  0.92193  1.0000
  H   H3184     1.0  0.87617  0.03426  0.95701  1.0000
  H   H3185     1.0  0.89865  0.00046  0.53854  1.0000
  H   H3186     1.0  0.90876  0.18154  0.91062  1.0000
  C   C1778     1.0  0.99179  0.16339  0.74125  1.0000
  C   C1779     1.0  0.93792  0.05672  0.85529  1.0000
  C   C1780     1.0  0.94910  0.07350  0.83900  1.0000
  H   H3187     1.0  0.91044  0.05766  0.82673  1.0000
  H   H3188     1.0  0.90707  0.07535  0.85523  1.0000
  H   H3189     1.0  0.94554  0.04067  0.84898  1.0000
  H   H3190     1.0  0.94135  0.05942  0.87761  1.0000
  H   H3191     1.0  0.94734  0.07062  0.81635  1.0000
  H   H3192     1.0  0.94213  0.09004  0.84432  1.0000
  C   C1781     1.0  0.76830  0.30749  0.72904  1.0000
  Fe  Fe191     1.0  0.94056  0.09361  0.50345  1.0000
  C   C1782     1.0  0.80121  0.30080  0.51783  1.0000
  H   H3193     1.0  0.84624  0.06812  0.57395  1.0000
  H   H3194     1.0  0.91288  0.28015  0.73512  1.0000
  C   C1783     1.0  0.85963  0.08333  0.67636  1.0000
  C   C1784     1.0  0.91314  0.05856  0.84956  1.0000
  H   H3195     1.0  0.91983  0.02964  0.63068  1.0000
  H   H3196     1.0  0.81712  0.29181  0.75589  1.0000
  C   C1785     1.0  0.95892  0.04795  0.62736  1.0000
  H   H3197     1.0  0.84367  0.08629  0.66580  1.0000
  H   H3198     1.0  0.80412  0.23660  0.83122  1.0000
  S   S394      1.0  0.97569  0.08215  0.50770  1.0000
  H   H3199     1.0  0.91891  0.18685  0.84922  1.0000
  Fe  Fe192     1.0  0.77146  0.30754  0.60336  1.0000
  H   H3200     1.0  0.84001  0.06106  0.82700  1.0000
  H   H3201     1.0  0.76595  0.24263  0.70922  1.0000
  N   N100      1.0  0.90044  0.04258  0.86459  1.0000
  C   C1786     1.0  0.86408  0.06605  0.85924  1.0000
  H   H3202     1.0  0.86852  0.03084  0.86084  1.0000
  H   H3203     1.0  0.91761  0.04434  0.90375  1.0000
  N   N101      1.0  0.92742  0.99630  0.61793  1.0000
  H   H3204     1.0  0.86934  0.09654  0.66936  1.0000
  C   C1787     1.0  0.81915  0.25664  0.75811  1.0000
  H   H3205     1.0  0.84038  0.27987  0.77434  1.0000
  C   C1788     1.0  0.90096  0.04773  0.89522  1.0000
  C   C1789     1.0  0.84065  0.06516  0.84945  1.0000
  H   H3206     1.0  0.96402  0.04430  0.64907  1.0000
  H   H3207     1.0  0.89428  0.16141  0.96476  1.0000
  C   C1790     1.0  0.99430  0.16769  0.55474  1.0000
  C   C1791     1.0  0.95179  0.02787  0.61259  1.0000
  C   C1792     1.0  0.85439  0.06602  0.61779  1.0000
  H   H3208     1.0  0.83952  0.27831  0.73699  1.0000
  C   C1793     1.0  0.91015  0.01975  0.86027  1.0000
  C   C1794     1.0  0.87759  0.04435  0.85331  1.0000
  H   H3209     1.0  0.97300  0.05370  0.61635  1.0000
  H   H3210     1.0  0.82878  0.24413  0.91785  1.0000
  H   H3211     1.0  0.86358  0.07007  0.88167  1.0000
  C   C1795     1.0  0.80384  0.25334  0.73304  1.0000
  H   H3212     1.0  0.78550  0.30349  0.72683  1.0000
  Fe  Fe193     1.0  0.76014  0.24359  0.85659  1.0000
  H   H3213     1.0  0.81920  0.31462  0.69913  1.0000
  H   H3214     1.0  0.93654  0.18390  0.62578  1.0000
  H   H3215     1.0  0.97563  0.18550  0.61430  1.0000
  Fe  Fe194     1.0  0.75747  0.28407  0.82105  1.0000
  H   H3216     1.0  0.98592  0.20182  0.56102  1.0000
  H   H3217     1.0  0.92572  0.01251  0.94004  1.0000
  H   H3218     1.0  0.76357  0.31547  0.68588  1.0000
  H   H3219     1.0  0.76472  0.20062  0.73776  1.0000
  H   H3220     1.0  0.98638  0.13942  0.94802  1.0000
  H   H3221     1.0  0.84279  0.32016  0.97811  1.0000
  H   H3222     1.0  0.78569  0.29320  0.51959  1.0000
  H   H3223     1.0  0.96979  0.16479  0.95073  1.0000
  C   C1796     1.0  0.91229  0.01213  0.82956  1.0000
  C   C1797     1.0  0.94552  0.17086  0.61360  1.0000
  C   C1798     1.0  0.78275  0.22705  0.75526  1.0000
  H   H3224     1.0  0.92828  0.31046  0.72987  1.0000
  H   H3225     1.0  0.94844  0.01904  0.50966  1.0000
  H   H3226     1.0  0.80528  0.31457  0.89904  1.0000
  H   H3227     1.0  0.83915  0.30751  0.67274  1.0000
  H   H3228     1.0  0.91270  0.00397  0.67490  1.0000
  H   H3229     1.0  0.96578  0.15107  0.65735  1.0000
  H   H3230     1.0  0.97776  0.15694  0.60702  1.0000
  C   C1799     1.0  0.80930  0.32574  0.98796  1.0000
  H   H3231     1.0  0.83948  0.00489  0.68706  1.0000
  C   C1800     1.0  0.98145  0.15331  0.96186  1.0000
  H   H3232     1.0  0.88741  0.02801  0.54215  1.0000
  C   C1801     1.0  0.82269  0.31535  0.67660  1.0000
  S   S395      1.0  0.75413  0.28997  0.57018  1.0000
  H   H3233     1.0  0.75221  0.18740  0.78263  1.0000
  C   C1802     1.0  0.77346  0.20473  0.75692  1.0000
  H   H3234     1.0  0.76445  0.31709  0.97844  1.0000
  H   H3235     1.0  0.98426  0.14788  0.74345  1.0000
  C   C1803     1.0  0.98851  0.17206  0.71181  1.0000
  H   H3236     1.0  0.93669  0.00003  0.57506  1.0000
  H   H3237     1.0  0.96228  0.99556  0.94650  1.0000
  C   C1804     1.0  0.79807  0.32027  0.49867  1.0000
  C   C1805     1.0  0.75590  0.31430  0.70577  1.0000
  H   H3238     1.0  0.81363  0.28863  0.50939  1.0000
  H   H3239     1.0  0.91555  0.99635  0.96734  1.0000
  H   H3240     1.0  0.97318  0.14710  0.98017  1.0000
  Fe  Fe195     1.0  0.74886  0.28763  0.88347  1.0000
  H   H3241     1.0  0.99627  0.19766  0.66612  1.0000
  C   C1806     1.0  0.74792  0.31289  0.97730  1.0000
  C   C1807     1.0  0.99332  0.30810  0.79165  1.0000
  H   H3242     1.0  0.83395  0.32518  0.93159  1.0000
  H   H3243     1.0  0.99584  0.18770  0.71104  1.0000
  H   H3244     1.0  0.99161  0.21098  0.96174  1.0000
  H   H3245     1.0  0.98737  0.24833  0.97942  1.0000
  H   H3246     1.0  0.99684  0.20502  0.50951  1.0000
  H   H3247     1.0  0.96372  0.32752  0.72770  1.0000
  H   H3248     1.0  0.99556  0.17751  0.98620  1.0000
  H   H3249     1.0  0.86360  0.32800  0.78215  1.0000
  H   H3250     1.0  0.96327  0.63224  0.26686  1.0000
  S   S396      1.0  0.88714  0.57096  0.22641  1.0000
  S   S397      1.0  0.90734  0.56191  0.16430  1.0000
  Fe  Fe196     1.0  0.88898  0.58935  0.18684  1.0000
  S   S398      1.0  0.85787  0.60494  0.16814  1.0000
  Fe  Fe197     1.0  0.90799  0.54472  0.20512  1.0000
  S   S399      1.0  0.89737  0.51085  0.20549  1.0000
  Fe  Fe198     1.0  0.92888  0.40698  0.28179  1.0000
  S   S400      1.0  0.89269  0.40927  0.28579  1.0000
  H   H3251     1.0  0.83445  0.50619  0.47097  1.0000
  Fe  Fe199     1.0  0.89859  0.38498  0.31973  1.0000
  S   S401      1.0  0.87610  0.38622  0.35658  1.0000
  Fe  Fe200     1.0  0.89449  0.38079  0.25680  1.0000
  S   S402      1.0  0.87003  0.37854  0.22222  1.0000
  Fe  Fe201     1.0  0.93707  0.57608  0.18031  1.0000
  S   S403      1.0  0.93032  0.38018  0.25033  1.0000
  Fe  Fe202     1.0  0.89114  0.40800  0.07176  1.0000
  S   S404      1.0  0.86125  0.43024  0.07841  1.0000
  S   S405      1.0  0.91188  0.39098  0.10480  1.0000
  H   H3252     1.0  0.96079  0.47669  0.25514  1.0000
  H   H3253     1.0  0.99538  0.51314  0.33129  1.0000
  N   N102      1.0  0.99288  0.63044  0.07261  1.0000
  Fe  Fe203     1.0  0.87645  0.45300  0.04989  1.0000
  S   S406      1.0  0.88228  0.48690  0.06364  1.0000
  Fe  Fe204     1.0  0.84939  0.41495  0.03930  1.0000
  S   S407      1.0  0.81532  0.40465  0.03502  1.0000
  S   S408      1.0  0.90719  0.43181  0.04630  1.0000
  S   S409      1.0  0.87834  0.39098  0.03466  1.0000
  H   H3254     1.0  0.83030  0.40113  0.10690  1.0000
  C   C1808     1.0  0.93944  0.47681  0.33709  1.0000
  C   C1809     1.0  0.89816  0.52329  0.04354  1.0000
  C   C1810     1.0  0.88382  0.50735  0.03884  1.0000
  H   H3255     1.0  0.95571  0.46474  0.02941  1.0000
  H   H3256     1.0  0.95668  0.56873  0.28820  1.0000
  H   H3257     1.0  0.90846  0.52256  0.06178  1.0000
  H   H3258     1.0  0.94088  0.50686  0.22960  1.0000
  C   C1811     1.0  0.93357  0.58587  0.36052  1.0000
  C   C1812     1.0  0.89963  0.38685  0.13685  1.0000
  C   C1813     1.0  0.91209  0.37674  0.15814  1.0000
  C   C1814     1.0  0.90301  0.37397  0.18429  1.0000
  C   C1815     1.0  0.88144  0.38134  0.18932  1.0000
  C   C1816     1.0  0.86883  0.39100  0.16786  1.0000
  C   C1817     1.0  0.87792  0.39383  0.14167  1.0000
  H   H3259     1.0  0.92882  0.37113  0.15440  1.0000
  H   H3260     1.0  0.85220  0.39672  0.17172  1.0000
  H   H3261     1.0  0.86821  0.40152  0.12533  1.0000
  C   C1818     1.0  0.88637  0.39554  0.38817  1.0000
  C   C1819     1.0  0.90818  0.39930  0.39076  1.0000
  C   C1820     1.0  0.91620  0.40700  0.41589  1.0000
  C   C1821     1.0  0.90247  0.41082  0.43868  1.0000
  C   C1822     1.0  0.88057  0.40709  0.43620  1.0000
  C   C1823     1.0  0.87254  0.39939  0.41095  1.0000
  H   H3262     1.0  0.95295  0.62977  0.31544  1.0000
  H   H3263     1.0  0.93627  0.57715  0.10799  1.0000
  H   H3264     1.0  0.86988  0.41005  0.45371  1.0000
  H   H3265     1.0  0.85562  0.39649  0.40901  1.0000
  C   C1824     1.0  0.91204  0.49020  0.22406  1.0000
  C   C1825     1.0  0.90237  0.47100  0.22872  1.0000
  C   C1826     1.0  0.91338  0.45421  0.24375  1.0000
  C   C1827     1.0  0.93430  0.45633  0.25382  1.0000
  H   H3266     1.0  0.88617  0.46919  0.22099  1.0000
  H   H3267     1.0  0.90565  0.43958  0.24726  1.0000
  H   H3268     1.0  0.93093  0.47366  0.31712  1.0000
  C   C1828     1.0  0.78359  0.35388  0.06069  1.0000
  C   C1829     1.0  0.78862  0.37329  0.04844  1.0000
  C   C1830     1.0  0.80972  0.37989  0.05002  1.0000
  C   C1831     1.0  0.82583  0.36685  0.06376  1.0000
  H   H3269     1.0  0.98341  0.61199  0.03686  1.0000
  C   C1832     1.0  0.83017  0.34593  0.42073  1.0000
  H   H3270     1.0  0.77608  0.38331  0.03788  1.0000
  H   H3271     1.0  0.84212  0.37180  0.06523  1.0000
  C   C1833     1.0  0.97602  0.55553  0.06462  1.0000
  H   H3272     1.0  0.98361  0.64897  0.03566  1.0000
  C   C1834     1.0  0.79728  0.36759  0.21900  1.0000
  C   C1835     1.0  0.83271  0.64327  0.16374  1.0000
  C   C1836     1.0  0.85351  0.63333  0.16915  1.0000
  C   C1837     1.0  0.87051  0.64614  0.17480  1.0000
  H   H3273     1.0  0.88096  0.37252  0.48550  1.0000
  H   H3274     1.0  0.81947  0.63346  0.15948  1.0000
  H   H3275     1.0  0.88659  0.63868  0.17878  1.0000
  H   H3276     1.0  0.94116  0.51513  0.36717  1.0000
  H   H3277     1.0  0.95597  0.41037  0.09146  1.0000
  C   C1838     1.0  0.93317  0.49223  0.23359  1.0000
  N   N103      1.0  0.88917  0.49379  0.42029  1.0000
  C   C1839     1.0  0.90594  0.47913  0.43548  1.0000
  C   C1840     1.0  0.88269  0.48276  0.39383  1.0000
  C   C1841     1.0  0.89982  0.51387  0.41238  1.0000
  C   C1842     1.0  0.86946  0.50053  0.43761  1.0000
  C   C1843     1.0  0.86192  0.48386  0.45853  1.0000
  C   C1844     1.0  0.91792  0.48998  0.45951  1.0000
  C   C1845     1.0  0.88671  0.52989  0.39287  1.0000
  C   C1846     1.0  0.87223  0.46116  0.39690  1.0000
  C   C1847     1.0  0.86855  0.45076  0.36857  1.0000
  H   H3278     1.0  0.83391  0.34104  0.37660  1.0000
  C   C1848     1.0  0.81228  0.37267  0.24302  1.0000
  C   C1849     1.0  0.89717  0.55127  0.39137  1.0000
  H   H3279     1.0  0.91860  0.47234  0.42080  1.0000
  H   H3280     1.0  0.89895  0.46474  0.44395  1.0000
  H   H3281     1.0  0.87063  0.49334  0.38197  1.0000
  H   H3282     1.0  0.89702  0.47974  0.38019  1.0000
  H   H3283     1.0  0.91570  0.50940  0.40233  1.0000
  H   H3284     1.0  0.90347  0.52339  0.43132  1.0000
  H   H3285     1.0  0.87204  0.51519  0.45031  1.0000
  H   H3286     1.0  0.85551  0.50568  0.42381  1.0000
  H   H3287     1.0  0.96894  0.65216  0.31052  1.0000
  H   H3288     1.0  0.86385  0.46703  0.45086  1.0000
  H   H3289     1.0  0.83721  0.34083  0.00358  1.0000
  H   H3290     1.0  0.89426  0.53965  0.29835  1.0000
  H   H3291     1.0  0.86984  0.53340  0.40023  1.0000
  H   H3292     1.0  0.88632  0.52318  0.37146  1.0000
  H   H3293     1.0  0.88255  0.44938  0.40930  1.0000
  H   H3294     1.0  0.85609  0.46405  0.40667  1.0000
  H   H3295     1.0  0.85999  0.43592  0.37129  1.0000
  H   H3296     1.0  0.85842  0.46192  0.35498  1.0000
  H   H3297     1.0  0.88421  0.44608  0.35822  1.0000
  C   C1850     1.0  0.89906  0.54048  0.02503  1.0000
  C   C1851     1.0  0.96979  0.50759  0.41079  1.0000
  N   N104      1.0  0.98334  0.63359  0.36274  1.0000
  H   H3298     1.0  0.80740  0.33626  0.38933  1.0000
  H   H3299     1.0  0.96110  0.42477  0.20027  1.0000
  C   C1852     1.0  0.99195  0.50222  0.31381  1.0000
  H   H3300     1.0  0.89648  0.55960  0.41190  1.0000
  H   H3301     1.0  0.91436  0.54852  0.38492  1.0000
  H   H3302     1.0  0.88838  0.56203  0.37601  1.0000
  S   S410      1.0  0.93499  0.38476  0.31838  1.0000
  S   S411      1.0  0.89725  0.35664  0.29097  1.0000
  H   H3303     1.0  0.92960  0.50086  0.45115  1.0000
  C   C1853     1.0  0.86991  0.50899  0.01582  1.0000
  C   C1854     1.0  0.82082  0.34743  0.07595  1.0000
  N   N105      1.0  0.83950  0.56642  0.09108  1.0000
  C   C1855     1.0  0.83895  0.55288  0.06498  1.0000
  C   C1856     1.0  0.84438  0.55181  0.11561  1.0000
  C   C1857     1.0  0.81697  0.57727  0.09523  1.0000
  C   C1858     1.0  0.85549  0.58348  0.08971  1.0000
  C   C1859     1.0  0.87609  0.57809  0.07197  1.0000
  C   C1860     1.0  0.83192  0.56530  0.03800  1.0000
  C   C1861     1.0  0.81349  0.59129  0.12189  1.0000
  C   C1862     1.0  0.86626  0.53787  0.11543  1.0000
  C   C1863     1.0  0.86793  0.52262  0.14016  1.0000
  C   C1864     1.0  0.89260  0.59461  0.07691  1.0000
  C   C1865     1.0  0.80937  0.56050  0.02779  1.0000
  C   C1866     1.0  0.79116  0.60379  0.12173  1.0000
  H   H3304     1.0  0.82846  0.53936  0.06796  1.0000
  H   H3305     1.0  0.85503  0.54444  0.06059  1.0000
  H   H3306     1.0  0.84470  0.56142  0.13518  1.0000
  H   H3307     1.0  0.83127  0.54073  0.11800  1.0000
  H   H3308     1.0  0.80484  0.56498  0.09537  1.0000
  H   H3309     1.0  0.81231  0.58817  0.07767  1.0000
  H   H3310     1.0  0.84764  0.59881  0.08116  1.0000
  H   H3311     1.0  0.86080  0.58781  0.11103  1.0000
  H   H3312     1.0  0.87190  0.57842  0.04955  1.0000
  H   H3313     1.0  0.88414  0.56199  0.07657  1.0000
  H   H3314     1.0  0.83271  0.58298  0.04016  1.0000
  H   H3315     1.0  0.84343  0.56027  0.02119  1.0000
  H   H3316     1.0  0.82580  0.60319  0.12360  1.0000
  H   H3317     1.0  0.81440  0.58113  0.14074  1.0000
  H   H3318     1.0  0.86835  0.52776  0.09649  1.0000
  H   H3319     1.0  0.87982  0.54833  0.11735  1.0000
  H   H3320     1.0  0.86603  0.53179  0.16001  1.0000
  H   H3321     1.0  0.85542  0.51086  0.13872  1.0000
  H   H3322     1.0  0.88410  0.51356  0.14032  1.0000
  H   H3323     1.0  0.89801  0.59436  0.09895  1.0000
  H   H3324     1.0  0.90694  0.59067  0.06355  1.0000
  H   H3325     1.0  0.88539  0.61103  0.07169  1.0000
  H   H3326     1.0  0.79683  0.56522  0.04350  1.0000
  C   C1867     1.0  0.98974  0.56004  0.11150  1.0000
  H   H3327     1.0  0.80907  0.54302  0.02295  1.0000
  H   H3328     1.0  0.78883  0.61308  0.14142  1.0000
  H   H3329     1.0  0.78972  0.61536  0.10424  1.0000
  H   H3330     1.0  0.77818  0.59255  0.11993  1.0000
  N   N106      1.0  0.93126  0.46303  0.13591  1.0000
  C   C1868     1.0  0.93461  0.44923  0.11013  1.0000
  C   C1869     1.0  0.90736  0.46934  0.13930  1.0000
  C   C1870     1.0  0.94222  0.48351  0.13104  1.0000
  C   C1871     1.0  0.94063  0.45215  0.16182  1.0000
  C   C1872     1.0  0.94080  0.42713  0.16295  1.0000
  C   C1873     1.0  0.95859  0.44445  0.10110  1.0000
  C   C1874     1.0  0.93911  0.50126  0.15377  1.0000
  C   C1875     1.0  0.89261  0.45084  0.14402  1.0000
  C   C1876     1.0  0.86877  0.45945  0.14462  1.0000
  C   C1877     1.0  0.96160  0.42496  0.08157  1.0000
  C   C1878     1.0  0.95422  0.51909  0.14912  1.0000
  H   H3331     1.0  0.92572  0.45717  0.09226  1.0000
  H   H3332     1.0  0.92737  0.43366  0.11230  1.0000
  H   H3333     1.0  0.90449  0.48018  0.15758  1.0000
  H   H3334     1.0  0.90103  0.47867  0.12087  1.0000
  H   H3335     1.0  0.93653  0.49101  0.11104  1.0000
  H   H3336     1.0  0.96002  0.47981  0.12904  1.0000
  H   H3337     1.0  0.95776  0.45582  0.16513  1.0000
  H   H3338     1.0  0.93196  0.45898  0.18051  1.0000
  H   H3339     1.0  0.95330  0.41945  0.14886  1.0000
  H   H3340     1.0  0.92516  0.42132  0.15650  1.0000
  H   H3341     1.0  0.80939  0.36862  0.33396  1.0000
  H   H3342     1.0  0.95046  0.61395  0.05790  1.0000
  H   H3343     1.0  0.94244  0.49450  0.17472  1.0000
  H   H3344     1.0  0.92234  0.50903  0.15311  1.0000
  H   H3345     1.0  0.89440  0.43844  0.12738  1.0000
  H   H3346     1.0  0.89629  0.44323  0.16444  1.0000
  H   H3347     1.0  0.86394  0.46727  0.12462  1.0000
  H   H3348     1.0  0.85853  0.44588  0.14796  1.0000
  H   H3349     1.0  0.86586  0.47133  0.16183  1.0000
  S   S412      1.0  0.96706  0.57905  0.15453  1.0000
  H   H3350     1.0  0.92363  0.44510  0.37165  1.0000
  H   H3351     1.0  0.78105  0.37555  0.22387  1.0000
  C   C1879     1.0  0.79717  0.38247  0.45460  1.0000
  H   H3352     1.0  0.98442  0.47457  0.33724  1.0000
  H   H3353     1.0  0.95108  0.52657  0.12848  1.0000
  H   H3354     1.0  0.91257  0.36579  0.20038  1.0000
  C   C1880     1.0  0.99754  0.65188  0.36751  1.0000
  S   S413      1.0  0.96486  0.56041  0.38911  1.0000
  Fe  Fe205     1.0  0.93313  0.35808  0.28695  1.0000
  H   H3355     1.0  0.97208  0.61291  0.09886  1.0000
  C   C1881     1.0  0.95471  0.48167  0.02195  1.0000
  H   H3356     1.0  0.94393  0.50257  0.29177  1.0000
  H   H3357     1.0  0.84165  0.37146  0.45976  1.0000
  C   C1882     1.0  0.91043  0.53167  0.29308  1.0000
  H   H3358     1.0  0.82291  0.33538  0.13987  1.0000
  C   C1883     1.0  0.96936  0.56872  0.12035  1.0000
  H   H3359     1.0  0.80454  0.39418  0.19407  1.0000
  C   C1884     1.0  0.77054  0.38128  0.16527  1.0000
  H   H3360     1.0  0.81728  0.40890  0.15618  1.0000
  H   H3361     1.0  0.93010  0.61915  0.10198  1.0000
  H   H3362     1.0  0.77647  0.41174  0.44678  1.0000
  H   H3363     1.0  0.76733  0.34888  0.05913  1.0000
  H   H3364     1.0  0.93240  0.42374  0.20632  1.0000
  C   C1885     1.0  0.79300  0.34631  0.16190  1.0000
  S   S414      1.0  0.86192  0.43993  0.01099  1.0000
  H   H3365     1.0  0.76506  0.38502  0.14359  1.0000
  H   H3366     1.0  0.95517  0.51834  0.41618  1.0000
  H   H3367     1.0  0.95250  0.42817  0.06195  1.0000
  C   C1886     1.0  0.95008  0.57336  0.30831  1.0000
  H   H3368     1.0  0.98046  0.35703  0.30679  1.0000
  C   C1887     1.0  0.96017  0.56507  0.33271  1.0000
  C   C1888     1.0  0.93311  0.43902  0.35333  1.0000
  C   C1889     1.0  0.95688  0.50692  0.36055  1.0000
  S   S415      1.0  0.98154  0.54780  0.02986  1.0000
  H   H3369     1.0  0.81189  0.39131  0.45289  1.0000
  C   C1890     1.0  0.93077  0.63267  0.08717  1.0000
  S   S416      1.0  0.94044  0.55328  0.46391  1.0000
  H   H3370     1.0  0.82221  0.37156  0.14014  1.0000
  C   C1891     1.0  0.93190  0.58824  0.31005  1.0000
  H   H3371     1.0  0.92043  0.64354  0.39652  1.0000
  S   S417      1.0  0.91881  0.60508  0.19982  1.0000
  H   H3372     1.0  0.83805  0.33896  0.32850  1.0000
  H   H3373     1.0  0.97085  0.48503  0.01426  1.0000
  C   C1892     1.0  0.79967  0.34093  0.07463  1.0000
  C   C1893     1.0  0.80543  0.37634  0.19139  1.0000
  C   C1894     1.0  0.98773  0.65526  0.45925  1.0000
  H   H3374     1.0  0.95989  0.44681  0.32870  1.0000
  C   C1895     1.0  0.97555  0.62567  0.28217  1.0000
  C   C1896     1.0  0.94395  0.51045  0.31256  1.0000
  H   H3375     1.0  0.79653  0.34985  0.21844  1.0000
  S   S418      1.0  0.91333  0.42045  0.46967  1.0000
  H   H3376     1.0  0.80271  0.40808  0.09538  1.0000
  C   C1897     1.0  0.96954  0.63436  0.31109  1.0000
  H   H3377     1.0  0.85853  0.49694  0.01230  1.0000
  S   S419      1.0  0.88207  0.57675  0.47559  1.0000
  H   H3378     1.0  0.82309  0.37152  0.18955  1.0000
  H   H3379     1.0  0.95304  0.65279  0.35447  1.0000
  C   C1898     1.0  0.82634  0.34208  0.31130  1.0000
  C   C1899     1.0  0.95479  0.64882  0.39863  1.0000
  H   H3380     1.0  0.93051  0.64811  0.09897  1.0000
  H   H3381     1.0  0.96115  0.45516  0.36394  1.0000
  C   C1900     1.0  0.87533  0.55312  0.49247  1.0000
  H   H3382     1.0  0.90962  0.50759  0.32436  1.0000
  C   C1901     1.0  0.81535  0.33306  0.16034  1.0000
  H   H3383     1.0  0.93460  0.49180  0.05725  1.0000
  H   H3384     1.0  0.74890  0.35515  0.16315  1.0000
  H   H3385     1.0  0.96962  0.64134  0.10400  1.0000
  C   C1902     1.0  0.81477  0.41051  0.11201  1.0000
  S   S420      1.0  0.93781  0.59275  0.00709  1.0000
  H   H3386     1.0  0.77916  0.65311  0.23504  1.0000
  H   H3387     1.0  0.92196  0.47965  0.00893  1.0000
  H   H3388     1.0  0.88836  0.33291  0.23687  1.0000
  H   H3389     1.0  0.91893  0.39597  0.37350  1.0000
  S   S421      1.0  0.96259  0.64815  0.47227  1.0000
  H   H3390     1.0  0.97344  0.36646  0.21663  1.0000
  N   N107      1.0  0.81959  0.34818  0.47312  1.0000
  H   H3391     1.0  0.94006  0.48197  0.49363  1.0000
  H   H3392     1.0  0.99147  0.35694  0.17623  1.0000
  H   H3393     1.0  0.78475  0.35580  0.47435  1.0000
  H   H3394     1.0  0.95004  0.62618  0.36537  1.0000
  H   H3395     1.0  0.96401  0.45857  0.08992  1.0000
  H   H3396     1.0  0.77008  0.39717  0.17619  1.0000
  H   H3397     1.0  0.83319  0.35352  0.29690  1.0000
  H   H3398     1.0  0.94236  0.46297  0.46500  1.0000
  H   H3399     1.0  0.97145  0.51263  0.15049  1.0000
  N   N108      1.0  0.79341  0.37043  0.16544  1.0000
  H   H3400     1.0  0.78223  0.40675  0.48299  1.0000
  H   H3401     1.0  0.80507  0.36796  0.26280  1.0000
  H   H3402     1.0  0.91023  0.55266  0.02888  1.0000
  H   H3403     1.0  0.93316  0.40978  0.41779  1.0000
  H   H3404     1.0  0.83848  0.37028  0.49580  1.0000
  C   C1903     1.0  0.98956  0.34143  0.30571  1.0000
  C   C1904     1.0  0.79994  0.36410  0.47607  1.0000
  H   H3405     1.0  0.90834  0.51999  0.27589  1.0000
  H   H3406     1.0  0.86482  0.63526  0.26703  1.0000
  H   H3407     1.0  0.99472  0.59612  0.06415  1.0000
  H   H3408     1.0  0.81453  0.39020  0.24409  1.0000
  H   H3409     1.0  0.96313  0.49434  0.06236  1.0000
  C   C1905     1.0  0.97577  0.48569  0.32225  1.0000
  H   H3410     1.0  0.96744  0.52025  0.35767  1.0000
  S   S422      1.0  0.97879  0.58594  0.46249  1.0000
  C   C1906     1.0  0.93088  0.65675  0.40146  1.0000
  N   N109      1.0  0.95422  0.49480  0.33364  1.0000
  H   H3411     1.0  0.95359  0.52458  0.31035  1.0000
  H   H3412     1.0  0.82834  0.36352  0.24065  1.0000
  H   H3413     1.0  0.97962  0.60257  0.38124  1.0000
  H   H3414     1.0  0.82759  0.48472  0.44800  1.0000
  Fe  Fe206     1.0  0.89182  0.41693  0.00970  1.0000
  H   H3415     1.0  0.98562  0.51204  0.29595  1.0000
  H   H3416     1.0  0.92202  0.43689  0.33545  1.0000
  Fe  Fe207     1.0  0.95355  0.61347  0.46875  1.0000
  S   S423      1.0  0.93933  0.55676  0.21991  1.0000
  H   H3417     1.0  0.97902  0.42168  0.07648  1.0000
  C   C1907     1.0  0.83979  0.35995  0.47682  1.0000
  H   H3418     1.0  0.78387  0.34267  0.14260  1.0000
  C   C1908     1.0  0.95547  0.56412  0.07333  1.0000
  C   C1909     1.0  0.95013  0.45434  0.34595  1.0000
  H   H3419     1.0  0.94825  0.34297  0.21452  1.0000
  C   C1910     1.0  0.92381  0.59453  0.33624  1.0000
  C   C1911     1.0  0.80621  0.40355  0.13980  1.0000
  C   C1912     1.0  0.94438  0.47517  0.24810  1.0000
  S   S424      1.0  0.91994  0.60086  0.28040  1.0000
  H   H3420     1.0  0.91622  0.63332  0.07356  1.0000
  H   H3421     1.0  0.97457  0.55405  0.33125  1.0000
  H   H3422     1.0  0.78398  0.33938  0.17890  1.0000
  Fe  Fe208     1.0  0.95504  0.57356  0.43179  1.0000
  H   H3423     1.0  0.82659  0.33777  0.17684  1.0000
  H   H3424     1.0  0.97433  0.49733  0.42902  1.0000
  H   H3425     1.0  0.82508  0.36325  0.41795  1.0000
  C   C1913     1.0  0.95206  0.57045  0.10131  1.0000
  H   H3426     1.0  0.94784  0.40076  0.19169  1.0000
  H   H3427     1.0  0.95135  0.53182  0.16526  1.0000
  Fe  Fe209     1.0  0.91841  0.58460  0.23814  1.0000
  H   H3428     1.0  0.76321  0.39115  0.46453  1.0000
  C   C1914     1.0  0.80512  0.37866  0.14081  1.0000
  C   C1915     1.0  0.83800  0.48887  0.46578  1.0000
  H   H3429     1.0  0.80533  0.56967  0.00850  1.0000
  H   H3430     1.0  0.96948  0.44142  0.11926  1.0000
  C   C1916     1.0  0.95984  0.64017  0.36893  1.0000
  S   S425      1.0  0.94794  0.43584  0.27394  1.0000
  H   H3431     1.0  0.83338  0.33743  0.08652  1.0000
  C   C1917     1.0  0.93082  0.47351  0.47765  1.0000
  H   H3432     1.0  0.88770  0.65144  0.27054  1.0000
  H   H3433     1.0  0.79742  0.37343  0.12114  1.0000
  H   H3434     1.0  0.94138  0.42304  0.35855  1.0000
  S   S426      1.0  0.93051  0.60186  0.43661  1.0000
  H   H3435     1.0  0.85955  0.33291  0.27604  1.0000
  H   H3436     1.0  0.90621  0.49961  0.47272  1.0000
  C   C1918     1.0  0.95110  0.62942  0.06938  1.0000
  H   H3437     1.0  0.79012  0.41245  0.14277  1.0000
  C   C1919     1.0  0.88094  0.35749  0.47289  1.0000
  H   H3438     1.0  0.81755  0.42791  0.11280  1.0000
  C   C1920     1.0  0.88461  0.54263  0.00264  1.0000
  H   H3439     1.0  0.99166  0.63054  0.27601  1.0000
  H   H3440     1.0  0.92687  0.59062  0.38042  1.0000
  C   C1921     1.0  0.96537  0.49336  0.38575  1.0000
  H   H3441     1.0  0.90984  0.60615  0.33775  1.0000
  C   C1922     1.0  0.77860  0.39900  0.46280  1.0000
  Fe  Fe210     1.0  0.91728  0.58228  0.47066  1.0000
  H   H3442     1.0  0.79877  0.34288  0.33932  1.0000
  H   H3443     1.0  0.98342  0.51756  0.40642  1.0000
  H   H3444     1.0  0.87170  0.48441  0.47789  1.0000
  C   C1923     1.0  0.95188  0.57122  0.35890  1.0000
  H   H3445     1.0  0.94762  0.51349  0.04086  1.0000
  H   H3446     1.0  0.94219  0.56565  0.05864  1.0000
  H   H3447     1.0  0.83376  0.47930  0.48398  1.0000
  C   C1924     1.0  0.94593  0.41867  0.19212  1.0000
  H   H3448     1.0  0.97299  0.47564  0.30348  1.0000
  C   C1925     1.0  0.94961  0.49626  0.04710  1.0000
  H   H3449     1.0  0.92074  0.54423  0.28581  1.0000
  C   C1926     1.0  0.87478  0.64662  0.25624  1.0000
  H   H3450     1.0  0.97955  0.35346  0.24878  1.0000
  H   H3451     1.0  0.95814  0.63585  0.41404  1.0000
  H   H3452     1.0  0.95292  0.48264  0.39229  1.0000
  H   H3453     1.0  0.92651  0.48179  0.35220  1.0000
  C   C1927     1.0  0.95684  0.33143  0.19985  1.0000
  H   H3454     1.0  0.92050  0.53220  0.33563  1.0000
  C   C1928     1.0  0.99295  0.55313  0.08399  1.0000
  C   C1929     1.0  0.97185  0.62850  0.08772  1.0000
  C   C1930     1.0  0.80565  0.35331  0.32365  1.0000
  C   C1931     1.0  0.99081  0.65146  0.05664  1.0000
  H   H3455     1.0  0.79299  0.37578  0.43401  1.0000
  C   C1932     1.0  0.99092  0.39388  0.25303  1.0000
  H   H3456     1.0  0.79324  0.35704  0.30726  1.0000
  C   C1933     1.0  0.92046  0.52010  0.31857  1.0000
  H   H3457     1.0  0.88090  0.36169  0.45055  1.0000
  C   C1934     1.0  0.81904  0.33218  0.49652  1.0000
  H   H3458     1.0  0.84803  0.34438  0.42348  1.0000
  H   H3459     1.0  0.98069  0.48360  0.38095  1.0000
  C   C1935     1.0  0.86123  0.34530  0.47964  1.0000
  H   H3460     1.0  0.88264  0.63797  0.23822  1.0000
  S   S427      1.0  0.75977  0.33052  0.41637  1.0000
  C   C1936     1.0  0.75231  0.36858  0.17747  1.0000
  H   H3461     1.0  0.97660  0.40147  0.24172  1.0000
  H   H3462     1.0  0.91966  0.46342  0.48841  1.0000
  C   C1937     1.0  0.98568  0.62468  0.33343  1.0000
  H   H3463     1.0  0.84867  0.66054  0.23127  1.0000
  H   H3464     1.0  0.89604  0.34721  0.47750  1.0000
  C   C1938     1.0  0.82507  0.33418  0.39389  1.0000
  H   H3465     1.0  0.95041  0.64267  0.05408  1.0000
  H   H3466     1.0  0.99016  0.62146  0.40420  1.0000
  H   H3467     1.0  0.95906  0.33977  0.17993  1.0000
  H   H3468     1.0  0.84123  0.56254  0.48938  1.0000
  H   H3469     1.0  0.98549  0.38764  0.27312  1.0000
  H   H3470     1.0  0.97575  0.60778  0.28160  1.0000
  C   C1939     1.0  0.98689  0.35813  0.22889  1.0000
  H   H3471     1.0  0.80191  0.33401  0.43975  1.0000
  H   H3472     1.0  0.75666  0.36161  0.19798  1.0000
  C   C1940     1.0  0.81899  0.33610  0.44581  1.0000
  H   H3473     1.0  0.98335  0.60706  0.33307  1.0000
  H   H3474     1.0  0.86136  0.33097  0.46575  1.0000
  C   C1941     1.0  0.99081  0.61565  0.38243  1.0000
  Fe  Fe211     1.0  0.96068  0.56946  0.49544  1.0000
  H   H3475     1.0  0.79984  0.37158  0.49710  1.0000
  H   H3476     1.0  0.81554  0.65731  0.25383  1.0000
  C   C1942     1.0  0.85345  0.55051  0.49692  1.0000
  C   C1943     1.0  0.99639  0.61146  0.05302  1.0000
  C   C1944     1.0  0.93689  0.48498  0.99914  1.0000
  N   N110      1.0  0.99635  0.33816  0.21377  1.0000
  H   H3477     1.0  0.87339  0.45354  0.64440  1.0000
  S   S428      1.0  0.89002  0.58220  0.73611  1.0000
  S   S429      1.0  0.90625  0.57384  0.67221  1.0000
  Fe  Fe212     1.0  0.88843  0.60064  0.69638  1.0000
  S   S430      1.0  0.85548  0.61355  0.68012  1.0000
  Fe  Fe213     1.0  0.91008  0.55656  0.71277  1.0000
  S   S431      1.0  0.89994  0.52257  0.71325  1.0000
  C   C1945     1.0  0.80442  0.34511  0.92178  1.0000
  S   S432      1.0  0.89662  0.41898  0.78773  1.0000
  H   H3478     1.0  0.79934  0.39987  0.69922  1.0000
  Fe  Fe214     1.0  0.90162  0.39330  0.81999  1.0000
  S   S433      1.0  0.87731  0.39378  0.85485  1.0000
  Fe  Fe215     1.0  0.90120  0.39223  0.75632  1.0000
  S   S434      1.0  0.87775  0.39020  0.72021  1.0000
  C   C1946     1.0  0.93282  0.50677  0.74855  1.0000
  H   H3479     1.0  0.87066  0.53793  0.80229  1.0000
  Fe  Fe216     1.0  0.89263  0.42438  0.56969  1.0000
  S   S435      1.0  0.85845  0.43896  0.57365  1.0000
  S   S436      1.0  0.91580  0.41531  0.60462  1.0000
  H   H3480     1.0  0.94800  0.56796  0.79061  1.0000
  H   H3481     1.0  0.94562  0.44186  0.98958  1.0000
  H   H3482     1.0  0.79081  0.41459  0.63885  1.0000
  Fe  Fe217     1.0  0.86710  0.46163  0.54012  1.0000
  S   S437      1.0  0.85415  0.49670  0.54314  1.0000
  Fe  Fe218     1.0  0.85159  0.41629  0.53883  1.0000
  S   S438      1.0  0.82058  0.39974  0.53641  1.0000
  S   S439      1.0  0.90197  0.44911  0.53942  1.0000
  S   S440      1.0  0.88524  0.39993  0.53719  1.0000
  C   C1947     1.0  0.84723  0.53285  0.51187  1.0000
  H   H3483     1.0  0.79031  0.34312  0.68719  1.0000
  N   N111      1.0  0.93671  0.47425  0.65422  1.0000
  C   C1948     1.0  0.92602  0.63983  0.55810  1.0000
  C   C1949     1.0  0.85034  0.53275  0.65653  1.0000
  C   C1950     1.0  0.80723  0.38167  0.64398  1.0000
  C   C1951     1.0  0.89078  0.34365  0.63352  1.0000
  S   S441      1.0  0.91496  0.41041  0.97446  1.0000
  H   H3484     1.0  0.84465  0.33784  0.59560  1.0000
  C   C1952     1.0  0.90471  0.40743  0.63597  1.0000
  C   C1953     1.0  0.91875  0.40109  0.65779  1.0000
  C   C1954     1.0  0.91051  0.39613  0.68371  1.0000
  C   C1955     1.0  0.88817  0.39692  0.68785  1.0000
  C   C1956     1.0  0.87405  0.40243  0.66568  1.0000
  C   C1957     1.0  0.88233  0.40786  0.63980  1.0000
  H   H3485     1.0  0.93606  0.40013  0.65467  1.0000
  H   H3486     1.0  0.85674  0.40293  0.66866  1.0000
  H   H3487     1.0  0.87146  0.41262  0.62294  1.0000
  C   C1958     1.0  0.88770  0.39784  0.88830  1.0000
  C   C1959     1.0  0.87359  0.40479  0.90982  1.0000
  C   C1960     1.0  0.88177  0.40874  0.93649  1.0000
  C   C1961     1.0  0.90406  0.40564  0.94158  1.0000
  C   C1962     1.0  0.91809  0.39854  0.92016  1.0000
  C   C1963     1.0  0.90992  0.39455  0.89361  1.0000
  H   H3488     1.0  0.95826  0.49343  0.77579  1.0000
  H   H3489     1.0  0.90125  0.49906  0.97242  1.0000
  H   H3490     1.0  0.93531  0.39585  0.92414  1.0000
  H   H3491     1.0  0.92083  0.38882  0.87729  1.0000
  C   C1964     1.0  0.91392  0.50279  0.73399  1.0000
  C   C1965     1.0  0.90600  0.48239  0.73540  1.0000
  C   C1966     1.0  0.91689  0.46597  0.75117  1.0000
  H   H3492     1.0  0.80206  0.42249  0.94336  1.0000
  H   H3493     1.0  0.89139  0.47920  0.72419  1.0000
  H   H3494     1.0  0.91082  0.45022  0.75156  1.0000
  H   H3495     1.0  0.76139  0.38411  0.98550  1.0000
  H   H3496     1.0  0.98572  0.47959  0.96434  1.0000
  C   C1967     1.0  0.79722  0.36763  0.55487  1.0000
  C   C1968     1.0  0.81745  0.37613  0.55537  1.0000
  C   C1969     1.0  0.83461  0.36539  0.57015  1.0000
  H   H3497     1.0  0.83076  0.38671  0.74375  1.0000
  H   H3498     1.0  0.84120  0.64451  0.77467  1.0000
  H   H3499     1.0  0.78387  0.37580  0.54346  1.0000
  H   H3500     1.0  0.85030  0.37182  0.57057  1.0000
  H   H3501     1.0  0.87292  0.34315  0.63199  1.0000
  H   H3502     1.0  0.87411  0.47239  0.96395  1.0000
  H   H3503     1.0  0.83304  0.34756  0.67951  1.0000
  H   H3504     1.0  0.85905  0.35508  0.76851  1.0000
  C   C1970     1.0  0.84824  0.64149  0.67818  1.0000
  H   H3505     1.0  0.87617  0.33156  0.97799  1.0000
  H   H3506     1.0  0.90838  0.49797  0.93638  1.0000
  H   H3507     1.0  0.89747  0.57130  0.57759  1.0000
  S   S442      1.0  0.97613  0.55230  0.53260  1.0000
  C   C1971     1.0  0.95440  0.45228  0.97554  1.0000
  S   S443      1.0  0.95955  0.64473  0.97157  1.0000
  H   H3508     1.0  0.88590  0.52168  0.77663  1.0000
  C   C1972     1.0  0.86649  0.59242  0.61250  1.0000
  S   S444      1.0  0.90305  0.36657  0.78866  1.0000
  C   C1973     1.0  0.85526  0.35902  0.96197  1.0000
  C   C1974     1.0  0.94556  0.57470  0.81123  1.0000
  H   H3509     1.0  0.92469  0.62022  0.84410  1.0000
  C   C1975     1.0  0.98005  0.48795  0.84621  1.0000
  H   H3510     1.0  0.97294  0.53842  0.65723  1.0000
  H   H3511     1.0  0.92576  0.50535  0.67140  1.0000
  H   H3512     1.0  0.75855  0.35855  0.69477  1.0000
  C   C1976     1.0  0.96423  0.58003  0.62048  1.0000
  H   H3513     1.0  0.85818  0.36775  0.98180  1.0000
  C   C1977     1.0  0.77248  0.38202  0.66716  1.0000
  H   H3514     1.0  0.96212  0.54732  0.83179  1.0000
  Fe  Fe219     1.0  0.93285  0.41823  0.78744  1.0000
  H   H3515     1.0  0.86356  0.47584  0.62286  1.0000
  H   H3516     1.0  0.78920  0.36572  0.72723  1.0000
  H   H3517     1.0  0.85150  0.54098  0.60237  1.0000
  H   H3518     1.0  0.89786  0.49248  0.62836  1.0000
  H   H3519     1.0  0.90199  0.46550  0.61380  1.0000
  H   H3520     1.0  0.93267  0.43813  0.69398  1.0000
  H   H3521     1.0  0.94204  0.44778  0.62506  1.0000
  S   S445      1.0  0.94889  0.44965  0.78689  1.0000
  S   S446      1.0  0.96282  0.59365  0.65285  1.0000
  C   C1978     1.0  0.94791  0.58336  0.60024  1.0000
  H   H3522     1.0  0.87994  0.54429  0.64277  1.0000
  C   C1979     1.0  0.95705  0.33853  0.71115  1.0000
  H   H3523     1.0  0.86942  0.49561  0.94197  1.0000
  C   C1980     1.0  0.96161  0.65253  0.87358  1.0000
  Fe  Fe220     1.0  0.95156  0.60963  0.97076  1.0000
  C   C1981     1.0  0.91558  0.53161  0.57488  1.0000
  C   C1982     1.0  0.82360  0.58828  0.53944  1.0000
  C   C1983     1.0  0.85351  0.55621  0.61414  1.0000
  H   H3524     1.0  0.86931  0.48044  0.65910  1.0000
  H   H3525     1.0  0.89499  0.60543  0.59388  1.0000
  H   H3526     1.0  0.80337  0.39814  0.75013  1.0000
  H   H3527     1.0  0.97103  0.49958  0.64486  1.0000
  C   C1984     1.0  0.81929  0.41218  0.61460  1.0000
  H   H3528     1.0  0.89916  0.56367  0.61273  1.0000
  H   H3529     1.0  0.96624  0.46945  0.67860  1.0000
  H   H3530     1.0  0.89134  0.35101  0.68883  1.0000
  C   C1985     1.0  0.99278  0.66008  0.56212  1.0000
  C   C1986     1.0  0.98989  0.61680  0.84218  1.0000
  S   S447      1.0  0.92708  0.61171  0.78591  1.0000
  H   H3531     1.0  0.97176  0.45793  0.58005  1.0000
  H   H3532     1.0  0.77871  0.34161  0.56689  1.0000
  H   H3533     1.0  0.97437  0.52025  0.92953  1.0000
  H   H3534     1.0  0.97024  0.44825  0.93469  1.0000
  H   H3535     1.0  0.98374  0.60176  0.78891  1.0000
  C   C1987     1.0  0.94890  0.46615  0.67991  1.0000
  C   C1988     1.0  0.91377  0.46790  0.65655  1.0000
  H   H3536     1.0  0.89794  0.33910  0.61302  1.0000
  H   H3537     1.0  0.96246  0.33193  0.69064  1.0000
  H   H3538     1.0  0.87000  0.61374  0.57645  1.0000
  H   H3539     1.0  0.88882  0.65152  0.76284  1.0000
  C   C1989     1.0  0.95711  0.53199  0.65253  1.0000
  H   H3540     1.0  0.77045  0.39989  0.66654  1.0000
  H   H3541     1.0  0.91803  0.32948  0.65633  1.0000
  H   H3542     1.0  0.85639  0.40738  0.90573  1.0000
  H   H3543     1.0  0.83027  0.53155  0.51621  1.0000
  H   H3544     1.0  0.79619  0.41161  0.97675  1.0000
  H   H3545     1.0  0.89454  0.36042  0.63847  1.0000
  H   H3546     1.0  0.87828  0.62662  0.77269  1.0000
  H   H3547     1.0  0.83554  0.40324  0.61349  1.0000
  C   C1990     1.0  0.96658  0.63269  0.55167  1.0000
  H   H3548     1.0  0.91352  0.45007  0.65724  1.0000
  H   H3549     1.0  0.90664  0.47416  0.67650  1.0000
  C   C1991     1.0  0.96056  0.43899  0.94888  1.0000
  H   H3550     1.0  0.78506  0.40040  0.94543  1.0000
  C   C1992     1.0  0.82821  0.34263  0.93266  1.0000
  C   C1993     1.0  0.89783  0.47507  0.63286  1.0000
  C   C1994     1.0  0.93534  0.59548  0.81456  1.0000
  C   C1995     1.0  0.93257  0.60415  0.84137  1.0000
  H   H3551     1.0  0.92871  0.50562  0.63530  1.0000
  C   C1996     1.0  0.95346  0.56298  0.83459  1.0000
  H   H3552     1.0  0.87092  0.41426  0.95300  1.0000
  H   H3553     1.0  0.83786  0.35037  0.91666  1.0000
  C   C1997     1.0  0.82149  0.33879  0.66699  1.0000
  H   H3554     1.0  0.91166  0.45731  0.97323  1.0000
  H   H3555     1.0  0.89474  0.35892  0.93254  1.0000
  H   H3556     1.0  0.78887  0.34371  0.65069  1.0000
  C   C1998     1.0  0.83139  0.34618  0.58430  1.0000
  S   S448      1.0  0.92737  0.59714  0.94066  1.0000
  S   S449      1.0  0.93782  0.39424  0.82229  1.0000
  H   H3557     1.0  0.91414  0.44196  0.88588  1.0000
  C   C1999     1.0  0.87462  0.47095  0.64037  1.0000
  H   H3558     1.0  0.92153  0.39144  0.70033  1.0000
  H   H3559     1.0  0.93317  0.59311  0.60525  1.0000
  H   H3560     1.0  0.83677  0.56355  0.61765  1.0000
  S   S450      1.0  0.95655  0.33549  0.78738  1.0000
  N   N112      1.0  0.86627  0.57112  0.59741  1.0000
  S   S451      1.0  0.93733  0.39315  0.75359  1.0000
  H   H3561     1.0  0.95242  0.47252  0.55750  1.0000
  H   H3562     1.0  0.90910  0.42909  0.85313  1.0000
  H   H3563     1.0  0.88824  0.44716  0.86832  1.0000
  S   S452      1.0  0.94203  0.56947  0.72308  1.0000
  C   C2000     1.0  0.75735  0.37608  0.69080  1.0000
  C   C2001     1.0  0.90304  0.48837  0.95398  1.0000
  C   C2002     1.0  0.86273  0.51690  0.52131  1.0000
  H   H3564     1.0  0.86640  0.58147  0.55441  1.0000
  H   H3565     1.0  0.98823  0.60991  0.58920  1.0000
  H   H3566     1.0  0.93861  0.57761  0.55761  1.0000
  H   H3567     1.0  0.85722  0.52887  0.67743  1.0000
  H   H3568     1.0  0.96273  0.44358  0.72737  1.0000
  C   C2003     1.0  0.89243  0.53788  0.58450  1.0000
  H   H3569     1.0  0.80972  0.40823  0.59599  1.0000
  H   H3570     1.0  0.88933  0.55003  0.77994  1.0000
  H   H3571     1.0  0.82142  0.58000  0.58219  1.0000
  H   H3572     1.0  0.89679  0.50682  0.52358  1.0000
  C   C2004     1.0  0.96566  0.43434  0.70776  1.0000
  C   C2005     1.0  0.87595  0.63135  0.61375  1.0000
  C   C2006     1.0  0.98623  0.65115  0.96379  1.0000
  H   H3573     1.0  0.99742  0.65779  0.84132  1.0000
  H   H3574     1.0  0.82239  0.38791  0.92978  1.0000
  Fe  Fe221     1.0  0.91708  0.57688  0.97585  1.0000
  C   C2007     1.0  0.82705  0.64872  0.67018  1.0000
  H   H3575     1.0  0.81550  0.63711  0.66527  1.0000
  C   C2008     1.0  0.87426  0.64224  0.76207  1.0000
  C   C2009     1.0  0.88981  0.33365  0.68430  1.0000
  C   C2010     1.0  0.81951  0.39157  0.95208  1.0000
  H   H3576     1.0  0.95483  0.49128  0.60253  1.0000
  H   H3577     1.0  0.94178  0.50354  0.94923  1.0000
  C   C2011     1.0  0.88073  0.48122  0.94641  1.0000
  H   H3578     1.0  0.98077  0.60325  0.84925  1.0000
  C   C2012     1.0  0.81715  0.37076  0.96896  1.0000
  H   H3579     1.0  0.94520  0.44845  0.57445  1.0000
  H   H3580     1.0  0.85960  0.65640  0.79859  1.0000
  H   H3581     1.0  0.80836  0.59903  0.53935  1.0000
  H   H3582     1.0  0.97039  0.62132  0.89081  1.0000
  H   H3583     1.0  0.96401  0.50586  0.68041  1.0000
  H   H3584     1.0  0.78507  0.33488  0.88711  1.0000
  H   H3585     1.0  0.95206  0.48068  0.93025  1.0000
  H   H3586     1.0  0.81945  0.37506  0.99115  1.0000
  H   H3587     1.0  0.98475  0.64189  0.90563  1.0000
  H   H3588     1.0  0.82708  0.33881  0.64517  1.0000
  H   H3589     1.0  0.96402  0.61523  0.55269  1.0000
  H   H3590     1.0  0.93577  0.64296  0.90023  1.0000
  H   H3591     1.0  0.97815  0.40878  0.93669  1.0000
  H   H3592     1.0  0.97864  0.47402  0.83187  1.0000
  H   H3593     1.0  0.96503  0.40795  0.96981  1.0000
  H   H3594     1.0  0.78841  0.64237  0.74597  1.0000
  H   H3595     1.0  0.80006  0.36678  0.96758  1.0000
  H   H3596     1.0  0.82457  0.37540  0.64370  1.0000
  H   H3597     1.0  0.79985  0.37510  0.62481  1.0000
  N   N113      1.0  0.91783  0.50401  0.85177  1.0000
  C   C2013     1.0  0.91128  0.48415  0.86620  1.0000
  C   C2014     1.0  0.91752  0.52224  0.87263  1.0000
  C   C2015     1.0  0.90218  0.50924  0.82817  1.0000
  C   C2016     1.0  0.94031  0.50031  0.84001  1.0000
  C   C2017     1.0  0.95862  0.49366  0.86111  1.0000
  C   C2018     1.0  0.91489  0.46267  0.84963  1.0000
  C   C2019     1.0  0.90481  0.53066  0.81270  1.0000
  C   C2020     1.0  0.89493  0.53046  0.88399  1.0000
  C   C2021     1.0  0.89693  0.54826  0.90571  1.0000
  H   H3598     1.0  0.88169  0.47058  0.92773  1.0000
  C   C2022     1.0  0.90602  0.44420  0.86536  1.0000
  C   C2023     1.0  0.88651  0.53527  0.79165  1.0000
  H   H3599     1.0  0.89376  0.48614  0.87147  1.0000
  H   H3600     1.0  0.91986  0.48188  0.88646  1.0000
  H   H3601     1.0  0.92777  0.51741  0.89096  1.0000
  H   H3602     1.0  0.92507  0.53622  0.86383  1.0000
  H   H3603     1.0  0.88514  0.50942  0.83543  1.0000
  H   H3604     1.0  0.90380  0.49632  0.81199  1.0000
  H   H3605     1.0  0.94069  0.48805  0.82308  1.0000
  H   H3606     1.0  0.94506  0.51516  0.82992  1.0000
  H   H3607     1.0  0.95497  0.47944  0.87336  1.0000
  H   H3608     1.0  0.96108  0.50721  0.87561  1.0000
  H   H3609     1.0  0.90668  0.46372  0.82911  1.0000
  H   H3610     1.0  0.93239  0.45819  0.84625  1.0000
  H   H3611     1.0  0.92029  0.52969  0.80115  1.0000
  H   H3612     1.0  0.90452  0.54472  0.82701  1.0000
  H   H3613     1.0  0.88421  0.53728  0.86716  1.0000
  H   H3614     1.0  0.88695  0.51727  0.89401  1.0000
  H   H3615     1.0  0.88060  0.55433  0.91315  1.0000
  H   H3616     1.0  0.90655  0.54195  0.92384  1.0000
  H   H3617     1.0  0.90484  0.56199  0.89673  1.0000
  C   C2024     1.0  0.98479  0.50559  0.93548  1.0000
  H   H3618     1.0  0.89229  0.34660  0.73677  1.0000
  H   H3619     1.0  0.85186  0.51783  0.64363  1.0000
  H   H3620     1.0  0.76566  0.37623  0.64719  1.0000
  C   C2025     1.0  0.89547  0.35054  0.95283  1.0000
  C   C2026     1.0  0.95115  0.57487  0.57314  1.0000
  H   H3621     1.0  0.81973  0.57198  0.53247  1.0000
  C   C2027     1.0  0.87754  0.61030  0.59702  1.0000
  C   C2028     1.0  0.83322  0.58724  0.56870  1.0000
  C   C2029     1.0  0.97419  0.41811  0.95601  1.0000
  N   N114      1.0  0.94114  0.47357  0.97147  1.0000
  H   H3622     1.0  0.83294  0.53832  0.65888  1.0000
  H   H3623     1.0  0.79693  0.33877  0.99421  1.0000
  H   H3624     1.0  0.84979  0.59872  0.61847  1.0000
  H   H3625     1.0  0.91729  0.51427  0.56900  1.0000
  C   C2030     1.0  0.85562  0.57393  0.56923  1.0000
  Fe  Fe222     1.0  0.93631  0.58908  0.68403  1.0000
  S   S453      1.0  0.94121  0.54907  0.96681  1.0000
  H   H3626     1.0  0.85312  0.55793  0.55985  1.0000
  H   H3627     1.0  0.83458  0.60410  0.57573  1.0000
  H   H3628     1.0  0.86084  0.56466  0.65735  1.0000
  H   H3629     1.0  0.96994  0.45451  0.98624  1.0000
  Fe  Fe223     1.0  0.89169  0.42585  0.50692  1.0000
  H   H3630     1.0  0.79950  0.36223  0.91698  1.0000
  S   S454      1.0  0.91837  0.61744  0.70560  1.0000
  Fe  Fe224     1.0  0.92158  0.59657  0.74376  1.0000
  C   C2031     1.0  0.93557  0.46993  0.76611  1.0000
  C   C2032     1.0  0.87400  0.34103  0.95858  1.0000
  H   H3631     1.0  0.93909  0.52245  0.74745  1.0000
  C   C2033     1.0  0.86263  0.55033  0.64340  1.0000
  C   C2034     1.0  0.97062  0.56280  0.56635  1.0000
  C   C2035     1.0  0.94831  0.64454  0.56926  1.0000
  H   H3632     1.0  0.82131  0.42975  0.61439  1.0000
  C   C2036     1.0  0.80567  0.37011  0.72242  1.0000
  H   H3633     1.0  0.92145  0.46018  0.93904  1.0000
  C   C2037     1.0  0.94363  0.49033  0.76458  1.0000
  Fe  Fe225     1.0  0.95290  0.57007  0.93338  1.0000
  Fe  Fe226     1.0  0.93904  0.36907  0.78823  1.0000
  S   S455      1.0  0.97758  0.58337  0.96161  1.0000
  H   H3634     1.0  0.88897  0.52716  0.60189  1.0000
  C   C2038     1.0  0.98348  0.56782  0.61358  1.0000
  C   C2039     1.0  0.93993  0.59222  0.86469  1.0000
  H   H3635     1.0  0.87525  0.59023  0.63254  1.0000
  H   H3636     1.0  0.93780  0.59924  0.88506  1.0000
  C   C2040     1.0  0.94552  0.47679  0.60138  1.0000
  C   C2041     1.0  0.88940  0.56191  0.59349  1.0000
  C   C2042     1.0  0.95057  0.57165  0.86144  1.0000
  H   H3637     1.0  0.99301  0.48348  0.86164  1.0000
  H   H3638     1.0  0.88128  0.53460  0.56738  1.0000
  H   H3639     1.0  0.98368  0.63567  0.60451  1.0000
  H   H3640     1.0  0.96466  0.41696  0.71213  1.0000
  H   H3641     1.0  0.85724  0.37086  0.94518  1.0000
  C   C2043     1.0  0.93628  0.49855  0.65440  1.0000
  C   C2044     1.0  0.80737  0.40653  0.64079  1.0000
  H   H3642     1.0  0.97375  0.50522  0.97736  1.0000
  H   H3643     1.0  0.92738  0.53444  0.59169  1.0000
  H   H3644     1.0  0.83508  0.59476  0.52465  1.0000
  H   H3645     1.0  0.94248  0.47502  0.69869  1.0000
  H   H3646     1.0  0.92415  0.64476  0.53604  1.0000
  C   C2045     1.0  0.95855  0.50787  0.65850  1.0000
  H   H3647     1.0  0.92376  0.62235  0.55978  1.0000
  H   H3648     1.0  0.96364  0.35445  0.71433  1.0000
  S   S456      1.0  0.85733  0.44011  0.50541  1.0000
  C   C2046     1.0  0.91951  0.46861  0.95936  1.0000
  C   C2047     1.0  0.98649  0.55897  0.58692  1.0000
  H   H3649     1.0  0.81620  0.35484  0.72103  1.0000
  C   C2048     1.0  0.88467  0.51886  0.51584  1.0000
  H   H3650     1.0  0.95307  0.53504  0.63037  1.0000
  C   C2049     1.0  0.95430  0.46302  0.57691  1.0000
  C   C2050     1.0  0.93232  0.34128  0.71230  1.0000
  C   C2051     1.0  0.94781  0.46401  0.62895  1.0000
  S   S457      1.0  0.96068  0.55657  0.89041  1.0000
  H   H3651     1.0  0.91942  0.54110  0.55639  1.0000
  H   H3652     1.0  0.94464  0.54075  0.66578  1.0000
  N   N115      1.0  0.98944  0.63634  0.56030  1.0000
  C   C2052     1.0  0.79414  0.34838  0.56860  1.0000
  H   H3653     1.0  0.87020  0.63871  0.74010  1.0000
  H   H3654     1.0  0.98477  0.50196  0.83419  1.0000
  H   H3655     1.0  0.97799  0.62719  0.82982  1.0000
  C   C2053     1.0  0.79941  0.40744  0.95461  1.0000
  H   H3656     1.0  0.86306  0.33948  0.50135  1.0000
  H   H3657     1.0  0.92852  0.48232  0.59659  1.0000
  H   H3658     1.0  0.82038  0.65975  0.72885  1.0000
  C   C2054     1.0  0.94873  0.44170  0.68587  1.0000
  H   H3659     1.0  0.81324  0.37320  0.76627  1.0000
  H   H3660     1.0  0.95229  0.43201  0.66682  1.0000
  H   H3661     1.0  0.83355  0.39981  0.96019  1.0000
  H   H3662     1.0  0.96556  0.46092  0.63268  1.0000
  C   C2055     1.0  0.81376  0.38288  0.74707  1.0000
  S   S458      1.0  0.93682  0.59766  0.50348  1.0000
  H   H3663     1.0  0.92772  0.34962  0.73208  1.0000
  N   N116      1.0  0.83259  0.35164  0.96128  1.0000
  S   S459      1.0  0.88373  0.56575  0.98164  1.0000
  H   H3664     1.0  0.82409  0.38481  0.69148  1.0000
  C   C2056     1.0  0.79805  0.34969  0.66882  1.0000
  H   H3665     1.0  0.92678  0.35187  0.69488  1.0000
  C   C2057     1.0  0.97905  0.63564  0.88539  1.0000
  H   H3666     1.0  0.75401  0.35680  0.98663  1.0000
  C   C2058     1.0  0.97466  0.49396  0.95932  1.0000
  H   H3667     1.0  0.85873  0.63696  0.61767  1.0000
  H   H3668     1.0  0.96371  0.63705  0.52956  1.0000
  C   C2059     1.0  0.81107  0.33770  0.58368  1.0000
  C   C2060     1.0  0.95167  0.48791  0.95146  1.0000
  H   H3669     1.0  0.94606  0.43424  0.93758  1.0000
  H   H3670     1.0  0.78428  0.65256  0.71131  1.0000
  C   C2061     1.0  0.80654  0.38314  0.69509  1.0000
  H   H3671     1.0  0.88347  0.64407  0.60214  1.0000
  H   H3672     1.0  0.81558  0.41368  0.65877  1.0000
  N   N117      1.0  0.79614  0.37403  0.66954  1.0000
  H   H3673     1.0  0.88459  0.62904  0.63394  1.0000
  H   H3674     1.0  0.99624  0.56530  0.62895  1.0000
  C   C2062     1.0  0.85505  0.65462  0.77643  1.0000
  H   H3675     1.0  0.99292  0.36115  0.77509  1.0000
  H   H3676     1.0  0.98224  0.43659  0.70033  1.0000
  C   C2063     1.0  0.85560  0.33797  0.76539  1.0000
  H   H3677     1.0  0.85554  0.34096  0.72129  1.0000
  H   H3678     1.0  0.98715  0.49474  0.91714  1.0000
  C   C2064     1.0  0.98495  0.32936  0.78634  1.0000
  H   H3679     1.0  0.98920  0.59674  0.52755  1.0000
  H   H3680     1.0  0.82148  0.34027  0.51687  1.0000
  H   H3681     1.0  0.99249  0.57848  0.80972  1.0000
  C   C2065     1.0  0.89100  0.53721  0.50195  1.0000
  H   H3682     1.0  0.87957  0.65113  0.69018  1.0000
  H   H3683     1.0  0.76119  0.38487  0.71010  1.0000
  C   C2066     1.0  0.86314  0.65656  0.68432  1.0000
  H   H3684     1.0  0.89928  0.36214  0.96948  1.0000
  H   H3685     1.0  0.85872  0.52850  0.98083  1.0000
  C   C2067     1.0  0.80195  0.33211  0.89505  1.0000
  H   H3686     1.0  0.83783  0.33699  0.76688  1.0000
  H   H3687     1.0  0.98956  0.42166  0.96641  1.0000
  H   H3688     1.0  0.90878  0.33744  0.95199  1.0000
  H   H3689     1.0  0.95401  0.64638  0.85453  1.0000
  C   C2068     1.0  0.88848  0.32953  0.73466  1.0000
  C   C2069     1.0  0.83160  0.33454  0.98321  1.0000
  C   C2070     1.0  0.94357  0.65777  0.89466  1.0000
  C   C2071     1.0  0.86346  0.32988  0.73690  1.0000
  H   H3690     1.0  0.87213  0.33246  0.68142  1.0000
  H   H3691     1.0  0.79273  0.33977  0.93697  1.0000
  C   C2072     1.0  0.78634  0.65730  0.73340  1.0000
  H   H3692     1.0  0.93345  0.50268  0.99604  1.0000
  H   H3693     1.0  0.94935  0.63914  0.59114  1.0000
  H   H3694     1.0  0.91324  0.64904  0.57038  1.0000
  H   H3695     1.0  0.87073  0.32990  0.94121  1.0000
  H   H3696     1.0  0.81313  0.33710  0.87884  1.0000
  H   H3697     1.0  0.78468  0.33125  0.50737  1.0000
  H   H3698     1.0  0.90798  0.53914  0.49908  1.0000
  H   H3699     1.0  0.99230  0.59364  0.90207  1.0000
  C   C2073     1.0  0.99365  0.62651  0.58855  1.0000
  Fe  Fe227     1.0  0.96248  0.56581  0.99614  1.0000
  C   C2074     1.0  0.90029  0.32814  0.65574  1.0000
  C   C2075     1.0  0.87000  0.52685  0.99806  1.0000
  H   H3700     1.0  0.82685  0.68627  0.02817  1.0000
  H   H3701     1.0  0.92765  0.66218  0.42318  1.0000
  C   C2076     1.0  0.76639  0.78502  0.31000  1.0000
  Fe  Fe228     1.0  0.80946  0.72545  0.16541  1.0000
  S   S460      1.0  0.81158  0.76133  0.16707  1.0000
  H   H3702     1.0  0.93729  0.98371  0.49216  1.0000
  Fe  Fe229     1.0  0.78090  0.76206  0.19142  1.0000
  H   H3703     1.0  0.77185  0.74736  0.07901  1.0000
  Fe  Fe230     1.0  0.79060  0.76231  0.12898  1.0000
  S   S461      1.0  0.79545  0.78428  0.09275  1.0000
  S   S462      1.0  0.77995  0.72604  0.19251  1.0000
  S   S463      1.0  0.79077  0.72631  0.12547  1.0000
  H   H3704     1.0  0.85405  0.73903  0.12810  1.0000
  C   C2077     1.0  0.76873  0.79179  0.28252  1.0000
  S   S464      1.0  0.76099  0.75196  0.48305  1.0000
  C   C2078     1.0  0.84609  0.72664  0.08739  1.0000
  H   H3705     1.0  0.88002  0.67852  0.17949  1.0000
  H   H3706     1.0  0.97875  0.96846  0.17125  1.0000
  Fe  Fe231     1.0  0.76961  0.81675  0.42001  1.0000
  S   S465      1.0  0.78578  0.84834  0.42131  1.0000
  C   C2079     1.0  0.82384  0.72666  0.33512  1.0000
  S   S466      1.0  0.78404  0.78224  0.41835  1.0000
  H   H3707     1.0  0.78592  0.92345  0.02561  1.0000
  H   H3708     1.0  0.97906  0.68948  0.46259  1.0000
  H   H3709     1.0  0.77759  0.74288  0.25075  1.0000
  C   C2080     1.0  0.96570  0.90190  0.07040  1.0000
  Fe  Fe232     1.0  0.75878  0.77753  0.38546  1.0000
  S   S467      1.0  0.87508  0.96690  0.41320  1.0000
  H   H3710     1.0  0.75790  0.80963  0.12649  1.0000
  H   H3711     1.0  0.93267  0.89407  0.10759  1.0000
  S   S468      1.0  0.94420  0.94438  0.02303  1.0000
  H   H3712     1.0  0.81476  0.69387  0.29964  1.0000
  C   C2081     1.0  0.84651  0.71493  0.24960  1.0000
  H   H3713     1.0  0.84131  0.66750  0.28377  1.0000
  H   H3714     1.0  0.99363  0.67082  0.32951  1.0000
  Fe  Fe233     1.0  0.88196  0.94939  0.45407  1.0000
  S   S469      1.0  0.84204  0.95771  0.05548  1.0000
  H   H3715     1.0  0.89776  0.84962  0.39573  1.0000
  S   S470      1.0  0.90501  0.91959  0.45662  1.0000
  H   H3716     1.0  0.77836  0.68585  0.07572  1.0000
  Fe  Fe234     1.0  0.94895  0.93573  0.20935  1.0000
  S   S471      1.0  0.92303  0.91617  0.22541  1.0000
  S   S472      1.0  0.98247  0.92264  0.19523  1.0000
  Fe  Fe235     1.0  0.91836  0.94155  0.25889  1.0000
  S   S473      1.0  0.91917  0.92824  0.30265  1.0000
  Fe  Fe236     1.0  0.90012  0.93791  0.19978  1.0000
  S   S474      1.0  0.87295  0.92489  0.17485  1.0000
  S   S475      1.0  0.94590  0.95987  0.24433  1.0000
  S   S476      1.0  0.92633  0.95564  0.18111  1.0000
  C   C2082     1.0  0.85157  0.94888  0.08842  1.0000
  C   C2083     1.0  0.87378  0.94572  0.09478  1.0000
  C   C2084     1.0  0.88067  0.93912  0.12159  1.0000
  C   C2085     1.0  0.86538  0.93521  0.14187  1.0000
  C   C2086     1.0  0.84330  0.93817  0.13527  1.0000
  C   C2087     1.0  0.83644  0.94535  0.10891  1.0000
  S   S477      1.0  0.85632  0.93637  0.48084  1.0000
  C   C2088     1.0  0.88809  0.95703  0.38242  1.0000
  C   C2089     1.0  0.90326  0.93913  0.38301  1.0000
  C   C2090     1.0  0.91285  0.93092  0.35842  1.0000
  C   C2091     1.0  0.90758  0.94059  0.33283  1.0000
  C   C2092     1.0  0.89273  0.95884  0.33208  1.0000
  H   H3717     1.0  0.90751  0.93135  0.40232  1.0000
  H   H3718     1.0  0.92432  0.91682  0.35921  1.0000
  H   H3719     1.0  0.93756  0.94652  0.42829  1.0000
  C   C2093     1.0  0.98329  0.78442  0.25479  1.0000
  H   H3720     1.0  0.84638  0.72977  0.30236  1.0000
  C   C2094     1.0  0.98907  0.89447  0.19542  1.0000
  C   C2095     1.0  0.97318  0.88022  0.19989  1.0000
  C   C2096     1.0  0.97838  0.85788  0.19813  1.0000
  C   C2097     1.0  0.96669  0.89345  0.12144  1.0000
  H   H3721     1.0  0.96651  0.87563  0.12369  1.0000
  H   H3722     1.0  0.95681  0.88633  0.20452  1.0000
  H   H3723     1.0  0.96590  0.84700  0.20139  1.0000
  H   H3724     1.0  0.80738  0.77296  0.49146  1.0000
  H   H3725     1.0  0.83140  0.93502  0.15073  1.0000
  H   H3726     1.0  0.87336  0.90171  0.27711  1.0000
  H   H3727     1.0  0.81271  0.74040  0.32775  1.0000
  H   H3728     1.0  0.99375  0.99470  0.05947  1.0000
  H   H3729     1.0  0.89624  0.85495  0.43251  1.0000
  C   C2098     1.0  0.88296  0.96697  0.35684  1.0000
  H   H3730     1.0  0.86883  0.92702  0.29536  1.0000
  H   H3731     1.0  0.80252  0.93061  0.05456  1.0000
  S   S478      1.0  0.89278  0.96157  0.23478  1.0000
  C   C2099     1.0  0.80860  0.85449  0.44124  1.0000
  C   C2100     1.0  0.81267  0.87625  0.44461  1.0000
  C   C2101     1.0  0.83125  0.88200  0.45884  1.0000
  C   C2102     1.0  0.84626  0.86603  0.46925  1.0000
  C   C2103     1.0  0.84203  0.84425  0.46639  1.0000
  C   C2104     1.0  0.82319  0.83848  0.45256  1.0000
  H   H3732     1.0  0.80140  0.88872  0.43603  1.0000
  H   H3733     1.0  0.83408  0.89879  0.46141  1.0000
  H   H3734     1.0  0.79722  0.66814  0.05608  1.0000
  H   H3735     1.0  0.82025  0.82167  0.44999  1.0000
  H   H3736     1.0  0.90963  0.87290  0.41049  1.0000
  H   H3737     1.0  0.98924  0.86520  0.08794  1.0000
  H   H3738     1.0  0.83248  0.75474  0.11051  1.0000
  H   H3739     1.0  0.79545  0.67542  0.27066  1.0000
  C   C2105     1.0  0.76807  0.76302  0.31606  1.0000
  C   C2106     1.0  0.77211  0.74786  0.29461  1.0000
  C   C2107     1.0  0.77456  0.75463  0.26716  1.0000
  H   H3740     1.0  0.76738  0.80885  0.27787  1.0000
  C   C2108     1.0  0.97230  0.89257  0.27700  1.0000
  H   H3741     1.0  0.85435  0.74590  0.20991  1.0000
  C   C2109     1.0  0.77631  0.78110  0.01238  1.0000
  C   C2110     1.0  0.78389  0.77571  0.06157  1.0000
  C   C2111     1.0  0.78505  0.78807  0.03754  1.0000
  C   C2112     1.0  0.97678  0.94028  0.10668  1.0000
  C   C2113     1.0  0.77357  0.75659  0.06046  1.0000
  C   C2114     1.0  0.84950  0.67906  0.27076  1.0000
  Fe  Fe237     1.0  0.91079  0.93933  0.00639  1.0000
  H   H3742     1.0  0.79255  0.80313  0.03844  1.0000
  C   C2115     1.0  0.83738  0.73490  0.05879  1.0000
  N   N118      1.0  0.83395  0.69809  0.26305  1.0000
  H   H3743     1.0  0.84350  0.85622  0.02768  1.0000
  H   H3744     1.0  0.89414  0.68017  0.01393  1.0000
  Fe  Fe238     1.0  0.76122  0.73053  0.15241  1.0000
  H   H3745     1.0  0.88561  0.94875  0.07921  1.0000
  H   H3746     1.0  0.89776  0.93665  0.12639  1.0000
  H   H3747     1.0  0.90487  0.98998  0.08815  1.0000
  C   C2116     1.0  0.97755  0.99315  0.05160  1.0000
  H   H3748     1.0  0.97525  0.90821  0.05318  1.0000
  C   C2117     1.0  0.79563  0.68266  0.06972  1.0000
  H   H3749     1.0  0.84732  0.74818  0.05267  1.0000
  H   H3750     1.0  0.82195  0.81823  0.01190  1.0000
  H   H3751     1.0  0.96761  0.93930  0.12625  1.0000
  H   H3752     1.0  0.86023  0.75627  0.09988  1.0000
  H   H3753     1.0  0.98282  0.82999  0.32058  1.0000
  H   H3754     1.0  0.86167  0.75585  0.24389  1.0000
  H   H3755     1.0  0.97410  0.67923  0.35610  1.0000
  H   H3756     1.0  0.87129  0.67672  0.23477  1.0000
  N   N119      1.0  0.83353  0.86892  0.06772  1.0000
  C   C2118     1.0  0.85666  0.86720  0.07810  1.0000
  C   C2119     1.0  0.83175  0.85297  0.04417  1.0000
  C   C2120     1.0  0.82880  0.89131  0.05589  1.0000
  C   C2121     1.0  0.81731  0.86549  0.09022  1.0000
  C   C2122     1.0  0.82457  0.84932  0.11361  1.0000
  C   C2123     1.0  0.86237  0.88483  0.09925  1.0000
  C   C2124     1.0  0.77279  0.77664  0.26104  1.0000
  C   C2125     1.0  0.83522  0.82873  0.05145  1.0000
  H   H3757     1.0  0.95217  0.91452  0.07339  1.0000
  C   C2126     1.0  0.80522  0.84344  0.13066  1.0000
  C   C2127     1.0  0.88315  0.87800  0.11523  1.0000
  H   H3758     1.0  0.80789  0.73318  0.01773  1.0000
  H   H3759     1.0  0.80935  0.71914  0.28358  1.0000
  H   H3760     1.0  0.86111  0.85125  0.08752  1.0000
  H   H3761     1.0  0.85497  0.68356  0.00101  1.0000
  H   H3762     1.0  0.85354  0.83179  0.47450  1.0000
  H   H3763     1.0  0.81459  0.92491  0.02096  1.0000
  H   H3764     1.0  0.83044  0.90380  0.07228  1.0000
  H   H3765     1.0  0.81235  0.88102  0.10105  1.0000
  H   H3766     1.0  0.80213  0.86024  0.08072  1.0000
  H   H3767     1.0  0.83605  0.85659  0.12798  1.0000
  H   H3768     1.0  0.83279  0.83410  0.10562  1.0000
  H   H3769     1.0  0.86505  0.89993  0.08808  1.0000
  H   H3770     1.0  0.84917  0.88863  0.11441  1.0000
  H   H3771     1.0  0.79300  0.89274  0.05778  1.0000
  C   C2128     1.0  0.99672  0.88076  0.09055  1.0000
  H   H3772     1.0  0.97662  0.98079  0.20506  1.0000
  H   H3773     1.0  0.82131  0.82396  0.06373  1.0000
  H   H3774     1.0  0.84094  0.89442  0.03970  1.0000
  H   H3775     1.0  0.83484  0.71580  0.09677  1.0000
  H   H3776     1.0  0.98351  0.95917  0.04299  1.0000
  H   H3777     1.0  0.81094  0.83245  0.14774  1.0000
  H   H3778     1.0  0.79659  0.85813  0.13990  1.0000
  H   H3779     1.0  0.79380  0.83492  0.11747  1.0000
  H   H3780     1.0  0.88122  0.86323  0.12744  1.0000
  H   H3781     1.0  0.89697  0.87501  0.10076  1.0000
  H   H3782     1.0  0.88676  0.89104  0.12991  1.0000
  S   S479      1.0  0.89642  0.96634  0.49026  1.0000
  H   H3783     1.0  0.86224  0.71768  0.08553  1.0000
  H   H3784     1.0  0.95176  0.87062  0.07668  1.0000
  C   C2129     1.0  0.82689  0.69839  0.04523  1.0000
  H   H3785     1.0  0.83816  0.99144  0.14477  1.0000
  C   C2130     1.0  0.94258  0.90264  0.12266  1.0000
  H   H3786     1.0  0.96447  0.66249  0.40403  1.0000
  H   H3787     1.0  0.91601  0.90615  0.15194  1.0000
  H   H3788     1.0  0.97965  0.79973  0.29463  1.0000
  H   H3789     1.0  0.81282  0.67347  0.16027  1.0000
  H   H3790     1.0  0.96543  0.94394  0.08918  1.0000
  C   C2131     1.0  0.83356  0.73689  0.24348  1.0000
  S   S480      1.0  0.87053  0.87279  0.48549  1.0000
  H   H3791     1.0  0.96799  0.77646  0.25678  1.0000
  C   C2132     1.0  0.99090  0.95920  0.11009  1.0000
  H   H3792     1.0  0.90543  0.97566  0.12038  1.0000
  H   H3793     1.0  0.97185  0.84881  0.27993  1.0000
  C   C2133     1.0  0.81691  0.69164  0.24278  1.0000
  Fe  Fe239     1.0  0.92076  0.97795  0.21770  1.0000
  H   H3794     1.0  0.92666  0.67057  0.38745  1.0000
  H   H3795     1.0  0.86106  0.71805  0.26220  1.0000
  C   C2134     1.0  0.95627  0.88101  0.05942  1.0000
  C   C2135     1.0  0.98333  0.98237  0.18394  1.0000
  H   H3796     1.0  0.80383  0.88717  0.02373  1.0000
  H   H3797     1.0  0.77304  0.73083  0.29926  1.0000
  H   H3798     1.0  0.93423  0.88234  0.15705  1.0000
  Fe  Fe240     1.0  0.88012  0.90729  0.48494  1.0000
  C   C2136     1.0  0.86402  0.69820  0.00095  1.0000
  H   H3799     1.0  0.92134  0.98195  0.44275  1.0000
  H   H3800     1.0  0.91928  0.98713  0.02516  1.0000
  H   H3801     1.0  0.80055  0.71627  0.06878  1.0000
  S   S481      1.0  0.77531  0.78579  0.22684  1.0000
  H   H3802     1.0  0.81415  0.71449  0.34474  1.0000
  H   H3803     1.0  0.83080  0.76202  0.01296  1.0000
  H   H3804     1.0  0.83290  0.78449  0.48749  1.0000
  C   C2137     1.0  0.95066  0.97054  0.03301  1.0000
  H   H3805     1.0  0.80538  0.67952  0.08894  1.0000
  C   C2138     1.0  0.84834  0.74537  0.10762  1.0000
  H   H3806     1.0  0.95576  0.88695  0.27823  1.0000
  H   H3807     1.0  0.95845  0.95853  0.40959  1.0000
  H   H3808     1.0  0.88849  0.96641  0.31243  1.0000
  C   C2139     1.0  0.93244  0.98133  0.42487  1.0000
  C   C2140     1.0  0.80586  0.89647  0.04312  1.0000
  Fe  Fe241     1.0  0.91804  0.93601  0.49420  1.0000
  H   H3809     1.0  0.94041  0.92003  0.11777  1.0000
  H   H3810     1.0  0.77592  0.68118  0.22553  1.0000
  C   C2141     1.0  0.84794  0.75257  0.22997  1.0000
  C   C2142     1.0  0.93514  0.98854  0.10979  1.0000
  H   H3811     1.0  0.97489  0.89870  0.14065  1.0000
  C   C2143     1.0  0.93559  0.98871  0.03210  1.0000
  H   H3812     1.0  0.87658  0.98110  0.14606  1.0000
  H   H3813     1.0  0.96816  0.81543  0.26609  1.0000
  N   N120      1.0  0.85146  0.89838  0.37092  1.0000
  C   C2144     1.0  0.85458  0.91114  0.34495  1.0000
  C   C2145     1.0  0.84392  0.91388  0.39382  1.0000
  C   C2146     1.0  0.87335  0.88783  0.37946  1.0000
  C   C2147     1.0  0.83595  0.88101  0.36698  1.0000
  C   C2148     1.0  0.81740  0.88532  0.34534  1.0000
  C   C2149     1.0  0.86661  0.89851  0.32095  1.0000
  C   C2150     1.0  0.87436  0.87616  0.40784  1.0000
  C   C2151     1.0  0.82172  0.92680  0.38957  1.0000
  C   C2152     1.0  0.81699  0.94291  0.41333  1.0000
  C   C2153     1.0  0.80059  0.86881  0.34776  1.0000
  C   C2154     1.0  0.86347  0.91045  0.29344  1.0000
  C   C2155     1.0  0.89587  0.86258  0.41173  1.0000
  H   H3814     1.0  0.86405  0.92517  0.34983  1.0000
  H   H3815     1.0  0.83895  0.91852  0.33675  1.0000
  H   H3816     1.0  0.84226  0.90517  0.41351  1.0000
  H   H3817     1.0  0.85631  0.92556  0.39785  1.0000
  H   H3818     1.0  0.88557  0.89995  0.38023  1.0000
  H   H3819     1.0  0.87931  0.87559  0.36372  1.0000
  H   H3820     1.0  0.84477  0.86546  0.36043  1.0000
  H   H3821     1.0  0.82849  0.87733  0.38720  1.0000
  H   H3822     1.0  0.82398  0.88407  0.32399  1.0000
  H   H3823     1.0  0.80883  0.90155  0.34765  1.0000
  H   H3824     1.0  0.88430  0.89672  0.32548  1.0000
  H   H3825     1.0  0.86099  0.88214  0.31835  1.0000
  H   H3826     1.0  0.86107  0.86537  0.40978  1.0000
  H   H3827     1.0  0.87318  0.88814  0.42508  1.0000
  H   H3828     1.0  0.82112  0.93607  0.37002  1.0000
  H   H3829     1.0  0.80860  0.91570  0.38961  1.0000
  H   H3830     1.0  0.80083  0.95171  0.41012  1.0000
  H   H3831     1.0  0.81694  0.93443  0.43353  1.0000
  H   H3832     1.0  0.82932  0.95489  0.41409  1.0000
  H   H3833     1.0  0.78817  0.87147  0.33113  1.0000
  H   H3834     1.0  0.80832  0.85210  0.34568  1.0000
  H   H3835     1.0  0.79230  0.87055  0.36811  1.0000
  H   H3836     1.0  0.84620  0.91144  0.28686  1.0000
  H   H3837     1.0  0.81930  0.94783  0.10426  1.0000
  C   C2156     1.0  0.99113  0.67318  0.35211  1.0000
  H   H3838     1.0  0.94103  0.97548  0.09525  1.0000
  S   S482      1.0  0.88681  0.96747  0.99878  1.0000
  C   C2157     1.0  0.76655  0.76160  0.01118  1.0000
  H   H3839     1.0  0.93977  0.89652  0.02379  1.0000
  H   H3840     1.0  0.84920  0.70418  0.31980  1.0000
  S   S483      1.0  0.84200  0.70696  0.17199  1.0000
  H   H3841     1.0  0.83466  0.73286  0.35127  1.0000
  C   C2158     1.0  0.98855  0.85361  0.27684  1.0000
  C   C2159     1.0  0.94738  0.96061  0.42762  1.0000
  H   H3842     1.0  0.83123  0.75604  0.48131  1.0000
  C   C2160     1.0  0.99143  0.67712  0.45635  1.0000
  H   H3843     1.0  0.97928  0.66359  0.06717  1.0000
  H   H3844     1.0  0.83746  0.79744  0.03110  1.0000
  H   H3845     1.0  0.87123  0.98086  0.35611  1.0000
  H   H3846     1.0  0.86282  0.68444  0.28404  1.0000
  C   C2161     1.0  0.93321  0.89968  0.15142  1.0000
  N   N121      1.0  0.83736  0.71815  0.03592  1.0000
  H   H3847     1.0  0.86802  0.86806  0.06034  1.0000
  H   H3848     1.0  0.94214  0.90874  0.16702  1.0000
  H   H3849     1.0  0.92307  0.98008  0.40536  1.0000
  C   C2162     1.0  0.82274  0.70683  0.28896  1.0000
  H   H3850     1.0  0.96864  0.87154  0.04669  1.0000
  C   C2163     1.0  0.97171  0.97300  0.04240  1.0000
  H   H3851     1.0  0.76327  0.79680  0.32641  1.0000
  H   H3852     1.0  0.81994  0.73474  0.22896  1.0000
  N   N122      1.0  0.97951  0.89897  0.09623  1.0000
  H   H3853     1.0  0.97634  0.89514  0.25496  1.0000
  H   H3854     1.0  0.87025  0.72564  0.02690  1.0000
  H   H3855     1.0  0.82402  0.68829  0.22192  1.0000
  S   S484      1.0  0.76459  0.75373  0.34995  1.0000
  H   H3856     1.0  0.86859  0.70138  0.04509  1.0000
  H   H3857     1.0  0.80443  0.70531  0.23959  1.0000
  C   C2164     1.0  0.76522  0.74939  0.03526  1.0000
  H   H3858     1.0  0.85418  0.99341  0.20531  1.0000
  C   C2165     1.0  0.91046  0.99023  0.11007  1.0000
  Fe  Fe242     1.0  0.75760  0.77585  0.44814  1.0000
  H   H3859     1.0  0.98053  0.97447  0.11283  1.0000
  H   H3860     1.0  0.82089  0.74306  0.06195  1.0000
  C   C2166     1.0  0.83737  0.71676  0.31109  1.0000
  H   H3861     1.0  0.82692  0.74473  0.26270  1.0000
  C   C2167     1.0  0.86676  0.66872  0.17507  1.0000
  H   H3862     1.0  0.98522  0.87582  0.31276  1.0000
  H   H3863     1.0  0.85044  0.82482  0.06320  1.0000
  H   H3864     1.0  0.93056  0.87075  0.03280  1.0000
  C   C2168     1.0  0.86065  0.66638  0.24613  1.0000
  S   S485      1.0  0.88790  0.91990  0.02931  1.0000
  C   C2169     1.0  0.80205  0.92032  0.03564  1.0000
  Fe  Fe243     1.0  0.86354  0.94721  0.01957  1.0000
  C   C2170     1.0  0.93619  0.88597  0.04136  1.0000
  H   H3865     1.0  0.85315  0.70881  0.22940  1.0000
  H   H3866     1.0  0.98990  0.80642  0.36227  1.0000
  C   C2171     1.0  0.84597  0.67864  0.16999  1.0000
  S   S486      1.0  0.76008  0.76656  0.15337  1.0000
  C   C2172     1.0  0.80298  0.70226  0.05462  1.0000
  H   H3867     1.0  0.99008  0.85530  0.25400  1.0000
  H   H3868     1.0  0.94161  0.98453  0.13077  1.0000
  H   H3869     1.0  0.79622  0.66298  0.20873  1.0000
  H   H3870     1.0  0.86850  0.99025  0.09828  1.0000
  C   C2173     1.0  0.99105  0.91908  0.10151  1.0000
  H   H3871     1.0  0.92300  0.89405  0.05409  1.0000
  H   H3872     1.0  0.83824  0.76807  0.22580  1.0000
  H   H3873     1.0  0.75745  0.73444  0.03455  1.0000
  H   H3874     1.0  0.95707  0.96083  0.44711  1.0000
  H   H3875     1.0  0.97216  0.90836  0.28799  1.0000
  C   C2174     1.0  0.86058  0.71138  0.02831  1.0000
  C   C2175     1.0  0.83651  0.81470  0.02522  1.0000
  H   H3876     1.0  0.81547  0.85485  0.03429  1.0000
  C   C2176     1.0  0.82476  0.72783  0.01154  1.0000
  C   C2177     1.0  0.98908  0.87633  0.29035  1.0000
  H   H3877     1.0  0.85122  0.81759  0.01322  1.0000
  H   H3878     1.0  0.82814  0.98611  0.19323  1.0000
  H   H3879     1.0  0.83656  0.69009  0.06217  1.0000
  C   C2178     1.0  0.98236  0.80473  0.27300  1.0000
  C   C2179     1.0  0.78794  0.66711  0.22867  1.0000
  H   H3880     1.0  0.85218  0.96904  0.18504  1.0000
  H   H3881     1.0  0.99407  0.69396  0.04144  1.0000
  H   H3882     1.0  0.79217  0.70530  0.03633  1.0000
  C   C2180     1.0  0.84553  0.98605  0.18782  1.0000
  C   C2181     1.0  0.82891  0.66590  0.16422  1.0000
  C   C2182     1.0  0.80444  0.67208  0.25107  1.0000
  H   H3883     1.0  0.99700  0.77282  0.26122  1.0000
  C   C2183     1.0  0.82519  0.76999  0.49446  1.0000
  H   H3884     1.0  0.98532  0.78861  0.23262  1.0000
  C   C2184     1.0  0.83382  0.74799  0.99871  1.0000
  Fe  Fe244     1.0  0.87861  0.90666  0.98795  1.0000
  C   C2185     1.0  0.80752  0.85430  0.86466  1.0000
  H   H3885     1.0  0.79621  0.88805  0.96759  1.0000
  C   C2186     1.0  0.82265  0.75383  0.97113  1.0000
  S   S487      1.0  0.78579  0.76181  0.67741  1.0000
  H   H3886     1.0  0.80988  0.66253  0.77940  1.0000
  H   H3887     1.0  0.97521  0.85222  0.56500  1.0000
  H   H3888     1.0  0.89779  0.70500  0.99580  1.0000
  Fe  Fe245     1.0  0.76662  0.76010  0.63799  1.0000
  S   S488      1.0  0.76970  0.78576  0.60571  1.0000
  C   C2187     1.0  0.83006  0.88130  0.62357  1.0000
  S   S489      1.0  0.77505  0.72468  0.63096  1.0000
  H   H3889     1.0  0.94239  0.99166  0.83461  1.0000
  H   H3890     1.0  0.94764  0.84940  0.64875  1.0000
  C   C2188     1.0  0.83055  0.86265  0.56879  1.0000
  S   S490      1.0  0.92628  0.99447  0.73636  1.0000
  H   H3891     1.0  0.79353  0.81589  0.84297  1.0000
  C   C2189     1.0  0.82059  0.67091  0.66901  1.0000
  Fe  Fe246     1.0  0.76923  0.81949  0.92763  1.0000
  S   S491      1.0  0.78015  0.85141  0.94224  1.0000
  H   H3892     1.0  0.83973  0.96552  0.61019  1.0000
  S   S492      1.0  0.78615  0.78620  0.92685  1.0000
  H   H3893     1.0  0.93408  0.84512  0.79079  1.0000
  H   H3894     1.0  0.99089  0.87685  0.52644  1.0000
  H   H3895     1.0  0.88194  0.95807  0.81753  1.0000
  H   H3896     1.0  0.93371  0.95317  0.59685  1.0000
  H   H3897     1.0  0.84860  0.77862  0.62529  1.0000
  H   H3898     1.0  0.83467  0.86934  0.81114  1.0000
  H   H3899     1.0  0.81959  0.78166  0.63116  1.0000
  H   H3900     1.0  0.82638  0.85745  0.52375  1.0000
  N   N123      1.0  0.98303  0.85425  0.60873  1.0000
  H   H3901     1.0  0.85980  0.72013  0.75431  1.0000
  C   C2190     1.0  0.94168  0.94647  0.87952  1.0000
  H   H3902     1.0  0.85933  0.72681  0.51851  1.0000
  H   H3903     1.0  0.76824  0.79451  0.50491  1.0000
  Fe  Fe247     1.0  0.87921  0.94995  0.95935  1.0000
  S   S493      1.0  0.86022  0.96540  0.55689  1.0000
  H   H3904     1.0  0.94926  0.86501  0.60139  1.0000
  S   S494      1.0  0.90472  0.92270  0.96579  1.0000
  H   H3905     1.0  0.82542  0.88345  0.66814  1.0000
  Fe  Fe248     1.0  0.94214  0.91516  0.73879  1.0000
  S   S495      1.0  0.91130  0.89877  0.73789  1.0000
  S   S496      1.0  0.97634  0.89922  0.74008  1.0000
  Fe  Fe249     1.0  0.89958  0.92363  0.76979  1.0000
  S   S497      1.0  0.88356  0.91157  0.80806  1.0000
  Fe  Fe250     1.0  0.89966  0.92366  0.70626  1.0000
  S   S498      1.0  0.88346  0.91283  0.66665  1.0000
  S   S499      1.0  0.93133  0.93834  0.77287  1.0000
  S   S500      1.0  0.93157  0.93805  0.70475  1.0000
  C   C2191     1.0  0.86833  0.95278  0.58852  1.0000
  C   C2192     1.0  0.88785  0.93983  0.59088  1.0000
  C   C2193     1.0  0.89305  0.92844  0.61545  1.0000
  C   C2194     1.0  0.87910  0.93043  0.63823  1.0000
  C   C2195     1.0  0.86006  0.94420  0.63637  1.0000
  H   H3906     1.0  0.77351  0.70106  0.56780  1.0000
  H   H3907     1.0  0.84902  0.94561  0.65371  1.0000
  C   C2196     1.0  0.87950  0.95222  0.88796  1.0000
  C   C2197     1.0  0.88043  0.92970  0.88898  1.0000
  C   C2198     1.0  0.88170  0.91749  0.86426  1.0000
  C   C2199     1.0  0.88243  0.92760  0.83845  1.0000
  C   C2200     1.0  0.88163  0.95012  0.83739  1.0000
  H   H3908     1.0  0.88010  0.92171  0.90878  1.0000
  H   H3909     1.0  0.88260  0.90009  0.86504  1.0000
  H   H3910     1.0  0.77147  0.66719  0.74003  1.0000
  Fe  Fe251     1.0  0.75542  0.77587  0.94484  1.0000
  C   C2201     1.0  0.77854  0.89337  0.88385  1.0000
  C   C2202     1.0  0.98136  0.87336  0.72532  1.0000
  C   C2203     1.0  0.96438  0.86074  0.71879  1.0000
  C   C2204     1.0  0.96877  0.84029  0.70659  1.0000
  H   H3911     1.0  0.84590  0.87192  0.62636  1.0000
  H   H3912     1.0  0.82009  0.73357  0.51957  1.0000
  H   H3913     1.0  0.94785  0.86677  0.72298  1.0000
  H   H3914     1.0  0.95552  0.83070  0.70126  1.0000
  C   C2205     1.0  0.94942  0.98407  0.50825  1.0000
  C   C2206     1.0  0.80618  0.67020  0.73630  1.0000
  C   C2207     1.0  0.83022  0.69598  0.80288  1.0000
  H   H3915     1.0  0.81677  0.84221  0.82328  1.0000
  H   H3916     1.0  0.93825  0.97855  0.91415  1.0000
  C   C2208     1.0  0.80959  0.67737  0.76678  1.0000
  S   S501      1.0  0.88493  0.94713  0.73817  1.0000
  S   S502      1.0  0.75524  0.75250  0.98019  1.0000
  H   H3917     1.0  0.95751  0.92359  0.61595  1.0000
  C   C2209     1.0  0.99284  0.78969  0.76381  1.0000
  C   C2210     1.0  0.80600  0.85524  0.95574  1.0000
  C   C2211     1.0  0.80951  0.87565  0.96646  1.0000
  C   C2212     1.0  0.83018  0.88032  0.97532  1.0000
  C   C2213     1.0  0.84765  0.86473  0.97337  1.0000
  C   C2214     1.0  0.84405  0.84395  0.96365  1.0000
  C   C2215     1.0  0.82322  0.83919  0.95473  1.0000
  H   H3918     1.0  0.83905  0.76745  0.57798  1.0000
  Fe  Fe252     1.0  0.75554  0.75403  0.69900  1.0000
  H   H3919     1.0  0.85748  0.83170  0.96232  1.0000
  H   H3920     1.0  0.82063  0.82337  0.94649  1.0000
  C   C2216     1.0  0.85477  0.95541  0.61167  1.0000
  H   H3921     1.0  0.92754  0.91737  0.86498  1.0000
  C   C2217     1.0  0.77354  0.75826  0.76949  1.0000
  C   C2218     1.0  0.78394  0.75668  0.79550  1.0000
  H   H3922     1.0  0.90153  0.86734  0.55484  1.0000
  H   H3923     1.0  0.80412  0.67635  0.66330  1.0000
  C   C2219     1.0  0.76528  0.78400  0.52198  1.0000
  H   H3924     1.0  0.78032  0.74930  0.75183  1.0000
  H   H3925     1.0  0.81400  0.91310  0.79055  1.0000
  C   C2220     1.0  0.98786  0.85855  0.57870  1.0000
  H   H3926     1.0  0.84933  0.86788  0.85506  1.0000
  C   C2221     1.0  0.76451  0.77741  0.57164  1.0000
  C   C2222     1.0  0.76746  0.79127  0.54945  1.0000
  H   H3927     1.0  0.87681  0.88053  0.90599  1.0000
  H   H3928     1.0  0.82183  0.69093  0.55486  1.0000
  C   C2223     1.0  0.75705  0.74913  0.53898  1.0000
  C   C2224     1.0  0.75860  0.75659  0.56634  1.0000
  C   C2225     1.0  0.97964  0.95886  0.91611  1.0000
  H   H3929     1.0  0.77717  0.79076  0.99391  1.0000
  C   C2226     1.0  0.82194  0.68017  0.82436  1.0000
  C   C2227     1.0  0.98183  0.98522  0.54872  1.0000
  H   H3930     1.0  0.97997  0.70425  0.55749  1.0000
  H   H3931     1.0  0.81937  0.70377  0.85822  1.0000
  H   H3932     1.0  0.92163  0.88107  0.63781  1.0000
  H   H3933     1.0  0.75079  0.91059  0.90360  1.0000
  H   H3934     1.0  0.76298  0.71813  0.82191  1.0000
  H   H3935     1.0  0.79020  0.85504  0.85817  1.0000
  C   C2228     1.0  0.84993  0.67717  0.76347  1.0000
  H   H3936     1.0  0.97232  0.89080  0.56950  1.0000
  H   H3937     1.0  0.97690  0.78578  0.77174  1.0000
  H   H3938     1.0  0.98606  0.70644  0.52114  1.0000
  H   H3939     1.0  0.84438  0.89296  0.87245  1.0000
  H   H3940     1.0  0.89040  0.98271  0.70065  1.0000
  H   H3941     1.0  0.84219  0.84827  0.89983  1.0000
  C   C2229     1.0  0.92556  0.99038  0.82708  1.0000
  H   H3942     1.0  0.80174  0.75168  0.53732  1.0000
  C   C2230     1.0  0.81101  0.81530  0.84855  1.0000
  H   H3943     1.0  0.81252  0.92615  0.50488  1.0000
  H   H3944     1.0  0.98559  0.76894  0.86486  1.0000
  H   H3945     1.0  0.83331  0.89497  0.77241  1.0000
  H   H3946     1.0  0.83718  0.83569  0.84968  1.0000
  Fe  Fe253     1.0  0.76895  0.78238  0.88602  1.0000
  H   H3947     1.0  0.95335  0.95739  0.87136  1.0000
  H   H3948     1.0  0.80661  0.88677  0.77925  1.0000
  H   H3949     1.0  0.80406  0.68000  0.82255  1.0000
  C   C2231     1.0  0.76055  0.76272  0.51676  1.0000
  H   H3950     1.0  0.92585  0.95591  0.88259  1.0000
  H   H3951     1.0  0.91046  0.86515  0.59046  1.0000
  H   H3952     1.0  0.95884  0.81232  0.79925  1.0000
  H   H3953     1.0  0.95347  0.97978  0.97505  1.0000
  H   H3954     1.0  0.81382  0.95099  0.52419  1.0000
  H   H3955     1.0  0.80770  0.84754  0.88602  1.0000
  C   C2232     1.0  0.98897  0.88267  0.57107  1.0000
  C   C2233     1.0  0.83167  0.75020  0.61471  1.0000
  C   C2234     1.0  0.83444  0.77034  0.63234  1.0000
  H   H3956     1.0  0.84659  0.73914  0.61683  1.0000
  H   H3957     1.0  0.81794  0.74233  0.62368  1.0000
  H   H3958     1.0  0.83713  0.76560  0.65436  1.0000
  C   C2235     1.0  0.81955  0.83750  0.84521  1.0000
  H   H3959     1.0  0.85145  0.74555  0.99481  1.0000
  C   C2236     1.0  0.99011  0.83247  0.70060  1.0000
  C   C2237     1.0  0.94110  0.95566  0.61750  1.0000
  H   H3960     1.0  0.81285  0.82601  0.54751  1.0000
  H   H3961     1.0  0.90148  0.97560  0.62453  1.0000
  H   H3962     1.0  0.95637  0.85931  0.77882  1.0000
  H   H3963     1.0  0.77194  0.80745  0.55350  1.0000
  C   C2238     1.0  0.82524  0.89443  0.65007  1.0000
  H   H3964     1.0  0.81088  0.76566  0.58322  1.0000
  H   H3965     1.0  0.96521  0.88540  0.61451  1.0000
  H   H3966     1.0  0.76529  0.69112  0.80772  1.0000
  H   H3967     1.0  0.96946  0.67259  0.52984  1.0000
  C   C2239     1.0  0.87844  0.70105  0.53852  1.0000
  C   C2240     1.0  0.80350  0.88952  0.88765  1.0000
  S   S503      1.0  0.82764  0.71383  0.67617  1.0000
  H   H3968     1.0  0.87267  0.85739  0.58706  1.0000
  H   H3969     1.0  0.84205  0.89541  0.82196  1.0000
  H   H3970     1.0  0.80906  0.90353  0.64874  1.0000
  H   H3971     1.0  0.86219  0.73843  0.56631  1.0000
  H   H3972     1.0  0.87521  0.98788  0.66916  1.0000
  C   C2241     1.0  0.99336  0.75289  0.74045  1.0000
  H   H3973     1.0  0.95352  0.98074  0.64292  1.0000
  S   S504      1.0  0.75483  0.81684  0.88502  1.0000
  S   S505      1.0  0.87390  0.87103  0.98318  1.0000
  H   H3974     1.0  0.90452  0.89142  0.57541  1.0000
  H   H3975     1.0  0.87673  0.68809  0.55390  1.0000
  H   H3976     1.0  0.79566  0.73121  0.57817  1.0000
  C   C2242     1.0  0.87986  0.96238  0.86208  1.0000
  H   H3977     1.0  0.99160  0.97453  0.95442  1.0000
  C   C2243     1.0  0.97569  0.96537  0.53879  1.0000
  H   H3978     1.0  0.97895  0.80048  0.83460  1.0000
  H   H3979     1.0  0.79383  0.93274  0.53299  1.0000
  C   C2244     1.0  0.81992  0.89587  0.78770  1.0000
  H   H3980     1.0  0.80589  0.88138  0.90795  1.0000
  C   C2245     1.0  0.96395  0.82470  0.78493  1.0000
  C   C2246     1.0  0.83782  0.74750  0.74471  1.0000
  H   H3981     1.0  0.81323  0.80956  0.87023  1.0000
  H   H3982     1.0  0.97702  0.78886  0.58953  1.0000
  H   H3983     1.0  0.97679  0.68477  0.95621  1.0000
  H   H3984     1.0  0.82918  0.66346  0.82137  1.0000
  C   C2247     1.0  0.81155  0.72208  0.57412  1.0000
  H   H3985     1.0  0.89143  0.71117  0.54552  1.0000
  H   H3986     1.0  0.98302  0.78751  0.62638  1.0000
  H   H3987     1.0  0.92991  0.95076  0.63371  1.0000
  H   H3988     1.0  0.90774  0.91780  0.61664  1.0000
  C   C2248     1.0  0.80722  0.70251  0.55547  1.0000
  H   H3989     1.0  0.85028  0.75902  0.74860  1.0000
  N   N124      1.0  0.81548  0.87659  0.86501  1.0000
  H   H3990     1.0  0.86412  0.68636  0.76849  1.0000
  H   H3991     1.0  0.89004  0.68167  0.97697  1.0000
  H   H3992     1.0  0.95866  0.82046  0.76362  1.0000
  H   H3993     1.0  0.97145  0.90648  0.99433  1.0000
  C   C2249     1.0  0.94879  0.98690  0.95470  1.0000
  H   H3994     1.0  0.79532  0.88253  0.82831  1.0000
  H   H3995     1.0  0.97848  0.74885  0.75127  1.0000
  C   C2250     1.0  0.99014  0.67241  0.95684  1.0000
  C   C2251     1.0  0.96169  0.94040  0.61937  1.0000
  H   H3996     1.0  0.81992  0.80342  0.83458  1.0000
  H   H3997     1.0  0.81739  0.86973  0.62152  1.0000
  C   C2252     1.0  0.84693  0.86505  0.89912  1.0000
  H   H3998     1.0  0.83774  0.90594  0.65367  1.0000
  H   H3999     1.0  0.93097  0.93701  0.83851  1.0000
  C   C2253     1.0  0.82831  0.88622  0.81516  1.0000
  H   H4000     1.0  0.97547  0.97339  0.90314  1.0000
  C   C2254     1.0  0.93531  0.88239  0.65258  1.0000
  C   C2255     1.0  0.95394  0.86543  0.64605  1.0000
  H   H4001     1.0  0.97124  0.94833  0.97065  1.0000
  C   C2256     1.0  0.82695  0.68723  0.85401  1.0000
  H   H4002     1.0  0.82019  0.71146  0.80675  1.0000
  Fe  Fe254     1.0  0.87413  0.94957  0.51752  1.0000
  H   H4003     1.0  0.81018  0.90554  0.89018  1.0000
  C   C2257     1.0  0.85672  0.67875  0.68299  1.0000
  H   H4004     1.0  0.98747  0.94664  0.90150  1.0000
  H   H4005     1.0  0.80708  0.90570  0.84122  1.0000
  C   C2258     1.0  0.75561  0.78108  0.81540  1.0000
  H   H4006     1.0  0.84473  0.68698  0.85739  1.0000
  H   H4007     1.0  0.96411  0.82754  0.59838  1.0000
  C   C2259     1.0  0.75415  0.77127  0.76651  1.0000
  H   H4008     1.0  0.77535  0.92422  0.90605  1.0000
  H   H4009     1.0  0.85259  0.71468  0.57965  1.0000
  H   H4010     1.0  0.83990  0.87425  0.91708  1.0000
  H   H4011     1.0  0.84709  0.69917  0.80882  1.0000
  H   H4012     1.0  0.99444  0.98553  0.56434  1.0000
  C   C2260     1.0  0.83538  0.68596  0.67573  1.0000
  S   S506      1.0  0.99459  0.80770  0.68302  1.0000
  H   H4013     1.0  0.76384  0.71395  0.78468  1.0000
  H   H4014     1.0  0.97342  0.94428  0.60319  1.0000
  H   H4015     1.0  0.95018  0.66497  0.91378  1.0000
  H   H4016     1.0  0.82036  0.67601  0.86895  1.0000
  H   H4017     1.0  0.96695  0.86744  0.66149  1.0000
  C   C2261     1.0  0.87154  0.86408  0.90265  1.0000
  C   C2262     1.0  0.81044  0.88798  0.83772  1.0000
  C   C2263     1.0  0.81071  0.93370  0.52580  1.0000
  C   C2264     1.0  0.76862  0.90822  0.90664  1.0000
  H   H4018     1.0  0.87651  0.85437  0.92119  1.0000
  S   S507      1.0  0.87848  0.96801  0.91864  1.0000
  H   H4019     1.0  0.86826  0.69035  0.68803  1.0000
  H   H4020     1.0  0.97375  0.82745  0.63322  1.0000
  C   C2265     1.0  0.95182  0.84631  0.79278  1.0000
  H   H4021     1.0  0.98884  0.76066  0.72031  1.0000
  C   C2266     1.0  0.99031  0.69728  0.54038  1.0000
  S   S508      1.0  0.76366  0.71816  0.69735  1.0000
  C   C2267     1.0  0.83941  0.87614  0.87165  1.0000
  C   C2268     1.0  0.89032  0.97973  0.67795  1.0000
  H   H4022     1.0  0.89904  0.93859  0.57384  1.0000
  H   H4023     1.0  0.92621  0.98519  0.80496  1.0000
  C   C2269     1.0  0.82649  0.71019  0.75576  1.0000
  H   H4024     1.0  0.79469  0.68735  0.77317  1.0000
  H   H4025     1.0  0.82294  0.71545  0.99505  1.0000
  H   H4026     1.0  0.81011  0.71860  0.75924  1.0000
  H   H4027     1.0  0.82737  0.70646  0.73324  1.0000
  H   H4028     1.0  0.85860  0.70806  0.98272  1.0000
  H   H4029     1.0  0.96932  0.94153  0.64021  1.0000
  H   H4030     1.0  0.80338  0.68433  0.72250  1.0000
  H   H4031     1.0  0.92462  0.97696  0.67064  1.0000
  C   C2270     1.0  0.85699  0.71483  0.53492  1.0000
  H   H4032     1.0  0.87867  0.97977  0.86107  1.0000
  H   H4033     1.0  0.81716  0.71503  0.59433  1.0000
  H   H4034     1.0  0.78622  0.67623  0.55382  1.0000
  N   N125      1.0  0.95924  0.95100  0.92817  1.0000
  C   C2271     1.0  0.96335  0.93862  0.95474  1.0000
  C   C2272     1.0  0.94246  0.96959  0.93357  1.0000
  C   C2273     1.0  0.94960  0.93610  0.90737  1.0000
  H   H4035     1.0  0.87988  0.85647  0.88428  1.0000
  Fe  Fe255     1.0  0.79235  0.72592  0.67186  1.0000
  C   C2274     1.0  0.98883  0.82624  0.78548  1.0000
  H   H4036     1.0  0.82964  0.89168  0.52658  1.0000
  S   S509      1.0  0.85256  0.93310  0.97915  1.0000
  Fe  Fe256     1.0  0.91787  0.95994  0.73878  1.0000
  H   H4037     1.0  0.84482  0.70421  0.52713  1.0000
  N   N126      1.0  0.82919  0.68967  0.77249  1.0000
  H   H4038     1.0  0.84852  0.76300  0.52733  1.0000
  H   H4039     1.0  0.94771  0.93532  0.96430  1.0000
  C   C2275     1.0  0.94619  0.97946  0.62185  1.0000
  H   H4040     1.0  0.99173  0.83727  0.76800  1.0000
  H   H4041     1.0  0.92706  0.96334  0.94070  1.0000
  H   H4042     1.0  0.93552  0.92868  0.91655  1.0000
  H   H4043     1.0  0.87528  0.88209  0.60654  1.0000
  H   H4044     1.0  0.95554  0.85076  0.81455  1.0000
  H   H4045     1.0  0.82838  0.76909  0.96327  1.0000
  C   C2276     1.0  0.85001  0.72651  0.56244  1.0000
  H   H4046     1.0  0.77410  0.90090  0.86361  1.0000
  S   S510      1.0  0.95282  0.93905  0.50639  1.0000
  H   H4047     1.0  0.83733  0.74398  0.72210  1.0000
  H   H4048     1.0  0.77187  0.90090  0.92736  1.0000
  C   C2277     1.0  0.83595  0.85019  0.54134  1.0000
  H   H4049     1.0  0.85026  0.67533  0.74050  1.0000
  C   C2278     1.0  0.77484  0.76788  0.81854  1.0000
  H   H4050     1.0  0.75592  0.74597  0.58330  1.0000
  S   S511      1.0  0.78740  0.76482  0.85120  1.0000
  H   H4051     1.0  0.82503  0.78044  0.53685  1.0000
  C   C2279     1.0  0.84349  0.72680  0.76107  1.0000
  H   H4052     1.0  0.95420  0.92072  0.85145  1.0000
  H   H4053     1.0  0.98924  0.79731  0.74325  1.0000
  C   C2280     1.0  0.97832  0.83092  0.61157  1.0000
  C   C2281     1.0  0.81923  0.74622  0.53595  1.0000
  H   H4054     1.0  0.98138  0.77558  0.81465  1.0000
  C   C2282     1.0  0.93844  0.92929  0.85735  1.0000
  H   H4055     1.0  0.83842  0.85279  0.58566  1.0000
  H   H4056     1.0  0.88332  0.69334  0.51839  1.0000
  N   N127      1.0  0.83660  0.88569  0.57024  1.0000
  C   C2283     1.0  0.75787  0.70779  0.80453  1.0000
  C   C2284     1.0  0.82970  0.89609  0.59772  1.0000
  C   C2285     1.0  0.82428  0.89793  0.54734  1.0000
  C   C2286     1.0  0.86045  0.88730  0.56554  1.0000
  C   C2287     1.0  0.87619  0.87450  0.58561  1.0000
  H   H4057     1.0  0.82185  0.75530  0.75120  1.0000
  C   C2288     1.0  0.82678  0.92253  0.54633  1.0000
  H   H4058     1.0  0.83247  0.89602  0.98377  1.0000
  S   S512      1.0  0.89636  0.91975  0.52281  1.0000
  C   C2289     1.0  0.89960  0.87467  0.57589  1.0000
  N   N128      1.0  0.82726  0.73738  0.56359  1.0000
  C   C2290     1.0  0.83037  0.82677  0.54320  1.0000
  C   C2291     1.0  0.97678  0.91651  0.95189  1.0000
  H   H4059     1.0  0.75378  0.73259  0.53503  1.0000
  H   H4060     1.0  0.83971  0.90972  0.60273  1.0000
  H   H4061     1.0  0.81268  0.90347  0.59639  1.0000
  H   H4062     1.0  0.80667  0.89557  0.54870  1.0000
  C   C2292     1.0  0.91042  0.98812  0.66512  1.0000
  H   H4063     1.0  0.86484  0.88257  0.54389  1.0000
  H   H4064     1.0  0.86440  0.90438  0.56743  1.0000
  C   C2293     1.0  0.83067  0.76566  0.52499  1.0000
  C   C2294     1.0  0.82693  0.75610  0.58390  1.0000
  C   C2295     1.0  0.95939  0.96462  0.51866  1.0000
  H   H4065     1.0  0.84441  0.73146  0.78328  1.0000
  H   H4066     1.0  0.84331  0.92528  0.53930  1.0000
  H   H4067     1.0  0.82412  0.93056  0.56679  1.0000
  H   H4068     1.0  0.80237  0.70739  0.53411  1.0000
  H   H4069     1.0  0.77085  0.87791  0.88521  1.0000
  C   C2296     1.0  0.78885  0.69042  0.56720  1.0000
  H   H4070     1.0  0.96162  0.92242  0.90197  1.0000
  H   H4071     1.0  0.81280  0.86232  0.57228  1.0000
  H   H4072     1.0  0.85343  0.84997  0.53647  1.0000
  H   H4073     1.0  0.80483  0.75618  0.97378  1.0000
  H   H4074     1.0  0.96639  0.90433  0.94316  1.0000
  H   H4075     1.0  0.84010  0.81813  0.55975  1.0000
  H   H4076     1.0  0.94080  0.89892  0.65173  1.0000
  H   H4077     1.0  0.92930  0.87987  0.67387  1.0000
  C   C2297     1.0  0.96257  0.86802  0.61624  1.0000
  H   H4078     1.0  0.96859  0.66787  0.86860  1.0000
  H   H4079     1.0  0.99076  0.91748  0.93784  1.0000
  H   H4080     1.0  0.79891  0.74662  0.79789  1.0000
  C   C2298     1.0  0.98960  0.79090  0.60563  1.0000
  H   H4081     1.0  0.91800  0.97793  0.83911  1.0000
  H   H4082     1.0  0.99432  0.89224  0.97745  1.0000
  H   H4083     1.0  0.95946  0.98233  0.60721  1.0000
  H   H4084     1.0  0.82641  0.74090  0.95544  1.0000
  H   H4085     1.0  0.83407  0.81846  0.52308  1.0000
  H   H4086     1.0  0.91653  0.98200  0.57970  1.0000
  H   H4087     1.0  0.98365  0.95052  0.54673  1.0000
  H   H4088     1.0  0.74855  0.78983  0.83304  1.0000
  H   H4089     1.0  0.89038  0.96211  0.67435  1.0000
  H   H4090     1.0  0.99305  0.83512  0.80468  1.0000
  C   C2299     1.0  0.88797  0.69087  0.99678  1.0000
  C   C2300     1.0  0.98518  0.90825  0.98007  1.0000
  C   C2301     1.0  0.90765  0.99054  0.63332  1.0000
  C   C2302     1.0  0.98669  0.67350  0.53576  1.0000
  H   H4091     1.0  0.99691  0.66774  0.51797  1.0000
  H   H4092     1.0  0.93104  0.66955  0.88566  1.0000
  H   H4093     1.0  0.98382  0.66778  0.58005  1.0000
  H   H4094     1.0  0.99615  0.91957  0.98951  1.0000
  C   C2303     1.0  0.99032  0.78695  0.82722  1.0000
  H   H4095     1.0  0.79291  0.68462  0.58851  1.0000
  C   C2304     1.0  0.99711  0.81369  0.60487  1.0000
  H   H4096     1.0  0.94915  0.66227  0.56884  1.0000
