data_image0
_chemical_formula_structural       FeS2FeS2FeSFeHS2C2FeS2FeS2FeSHFeSNFeSFeHSC2SFeSFeS2FeSFeS3C6H2S2C3H2C3H3CHC4H6CH2CHC6H4C6H4C6H6FeC2H2C3H7SHCH5CH2CH4SC3H2CH3CH2CHCH4SHCH4C2HCH2FeC2HCH3C2H8CNC9H18C2H10CSNH2C2H2NC12H27CH7NH2CH3C2H3C3H6NH3CHC3HSCH2FeH2CH3CSCH2C4H2SH2CHSH4SHCFeC2H7FeCH3C3SC2HCHCHCHSCH2C2HCHCH2FeC2FeC2H3SH3SH2C2HSH3CH2CSHCH4CH5CHSH3CSH2CHFeS2CHSCS2Fe2HSFeHSHS2H2CH2C2H3C4H2C5H3C8H4FeSFeS2FeS2FeS2HFeHFeHSCFeSFeS2FeSHSC4H2C3SH2C2H2C8H4S2HC5H3CH3FeH6CHCSH5CH2CH6CH2NC5HC4HCH5CH15CHCH3C2HCH3CHFeCFeC2H2CHCH5C2H3CH2C2H2C2H4C2SH2C2HCH2NHC2SC2H2CHCHFeNC4HC4HC2H9SH6CH10CNC12H28C2H4CH7C2H3C2H4SHCH3SHC3H3C2H2FeH3CH2CHC2HSNH3SC2HSCH5CNH10CHC2H5FeS2FeS2FeSFeS3CSH5SFeSFeSHFeCSFeHSCH2S2HCH2SHCHC9HCH2CH3C2HC2H3C3HSH5Fe2HC4HC2H3C6H4C4H3C2SCHFeCHCHFeH3CH4NHSH8CH2C3HNH2CH4C2HCHCH3CH5CHCHNHSH2FeH2CH3CHNHCH2NC3HCHCH3CH2CHCH5CHFeHSCH2CHSH2NC12H29FeC2H2CH3CHCHCSFeH3CHCHC2H3SHCSH5C2H2CHCHNCHSH3C3H3CHCH2CHCH2C2H5C2HCH3CSH2NHCHCH2CHC2H2CH7CHCHCH2CH2CHC3H7CHCH2CHC2HSH3NCHCSCH4CH2C2H2C2H7FeCSHCHCHC2S2C2H4C2H4CH3C6H5FeHCH8SH3CHCHCHCH3CHCFeH4CH5SCH2SHC4H8CH4C2H2C3HCH7SHC2HC3H8C2FeCH7CNH2C2N2HCHNH2SHCH2CH4FeSH5C6H7FeHSH2FeH2CSH3CFeHC6H5CHC3H6FeCNH3CH3NC3H3C2H2SH2CH2NH3C3H3NC11H4CH15CH2SC3HCSHC3SHC2H6CH3SC3HCSH8CH2CHFeHSHCSH5CH4SHSH3SH7CH2CHC2H2CH5C6HCHCHCHCH2CH3CH4CH3C3HCHCHNH3CHC2H5CHCHCHCH3CH3C2H3NCH2CH3CH3CH9C2SHCH4FeHSHCNH2CH8CHCH2CH4C2HC2SH3CHCH2CHSHNHFeHSH8C2H2CH3C3H2C2H2C3H5C2HC4H8CH3C2H2C2HCHCHCHFeCH5CSH4CH5CH2C2H2CH5C2HCFeCH3CH6C4H8CHNC2H3NH3C2HCH6SCH5SCH2CH6FeHCS2H2CH5CH2CH3CHCHCHCFeHSHSH3SH2CHSH4C2HCHCNHCH2CH2C6H4CH3CH6C2H2C2H3C2H4NHCNC3NCH2CHC3HC2H6C2H3C2HFeHCH4CH4CHCHCHSH2SHCNHCHFeH2C2HCHC2SHCH3CSH2CHCH8CH4CHCH2C2HFeNH2CH4SH3NC3H3CH3CH9C3SHC2H9C2H3CH3CFeH4CH4CH3SHCHCHCHC5SCHCH2CH4CH2CH4CHFeHCH2C2FeCHFeH5SHFeS2H4SCSH2SFeSFeSH2FeS2FeS2FeSFeS2HCHFeS2C6H4NH2C2HC6H2CHC2HCHFeC2SH2C6H3NCH3CH4C3HC2H2CH2CHCHCHC4HCH13CHNC4HC4HCH14CHS2H3CH6CH2CH2SNH2SHC2NC12H19CH2NH3C2HC3HCH2CHCH3CH2SH2CFeH2FeHCHCHC3NH10C2H5SHC2HCH5CH4SHCH9CNSH2SCSH2S2NC3HSH6CH4CH2CH5CH3CHCHCH2CHCHFeHCH5C4HC4HSHCHC2SCHCH3C3H2C5H2CH2CHC2H3CH2CH2CH4CH4SC2FeSFeS4HCFeS2FeS2C7H3C3H2C6H8C4HC2HC3HC3FeHSHCHSCS2HSFeSHFeS2FeS2C3HC2H4CH3C5H4CHC2HFeSH2NC7H12CHNC5HC6H22C2H5CHCHFeHSCFeHSNCH2FeHNC10H30NCFeH2CH9CH2FeH2C3H2CHC4HCH5CSFeH3CHCH2CSCHCHCSCHCH2SH4CH5CSH3CH4CH5CH2FeH3SC2HFeH3CHSCH2CH2CNCFeHCH3FeHCH2CHCH3CHCHSC2H4CHCHC3H5SHCSH3C2H3CH5FeHSH2FeSH2CSFeS2FeSFeS3CSCSCFeS2FeS2FeSFeS3HSCFeS2C6H4FeCH2C7SH2SC6H4C6H5CH3C6H3SHCHSHCHSC5HCH3NC12H27CNC6HC4H13CH6CHCH6FeCNC11H35SCHSHC4H2C3H3CHFeH2CH2CH2CHCHNH2C2H2CHC2H2C2H5S2CSH2SH2CH7CH3CH3CH3CFeCH6CH3C2H2CHNHCHFeCH2NFeH2CH2C3SFeHC2H2C2H2CHCH2FeH2CHSH2CHC2H4SCS2H3CSC2H2CH3NCH2SH2C2HC2H6CFeHC2H2C3HCH3CH2
_chemical_formula_sum              "Fe128 S256 H2048 C1152 N64"
_cell_length_a       45.2047
_cell_length_b       44.7912
_cell_length_c       50.3973
_cell_angle_alpha    90.0902
_cell_angle_beta     90.0196
_cell_angle_gamma    86.693

_space_group_name_H-M_alt    "P 1"
_space_group_IT_number       1

loop_
  _space_group_symop_operation_xyz
  'x, y, z'

loop_
  _atom_site_type_symbol
  _atom_site_label
  _atom_site_symmetry_multiplicity
  _atom_site_fract_x
  _atom_site_fract_y
  _atom_site_fract_z
  _atom_site_occupancy
  Fe  Fe1       1.0  0.31068  0.11816  0.22935  1.0000
  S   S1        1.0  0.33276  0.16134  0.23248  1.0000
  S   S2        1.0  0.33820  0.07404  0.22840  1.0000
  Fe  Fe2       1.0  0.24879  0.14998  0.22523  1.0000
  S   S3        1.0  0.26754  0.19536  0.22895  1.0000
  S   S4        1.0  0.19829  0.15104  0.22142  1.0000
  Fe  Fe3       1.0  0.30177  0.17702  0.20014  1.0000
  S   S5        1.0  0.31955  0.20467  0.16690  1.0000
  Fe  Fe4       1.0  0.29660  0.17512  0.26128  1.0000
  H   H1        1.0  0.30574  0.03689  0.14648  1.0000
  S   S6        1.0  0.28182  0.13277  0.19470  1.0000
  S   S7        1.0  0.27562  0.13079  0.25999  1.0000
  C   C1        1.0  0.13230  0.47792  0.24355  1.0000
  C   C2        1.0  0.00704  0.30492  0.17269  1.0000
  Fe  Fe5       1.0  0.34979  0.24311  0.99456  1.0000
  S   S8        1.0  0.01039  0.48787  0.23080  1.0000
  S   S9        1.0  0.35798  0.29271  0.99909  1.0000
  Fe  Fe6       1.0  0.31933  0.18988  0.01609  1.0000
  S   S10       1.0  0.29182  0.17007  0.04822  1.0000
  S   S11       1.0  0.36485  0.20611  0.02249  1.0000
  Fe  Fe7       1.0  0.02222  0.16532  0.08347  1.0000
  S   S12       1.0  0.04202  0.11804  0.08374  1.0000
  H   H2        1.0  0.46528  0.10422  0.97324  1.0000
  Fe  Fe8       1.0  0.02296  0.16884  0.14455  1.0000
  S   S13       1.0  0.04206  0.12188  0.14885  1.0000
  N   N1        1.0  0.12681  0.15821  0.29657  1.0000
  Fe  Fe9       1.0  0.07243  0.13423  0.11597  1.0000
  S   S14       1.0  0.12219  0.12238  0.11831  1.0000
  Fe  Fe10      1.0  0.00974  0.11068  0.11687  1.0000
  H   H3        1.0  0.37953  0.48899  0.19553  1.0000
  S   S15       1.0  0.05481  0.18221  0.11313  1.0000
  C   C3        1.0  0.22213  0.46271  0.11086  1.0000
  C   C4        1.0  0.39206  0.06401  0.97927  1.0000
  S   S16       1.0  0.14059  0.50383  0.97528  1.0000
  Fe  Fe11      1.0  0.37484  0.48121  0.10395  1.0000
  S   S17       1.0  0.33051  0.50541  0.10868  1.0000
  Fe  Fe12      1.0  0.34784  0.41948  0.10748  1.0000
  S   S18       1.0  0.30184  0.44054  0.11301  1.0000
  S   S19       1.0  0.35105  0.36840  0.10677  1.0000
  Fe  Fe13      1.0  0.31430  0.47137  0.08023  1.0000
  S   S20       1.0  0.28360  0.48489  0.04598  1.0000
  Fe  Fe14      1.0  0.32296  0.47214  0.14122  1.0000
  S   S21       1.0  0.30252  0.49213  0.17928  1.0000
  S   S22       1.0  0.35925  0.44883  0.07352  1.0000
  S   S23       1.0  0.36843  0.44932  0.13795  1.0000
  C   C5        1.0  0.30896  0.45831  0.26560  1.0000
  C   C6        1.0  0.32076  0.44038  0.24477  1.0000
  C   C7        1.0  0.31903  0.45036  0.21822  1.0000
  C   C8        1.0  0.30544  0.47838  0.21226  1.0000
  C   C9        1.0  0.29349  0.49620  0.23310  1.0000
  C   C10       1.0  0.29524  0.48626  0.25961  1.0000
  H   H4        1.0  0.33126  0.41866  0.24921  1.0000
  H   H5        1.0  0.32802  0.43638  0.20233  1.0000
  S   S24       1.0  0.00160  0.19146  0.04862  1.0000
  S   S25       1.0  0.47868  0.07234  0.21833  1.0000
  C   C11       1.0  0.32406  0.46127  0.00973  1.0000
  C   C12       1.0  0.29924  0.48070  0.01395  1.0000
  C   C13       1.0  0.28672  0.49668  0.99234  1.0000
  H   H6        1.0  0.33301  0.44771  0.02570  1.0000
  H   H7        1.0  0.25783  0.39007  0.99660  1.0000
  C   C14       1.0  0.28800  0.34380  0.97066  1.0000
  C   C15       1.0  0.03636  0.16802  0.00732  1.0000
  C   C16       1.0  0.01154  0.18611  0.01483  1.0000
  H   H8        1.0  0.01400  0.42385  0.13792  1.0000
  H   H9        1.0  0.04974  0.15644  0.02232  1.0000
  H   H10       1.0  0.28570  0.50009  0.27535  1.0000
  C   C17       1.0  0.01554  0.18467  0.21128  1.0000
  H   H11       1.0  0.07768  0.27194  0.18576  1.0000
  C   C18       1.0  0.00612  0.18824  0.25879  1.0000
  C   C19       1.0  0.02402  0.16217  0.26300  1.0000
  C   C20       1.0  0.03789  0.14759  0.24135  1.0000
  C   C21       1.0  0.03393  0.15899  0.21561  1.0000
  H   H12       1.0  0.20127  0.52150  0.30071  1.0000
  H   H13       1.0  0.28460  0.41708  0.99123  1.0000
  H   H14       1.0  0.05170  0.12739  0.24447  1.0000
  H   H15       1.0  0.04527  0.14791  0.19921  1.0000
  H   H16       1.0  0.27892  0.11127  0.97164  1.0000
  H   H17       1.0  0.00500  0.06893  0.17892  1.0000
  C   C22       1.0  0.03365  0.45025  0.07692  1.0000
  H   H18       1.0  0.37583  0.10494  0.04490  1.0000
  H   H19       1.0  0.12634  0.46536  0.09035  1.0000
  C   C23       1.0  0.17974  0.46383  0.28598  1.0000
  H   H20       1.0  0.26946  0.24015  0.07074  1.0000
  C   C24       1.0  0.35299  0.34755  0.07670  1.0000
  C   C25       1.0  0.36269  0.36003  0.05305  1.0000
  C   C26       1.0  0.36458  0.34272  0.02966  1.0000
  C   C27       1.0  0.35646  0.31289  0.02949  1.0000
  C   C28       1.0  0.34680  0.30033  0.05316  1.0000
  C   C29       1.0  0.34525  0.31755  0.07666  1.0000
  H   H21       1.0  0.36907  0.38292  0.05282  1.0000
  H   H22       1.0  0.37237  0.35254  0.01155  1.0000
  H   H23       1.0  0.34050  0.27739  0.05334  1.0000
  H   H24       1.0  0.33774  0.30764  0.09480  1.0000
  C   C30       1.0  0.17800  0.14355  0.19208  1.0000
  C   C31       1.0  0.19081  0.12771  0.17062  1.0000
  C   C32       1.0  0.17341  0.12099  0.14833  1.0000
  C   C33       1.0  0.14316  0.13034  0.14708  1.0000
  C   C34       1.0  0.13047  0.14643  0.16841  1.0000
  C   C35       1.0  0.14776  0.15285  0.19074  1.0000
  H   H25       1.0  0.21395  0.12011  0.17141  1.0000
  H   H26       1.0  0.18341  0.10831  0.13206  1.0000
  H   H27       1.0  0.10726  0.15382  0.16776  1.0000
  H   H28       1.0  0.13748  0.16499  0.20709  1.0000
  C   C36       1.0  0.31286  0.19391  0.13401  1.0000
  C   C37       1.0  0.32522  0.20974  0.11317  1.0000
  C   C38       1.0  0.31958  0.20209  0.08670  1.0000
  C   C39       1.0  0.30148  0.17863  0.08099  1.0000
  C   C40       1.0  0.28967  0.16243  0.10182  1.0000
  C   C41       1.0  0.29536  0.17003  0.12825  1.0000
  H   H29       1.0  0.33896  0.22813  0.11747  1.0000
  H   H30       1.0  0.32851  0.21493  0.07075  1.0000
  H   H31       1.0  0.27586  0.14410  0.09748  1.0000
  H   H32       1.0  0.28579  0.15765  0.14406  1.0000
  H   H33       1.0  0.45740  0.05907  0.13569  1.0000
  H   H34       1.0  0.41554  0.47938  0.24704  1.0000
  Fe  Fe15      1.0  0.04253  0.46893  0.00702  1.0000
  C   C42       1.0  0.37741  0.07342  0.22705  1.0000
  C   C43       1.0  0.39377  0.04614  0.22300  1.0000
  H   H35       1.0  0.33709  0.37583  0.97651  1.0000
  H   H36       1.0  0.06235  0.30779  0.19705  1.0000
  C   C44       1.0  0.19971  0.47350  0.02397  1.0000
  C   C45       1.0  0.03042  0.27915  0.17913  1.0000
  C   C46       1.0  0.29962  0.38234  0.01751  1.0000
  H   H37       1.0  0.00975  0.28038  0.12372  1.0000
  H   H38       1.0  0.38495  0.47344  0.02759  1.0000
  H   H39       1.0  0.20820  0.43947  0.07643  1.0000
  H   H40       1.0  0.09865  0.11042  0.27014  1.0000
  H   H41       1.0  0.00960  0.52200  0.28538  1.0000
  H   H42       1.0  0.41611  0.51275  0.96945  1.0000
  H   H43       1.0  0.03116  0.39749  0.99276  1.0000
  S   S26       1.0  0.41895  0.14936  0.98271  1.0000
  H   H44       1.0  0.07017  0.49494  0.11922  1.0000
  C   C47       1.0  0.10835  0.46349  0.22731  1.0000
  H   H45       1.0  0.99347  0.25097  0.08578  1.0000
  H   H46       1.0  0.38135  0.45631  0.21663  1.0000
  H   H47       1.0  0.99674  0.22806  0.11505  1.0000
  H   H48       1.0  0.21288  0.47674  0.12742  1.0000
  H   H49       1.0  0.10543  0.23106  0.23005  1.0000
  C   C48       1.0  0.00182  0.19940  0.23297  1.0000
  H   H50       1.0  0.06405  0.15203  0.97480  1.0000
  H   H51       1.0  0.22165  0.43157  0.01047  1.0000
  C   C49       1.0  0.43965  0.05180  0.14902  1.0000
  H   H52       1.0  0.29599  0.07527  0.15518  1.0000
  H   H53       1.0  0.10607  0.48615  0.27891  1.0000
  H   H54       1.0  0.46843  0.08827  0.03398  1.0000
  H   H55       1.0  0.17991  0.43599  0.04150  1.0000
  S   S27       1.0  0.03008  0.14764  0.29505  1.0000
  C   C50       1.0  0.41818  0.11001  0.97974  1.0000
  C   C51       1.0  0.15619  0.51556  0.28625  1.0000
  C   C52       1.0  0.44505  0.06173  0.97259  1.0000
  H   H56       1.0  0.19251  0.15556  0.29134  1.0000
  H   H57       1.0  0.13345  0.21720  0.27050  1.0000
  C   C53       1.0  0.41889  0.50538  0.01876  1.0000
  H   H58       1.0  0.98786  0.21949  0.22987  1.0000
  H   H59       1.0  0.41374  0.46653  0.19882  1.0000
  H   H60       1.0  0.17417  0.44122  0.27894  1.0000
  C   C54       1.0  0.18062  0.17751  0.29546  1.0000
  H   H61       1.0  0.39393  0.17687  0.19826  1.0000
  H   H62       1.0  0.03103  0.26155  0.16362  1.0000
  C   C55       1.0  0.04260  0.45998  0.13198  1.0000
  H   H63       1.0  0.39676  0.06723  0.11516  1.0000
  C   C56       1.0  0.39180  0.09533  0.98185  1.0000
  H   H64       1.0  0.05235  0.36252  0.99847  1.0000
  H   H65       1.0  0.48565  0.05772  0.27678  1.0000
  H   H66       1.0  0.38008  0.35661  0.16016  1.0000
  H   H67       1.0  0.00661  0.41488  0.08970  1.0000
  S   S28       1.0  0.00901  0.19868  0.17907  1.0000
  H   H68       1.0  0.08631  0.17072  0.27558  1.0000
  C   C57       1.0  0.47087  0.14600  0.03651  1.0000
  H   H69       1.0  0.15418  0.46782  0.23725  1.0000
  H   H70       1.0  0.08150  0.20073  0.23474  1.0000
  H   H71       1.0  0.39293  0.12597  0.17964  1.0000
  H   H72       1.0  0.32405  0.05387  0.17388  1.0000
  C   C58       1.0  0.19750  0.45327  0.09239  1.0000
  C   C59       1.0  0.40343  0.29396  0.15984  1.0000
  H   H73       1.0  0.11250  0.38537  0.08291  1.0000
  C   C60       1.0  0.10928  0.41013  0.08317  1.0000
  H   H74       1.0  0.01413  0.31647  0.15442  1.0000
  H   H75       1.0  0.16433  0.51843  0.26564  1.0000
  Fe  Fe16      1.0  0.99610  0.40328  0.23651  1.0000
  C   C61       1.0  0.23138  0.44359  0.29910  1.0000
  C   C62       1.0  0.40581  0.47424  0.01630  1.0000
  H   H76       1.0  0.18288  0.43944  0.10429  1.0000
  C   C63       1.0  0.33691  0.45848  0.98453  1.0000
  H   H77       1.0  0.15252  0.11727  0.28744  1.0000
  H   H78       1.0  0.21699  0.47665  0.03918  1.0000
  H   H79       1.0  0.13394  0.41618  0.04754  1.0000
  C   C64       1.0  0.39372  0.47549  0.20961  1.0000
  C   C65       1.0  0.37377  0.12861  0.05160  1.0000
  H   H80       1.0  0.42092  0.17121  0.17214  1.0000
  H   H81       1.0  0.35040  0.13728  0.04934  1.0000
  H   H82       1.0  0.38782  0.14183  0.03851  1.0000
  H   H83       1.0  0.24844  0.23822  0.04033  1.0000
  H   H84       1.0  0.41934  0.30810  0.12122  1.0000
  H   H85       1.0  0.13081  0.50231  0.03198  1.0000
  H   H86       1.0  0.42709  0.09577  0.16288  1.0000
  H   H87       1.0  0.23848  0.47544  0.09972  1.0000
  C   C66       1.0  0.39257  0.09958  0.22964  1.0000
  N   N2        1.0  0.34913  0.30503  0.17546  1.0000
  C   C67       1.0  0.34917  0.27789  0.19316  1.0000
  C   C68       1.0  0.35857  0.33113  0.19176  1.0000
  C   C69       1.0  0.31871  0.31280  0.16423  1.0000
  C   C70       1.0  0.30369  0.28704  0.14972  1.0000
  C   C71       1.0  0.32590  0.27906  0.21588  1.0000
  C   C72       1.0  0.36361  0.36032  0.17629  1.0000
  C   C73       1.0  0.27356  0.29776  0.13843  1.0000
  C   C74       1.0  0.32878  0.25074  0.23281  1.0000
  C   C75       1.0  0.37514  0.38415  0.19476  1.0000
  H   H88       1.0  0.34620  0.25739  0.18124  1.0000
  H   H89       1.0  0.34152  0.33738  0.20699  1.0000
  H   H90       1.0  0.30338  0.32167  0.18004  1.0000
  H   H91       1.0  0.31976  0.33133  0.14960  1.0000
  H   H92       1.0  0.29998  0.26826  0.16337  1.0000
  H   H93       1.0  0.31735  0.27832  0.13287  1.0000
  H   H94       1.0  0.32893  0.29825  0.22932  1.0000
  H   H95       1.0  0.30300  0.28099  0.20795  1.0000
  H   H96       1.0  0.34254  0.36958  0.16746  1.0000
  H   H97       1.0  0.25845  0.30588  0.15459  1.0000
  H   H98       1.0  0.27615  0.31601  0.12384  1.0000
  H   H99       1.0  0.26347  0.27889  0.12814  1.0000
  H   H100      1.0  0.31165  0.25180  0.24865  1.0000
  H   H101      1.0  0.32554  0.23065  0.22049  1.0000
  H   H102      1.0  0.35091  0.24836  0.24241  1.0000
  H   H103      1.0  0.35938  0.38898  0.21132  1.0000
  H   H104      1.0  0.39711  0.37663  0.20300  1.0000
  H   H105      1.0  0.36856  0.15779  0.12969  1.0000
  C   C76       1.0  0.09523  0.21688  0.24518  1.0000
  C   C77       1.0  0.17943  0.48093  0.08141  1.0000
  H   H106      1.0  0.38054  0.12060  0.23328  1.0000
  H   H107      1.0  0.19194  0.47353  0.26914  1.0000
  H   H108      1.0  0.23389  0.44253  0.11947  1.0000
  H   H109      1.0  0.41689  0.42776  0.02599  1.0000
  H   H110      1.0  0.43160  0.45406  0.04888  1.0000
  H   H111      1.0  0.42046  0.09710  0.11537  1.0000
  H   H112      1.0  0.15580  0.45678  0.01992  1.0000
  H   H113      1.0  0.11183  0.46755  0.20582  1.0000
  H   H114      1.0  0.37155  0.05284  0.98101  1.0000
  H   H115      1.0  0.28289  0.41980  0.04202  1.0000
  C   C78       1.0  0.13478  0.42387  0.06850  1.0000
  S   S29       1.0  0.07548  0.45007  0.97692  1.0000
  N   N3        1.0  0.15773  0.47541  0.05941  1.0000
  H   H116      1.0  0.29912  0.38848  0.06025  1.0000
  H   H117      1.0  0.99583  0.06013  0.21292  1.0000
  C   C79       1.0  0.10609  0.18137  0.28355  1.0000
  C   C80       1.0  0.44480  0.09305  0.97513  1.0000
  H   H118      1.0  0.02566  0.26861  0.19846  1.0000
  H   H119      1.0  0.38646  0.19290  0.16600  1.0000
  N   N4        1.0  0.19611  0.19582  0.09760  1.0000
  C   C81       1.0  0.18536  0.16684  0.08683  1.0000
  C   C82       1.0  0.16946  0.21769  0.09968  1.0000
  C   C83       1.0  0.21850  0.20698  0.07815  1.0000
  C   C84       1.0  0.21022  0.18945  0.12427  1.0000
  C   C85       1.0  0.22205  0.21648  0.13920  1.0000
  C   C86       1.0  0.20960  0.14179  0.08054  1.0000
  C   C87       1.0  0.22161  0.24128  0.07644  1.0000
  C   C88       1.0  0.14427  0.20878  0.11859  1.0000
  C   C89       1.0  0.11970  0.23362  0.12040  1.0000
  C   C90       1.0  0.23071  0.20812  0.16764  1.0000
  C   C91       1.0  0.19599  0.11498  0.06747  1.0000
  C   C92       1.0  0.24897  0.24857  0.06038  1.0000
  H   H120      1.0  0.17212  0.17117  0.06841  1.0000
  H   H121      1.0  0.17019  0.15681  0.10111  1.0000
  H   H122      1.0  0.17586  0.23998  0.10634  1.0000
  H   H123      1.0  0.15949  0.22142  0.07962  1.0000
  H   H124      1.0  0.21320  0.20006  0.05748  1.0000
  H   H125      1.0  0.24080  0.19625  0.08227  1.0000
  H   H126      1.0  0.19474  0.17812  0.13749  1.0000
  H   H127      1.0  0.22956  0.17318  0.12224  1.0000
  H   H128      1.0  0.20535  0.23550  0.14035  1.0000
  H   H129      1.0  0.24231  0.22369  0.12917  1.0000
  H   H130      1.0  0.22675  0.14959  0.06686  1.0000
  H   H131      1.0  0.22063  0.13357  0.09901  1.0000
  H   H132      1.0  0.22346  0.25178  0.09618  1.0000
  H   H133      1.0  0.20187  0.25194  0.06632  1.0000
  H   H134      1.0  0.13381  0.18852  0.11133  1.0000
  H   H135      1.0  0.15263  0.20457  0.13901  1.0000
  H   H136      1.0  0.10217  0.22666  0.13416  1.0000
  H   H137      1.0  0.12852  0.25455  0.12819  1.0000
  H   H138      1.0  0.10951  0.23792  0.10060  1.0000
  H   H139      1.0  0.21096  0.20212  0.17917  1.0000
  H   H140      1.0  0.24733  0.18890  0.16788  1.0000
  H   H141      1.0  0.24057  0.22739  0.17749  1.0000
  H   H142      1.0  0.17890  0.10589  0.08059  1.0000
  H   H143      1.0  0.18564  0.12153  0.04819  1.0000
  H   H144      1.0  0.21353  0.09707  0.06377  1.0000
  H   H145      1.0  0.24976  0.27316  0.05807  1.0000
  H   H146      1.0  0.01029  0.33448  0.98120  1.0000
  C   C93       1.0  0.35059  0.09801  0.14399  1.0000
  H   H147      1.0  0.40752  0.27433  0.17301  1.0000
  H   H148      1.0  0.13339  0.18641  0.24761  1.0000
  H   H149      1.0  0.38280  0.46337  0.28070  1.0000
  H   H150      1.0  0.34186  0.12568  0.09952  1.0000
  H   H151      1.0  0.14047  0.07719  0.25454  1.0000
  H   H152      1.0  0.37118  0.27394  0.20281  1.0000
  H   H153      1.0  0.37903  0.32480  0.20323  1.0000
  N   N5        1.0  0.15182  0.48298  0.29189  1.0000
  H   H154      1.0  0.36107  0.09171  0.08994  1.0000
  H   H155      1.0  0.44074  0.02866  0.27431  1.0000
  C   C94       1.0  0.37010  0.29824  0.15266  1.0000
  H   H156      1.0  0.36441  0.27730  0.14244  1.0000
  H   H157      1.0  0.39917  0.06872  0.16704  1.0000
  H   H158      1.0  0.45299  0.04420  0.03213  1.0000
  C   C95       1.0  0.36418  0.11374  0.09947  1.0000
  C   C96       1.0  0.38388  0.13140  0.08041  1.0000
  H   H159      1.0  0.19345  0.49545  0.01485  1.0000
  H   H160      1.0  0.33159  0.11505  0.14441  1.0000
  H   H161      1.0  0.35856  0.51288  0.01718  1.0000
  C   C97       1.0  0.13920  0.13527  0.27684  1.0000
  C   C98       1.0  0.42358  0.09874  0.22730  1.0000
  C   C99       1.0  0.33844  0.06802  0.13478  1.0000
  H   H162      1.0  0.36756  0.31590  0.13720  1.0000
  H   H163      1.0  0.23314  0.46438  0.99372  1.0000
  H   H164      1.0  0.41782  0.51125  0.22566  1.0000
  H   H165      1.0  0.10818  0.41776  0.10416  1.0000
  H   H166      1.0  0.35712  0.09494  0.16510  1.0000
  H   H167      1.0  0.41150  0.31395  0.16991  1.0000
  N   N6        1.0  0.37548  0.10951  0.12759  1.0000
  H   H168      1.0  0.41563  0.26821  0.12427  1.0000
  H   H169      1.0  0.30150  0.35766  0.01954  1.0000
  H   H170      1.0  0.35633  0.05001  0.13415  1.0000
  C   C100      1.0  0.05606  0.47761  0.11281  1.0000
  H   H171      1.0  0.35861  0.14704  0.17485  1.0000
  C   C101      1.0  0.42215  0.28862  0.13484  1.0000
  C   C102      1.0  0.38379  0.13966  0.13797  1.0000
  C   C103      1.0  0.17233  0.45916  0.03613  1.0000
  H   H172      1.0  0.44593  0.28556  0.14031  1.0000
  S   S30       1.0  0.05080  0.46538  0.16614  1.0000
  C   C104      1.0  0.38216  0.14471  0.16844  1.0000
  H   H173      1.0  0.35512  0.03168  0.26989  1.0000
  H   H174      1.0  0.34231  0.10560  0.29303  1.0000
  Fe  Fe17      1.0  0.02346  0.45116  0.20174  1.0000
  H   H175      1.0  0.42340  0.50952  0.04015  1.0000
  H   H176      1.0  0.32809  0.07030  0.11487  1.0000
  C   C105      1.0  0.42707  0.44969  0.02758  1.0000
  H   H177      1.0  0.37123  0.10800  0.98567  1.0000
  H   H178      1.0  0.08069  0.23142  0.25818  1.0000
  H   H179      1.0  0.06151  0.48693  0.07096  1.0000
  C   C106      1.0  0.39683  0.17322  0.17658  1.0000
  S   S31       1.0  0.31307  0.20123  0.29673  1.0000
  C   C107      1.0  0.02019  0.43266  0.09608  1.0000
  H   H180      1.0  0.40638  0.14463  0.13105  1.0000
  H   H181      1.0  0.42971  0.03182  0.14045  1.0000
  C   C108      1.0  0.00403  0.07756  0.19961  1.0000
  C   C109      1.0  0.40211  0.08753  0.12656  1.0000
  C   C110      1.0  0.41591  0.07715  0.15333  1.0000
  C   C111      1.0  0.28513  0.39503  0.04284  1.0000
  H   H182      1.0  0.12328  0.44954  0.27660  1.0000
  H   H183      1.0  0.37767  0.40514  0.18351  1.0000
  S   S32       1.0  0.41662  0.50621  0.09658  1.0000
  H   H184      1.0  0.11492  0.08669  0.22793  1.0000
  H   H185      1.0  0.38250  0.15556  0.08560  1.0000
  C   C112      1.0  0.35195  0.03025  0.29167  1.0000
  H   H186      1.0  0.06789  0.30082  0.16190  1.0000
  S   S33       1.0  0.30328  0.22830  0.99039  1.0000
  H   H187      1.0  0.14962  0.10436  0.22982  1.0000
  H   H188      1.0  0.10601  0.13744  0.24492  1.0000
  H   H189      1.0  0.47900  0.16886  0.03813  1.0000
  H   H190      1.0  0.00439  0.28998  0.25235  1.0000
  S   S34       1.0  0.04185  0.42062  0.23408  1.0000
  H   H191      1.0  0.40744  0.12329  0.08121  1.0000
  C   C113      1.0  0.40284  0.49443  0.23319  1.0000
  Fe  Fe18      1.0  0.09106  0.49677  0.97459  1.0000
  C   C114      1.0  0.42490  0.04524  0.22088  1.0000
  C   C115      1.0  0.43990  0.07167  0.22273  1.0000
  H   H192      1.0  0.08790  0.41639  0.07325  1.0000
  H   H193      1.0  0.30906  0.33357  0.97906  1.0000
  H   H194      1.0  0.01868  0.37129  0.01670  1.0000
  H   H195      1.0  0.44091  0.50292  0.00891  1.0000
  H   H196      1.0  0.42113  0.50314  0.28609  1.0000
  H   H197      1.0  0.36467  0.52509  0.23149  1.0000
  H   H198      1.0  0.00883  0.32177  0.18878  1.0000
  Fe  Fe19      1.0  0.02719  0.52447  0.97372  1.0000
  C   C116      1.0  0.11638  0.12055  0.25869  1.0000
  H   H199      1.0  0.11145  0.46464  0.05780  1.0000
  H   H200      1.0  0.24233  0.45893  0.28540  1.0000
  H   H201      1.0  0.15493  0.14502  0.26293  1.0000
  C   C117      1.0  0.21379  0.45357  0.00220  1.0000
  C   C118      1.0  0.14549  0.50545  0.04943  1.0000
  C   C119      1.0  0.01163  0.35833  0.97569  1.0000
  S   S35       1.0  0.05013  0.47188  0.29811  1.0000
  C   C120      1.0  0.12731  0.47361  0.27376  1.0000
  C   C121      1.0  0.13135  0.09569  0.24176  1.0000
  H   H202      1.0  0.37754  0.51133  0.97444  1.0000
  C   C122      1.0  0.06147  0.29077  0.18104  1.0000
  H   H203      1.0  0.43497  0.11927  0.22890  1.0000
  C   C123      1.0  0.04443  0.16557  0.98037  1.0000
  H   H204      1.0  0.26291  0.38618  0.04567  1.0000
  C   C124      1.0  0.05127  0.47309  0.08545  1.0000
  H   H205      1.0  0.42573  0.52390  0.15910  1.0000
  S   S36       1.0  0.02954  0.44137  0.04274  1.0000
  C   C125      1.0  0.13185  0.45858  0.06956  1.0000
  H   H206      1.0  0.15577  0.41471  0.07727  1.0000
  H   H207      1.0  0.19525  0.49773  0.07506  1.0000
  C   C126      1.0  0.11954  0.20026  0.26145  1.0000
  C   C127      1.0  0.47575  0.04874  0.29507  1.0000
  H   H208      1.0  0.10913  0.43895  0.23065  1.0000
  C   C128      1.0  0.47762  0.09268  0.05393  1.0000
  H   H209      1.0  0.40143  0.46873  0.99524  1.0000
  C   C129      1.0  0.02434  0.43769  0.12344  1.0000
  H   H210      1.0  0.13103  0.50204  0.23839  1.0000
  H   H211      1.0  0.26734  0.51162  0.99533  1.0000
  Fe  Fe20      1.0  0.02432  0.45550  0.26296  1.0000
  C   C130      1.0  0.37531  0.51012  0.24676  1.0000
  C   C131      1.0  0.99440  0.20100  0.99505  1.0000
  Fe  Fe21      1.0  0.37671  0.17925  0.98577  1.0000
  C   C132      1.0  0.31460  0.05801  0.15378  1.0000
  C   C133      1.0  0.12758  0.52526  0.06986  1.0000
  H   H212      1.0  0.35886  0.49312  0.25063  1.0000
  H   H213      1.0  0.19762  0.45025  0.98599  1.0000
  H   H214      1.0  0.16357  0.51919  0.04230  1.0000
  S   S37       1.0  0.33221  0.16059  0.98144  1.0000
  H   H215      1.0  0.44739  0.14672  0.04313  1.0000
  H   H216      1.0  0.34153  0.05184  0.29872  1.0000
  H   H217      1.0  0.32224  0.39067  0.01656  1.0000
  S   S38       1.0  0.06011  0.51488  0.00679  1.0000
  H   H218      1.0  0.35617  0.44333  0.98162  1.0000
  H   H219      1.0  0.33761  0.51978  0.28695  1.0000
  C   C134      1.0  0.28177  0.39267  0.99250  1.0000
  C   C135      1.0  0.46618  0.02695  0.04342  1.0000
  H   H220      1.0  0.02686  0.08237  0.20583  1.0000
  S   S39       1.0  0.99406  0.35238  0.23942  1.0000
  H   H221      1.0  0.98909  0.36948  0.97620  1.0000
  H   H222      1.0  0.08601  0.47328  0.23278  1.0000
  H   H223      1.0  0.16773  0.49121  0.09886  1.0000
  C   C136      1.0  0.39762  0.50797  0.29203  1.0000
  H   H224      1.0  0.27074  0.33939  0.98574  1.0000
  H   H225      1.0  0.99086  0.25928  0.29109  1.0000
  C   C137      1.0  0.02965  0.37330  0.99711  1.0000
  S   S40       1.0  0.31177  0.44493  0.29872  1.0000
  H   H226      1.0  0.00408  0.06255  0.05371  1.0000
  C   C138      1.0  0.48245  0.03993  0.06754  1.0000
  H   H227      1.0  0.46595  0.04432  0.08373  1.0000
  H   H228      1.0  0.17629  0.18890  0.27626  1.0000
  H   H229      1.0  0.44827  0.44839  0.01640  1.0000
  H   H230      1.0  0.45791  0.09410  0.06725  1.0000
  C   C139      1.0  0.38392  0.47788  0.29848  1.0000
  H   H231      1.0  0.99581  0.19998  0.27542  1.0000
  H   H232      1.0  0.47207  0.13916  0.01534  1.0000
  H   H233      1.0  0.99402  0.12287  0.18828  1.0000
  H   H234      1.0  0.22246  0.19848  0.29992  1.0000
  H   H235      1.0  0.10875  0.51350  0.07819  1.0000
  C   C140      1.0  0.99238  0.30050  0.26875  1.0000
  H   H236      1.0  0.45001  0.04525  0.16827  1.0000
  S   S41       1.0  0.00773  0.47977  0.97590  1.0000
  H   H237      1.0  0.37886  0.11845  0.29840  1.0000
  H   H238      1.0  0.09704  0.19788  0.29834  1.0000
  H   H239      1.0  0.22780  0.42225  0.28864  1.0000
  C   C141      1.0  0.41869  0.04704  0.97476  1.0000
  S   S42       1.0  0.98858  0.15683  0.11502  1.0000
  H   H240      1.0  0.28271  0.51782  0.22867  1.0000
  H   H241      1.0  0.99504  0.03961  0.27958  1.0000
  C   C142      1.0  0.39648  0.52581  0.97773  1.0000
  H   H242      1.0  0.39553  0.04306  0.30215  1.0000
  Fe  Fe22      1.0  0.30657  0.20171  0.45512  1.0000
  S   S43       1.0  0.27973  0.18878  0.41896  1.0000
  S   S44       1.0  0.35107  0.22135  0.45494  1.0000
  C   C143      1.0  0.14123  0.47981  0.32011  1.0000
  H   H243      1.0  0.00637  0.43185  0.31756  1.0000
  S   S45       1.0  0.01638  0.20665  0.35349  1.0000
  C   C144      1.0  0.21573  0.49147  0.61586  1.0000
  S   S46       1.0  0.12197  0.50863  0.47520  1.0000
  S   S47       1.0  0.02671  0.16835  0.42449  1.0000
  Fe  Fe23      1.0  0.02336  0.46855  0.44795  1.0000
  Fe  Fe24      1.0  0.30908  0.47627  0.39620  1.0000
  H   H244      1.0  0.46318  0.03544  0.60412  1.0000
  S   S48       1.0  0.32881  0.45065  0.43130  1.0000
  Fe  Fe25      1.0  0.30123  0.47369  0.33535  1.0000
  H   H245      1.0  0.38814  0.03296  0.53443  1.0000
  S   S49       1.0  0.28792  0.52278  0.39920  1.0000
  H   H246      1.0  0.37950  0.11537  0.54914  1.0000
  S   S50       1.0  0.33853  0.48634  0.36186  1.0000
  S   S51       1.0  0.27406  0.45844  0.36981  1.0000
  H   H247      1.0  0.36336  0.16774  0.58712  1.0000
  H   H248      1.0  0.15623  0.46517  0.51375  1.0000
  C   C145      1.0  0.20028  0.19433  0.62310  1.0000
  H   H249      1.0  0.41253  0.13844  0.59540  1.0000
  H   H250      1.0  0.02150  0.39723  0.46740  1.0000
  C   C146      1.0  0.38958  0.03648  0.55626  1.0000
  C   C147      1.0  0.99825  0.19580  0.46801  1.0000
  H   H251      1.0  0.05438  0.14215  0.47070  1.0000
  H   H252      1.0  0.41764  0.13959  0.38569  1.0000
  H   H253      1.0  0.05136  0.30909  0.41075  1.0000
  C   C148      1.0  0.08082  0.14100  0.36035  1.0000
  C   C149      1.0  0.31686  0.46188  0.46329  1.0000
  C   C150      1.0  0.29441  0.48432  0.46679  1.0000
  C   C151      1.0  0.33013  0.44813  0.48567  1.0000
  H   H254      1.0  0.28366  0.49469  0.44976  1.0000
  H   H255      1.0  0.34738  0.43058  0.48316  1.0000
  C   C152      1.0  0.01984  0.17460  0.45887  1.0000
  C   C153      1.0  0.13251  0.50472  0.42091  1.0000
  C   C154      1.0  0.27219  0.31374  0.59961  1.0000
  C   C155      1.0  0.17547  0.50739  0.44916  1.0000
  C   C156      1.0  0.40539  0.05252  0.48155  1.0000
  H   H256      1.0  0.43393  0.09083  0.40227  1.0000
  H   H257      1.0  0.33127  0.10790  0.34051  1.0000
  H   H258      1.0  0.25800  0.31880  0.55859  1.0000
  C   C157      1.0  0.04204  0.47474  0.58647  1.0000
  C   C158      1.0  0.03779  0.25666  0.43485  1.0000
  C   C159      1.0  0.30481  0.19557  0.33070  1.0000
  C   C160      1.0  0.32105  0.21022  0.35012  1.0000
  C   C161      1.0  0.31427  0.20761  0.37729  1.0000
  C   C162      1.0  0.29078  0.19073  0.38527  1.0000
  C   C163      1.0  0.27490  0.17562  0.36590  1.0000
  C   C164      1.0  0.28204  0.17777  0.33875  1.0000
  H   H259      1.0  0.33873  0.22399  0.34407  1.0000
  H   H260      1.0  0.32668  0.21928  0.39198  1.0000
  H   H261      1.0  0.25672  0.16248  0.37191  1.0000
  H   H262      1.0  0.26941  0.16635  0.32403  1.0000
  Fe  Fe26      1.0  0.36382  0.18538  0.48491  1.0000
  S   S52       1.0  0.32023  0.16461  0.48322  1.0000
  Fe  Fe27      1.0  0.33434  0.24882  0.49016  1.0000
  S   S53       1.0  0.28867  0.23134  0.48831  1.0000
  S   S54       1.0  0.33529  0.29970  0.49203  1.0000
  Fe  Fe28      1.0  0.30742  0.19618  0.51628  1.0000
  S   S55       1.0  0.28298  0.17809  0.55124  1.0000
  S   S56       1.0  0.35210  0.21499  0.52003  1.0000
  Fe  Fe29      1.0  0.02417  0.16685  0.58428  1.0000
  S   S57       1.0  0.04739  0.12121  0.58387  1.0000
  S   S58       1.0  0.01008  0.19541  0.54829  1.0000
  H   H263      1.0  0.06183  0.26056  0.43474  1.0000
  Fe  Fe30      1.0  0.07045  0.13567  0.62134  1.0000
  H   H264      1.0  0.46061  0.06652  0.30383  1.0000
  Fe  Fe31      1.0  0.01040  0.10777  0.61074  1.0000
  H   H265      1.0  0.43689  0.47192  0.57285  1.0000
  S   S59       1.0  0.04954  0.18256  0.61995  1.0000
  C   C165      1.0  0.39006  0.49899  0.46212  1.0000
  Fe  Fe32      1.0  0.36766  0.48279  0.61555  1.0000
  S   S60       1.0  0.32126  0.50275  0.61719  1.0000
  Fe  Fe33      1.0  0.34675  0.41973  0.60492  1.0000
  S   S61       1.0  0.29873  0.43564  0.60673  1.0000
  S   S62       1.0  0.35946  0.37032  0.59916  1.0000
  Fe  Fe34      1.0  0.31353  0.47361  0.58187  1.0000
  S   S63       1.0  0.28798  0.49246  0.54665  1.0000
  H   H266      1.0  0.04618  0.08538  0.53007  1.0000
  S   S64       1.0  0.36086  0.45642  0.57821  1.0000
  C   C166      1.0  0.41194  0.52332  0.54907  1.0000
  C   C167      1.0  0.28575  0.49342  0.49244  1.0000
  C   C168      1.0  0.29926  0.48001  0.51481  1.0000
  C   C169      1.0  0.32130  0.45711  0.51136  1.0000
  H   H267      1.0  0.46108  0.50205  0.57867  1.0000
  H   H268      1.0  0.33149  0.44619  0.52841  1.0000
  C   C170      1.0  0.03760  0.15857  0.47756  1.0000
  C   C171      1.0  0.03423  0.16392  0.50502  1.0000
  C   C172      1.0  0.01341  0.18588  0.51411  1.0000
  S   S65       1.0  0.00981  0.43852  0.41440  1.0000
  H   H269      1.0  0.04831  0.15165  0.51907  1.0000
  H   H270      1.0  0.99903  0.09556  0.55528  1.0000
  C   C173      1.0  0.48289  0.05578  0.54119  1.0000
  C   C174      1.0  0.43919  0.50349  0.54002  1.0000
  H   H271      1.0  0.20762  0.18504  0.33055  1.0000
  H   H272      1.0  0.45157  0.10941  0.47344  1.0000
  C   C175      1.0  0.31457  0.10708  0.43477  1.0000
  C   C176      1.0  0.01638  0.44238  0.33430  1.0000
  C   C177      1.0  0.35335  0.35144  0.56886  1.0000
  C   C178      1.0  0.34043  0.36618  0.54691  1.0000
  C   C179      1.0  0.33496  0.35010  0.52352  1.0000
  C   C180      1.0  0.34206  0.31913  0.52191  1.0000
  C   C181      1.0  0.35492  0.30444  0.54387  1.0000
  C   C182      1.0  0.36080  0.32058  0.56709  1.0000
  H   H273      1.0  0.33459  0.38992  0.54799  1.0000
  H   H274      1.0  0.32497  0.36176  0.50674  1.0000
  H   H275      1.0  0.36081  0.28072  0.54281  1.0000
  H   H276      1.0  0.37132  0.30904  0.58368  1.0000
  S   S66       1.0  0.04243  0.52035  0.50653  1.0000
  S   S67       1.0  0.98931  0.48493  0.47780  1.0000
  H   H277      1.0  0.39564  0.50762  0.55639  1.0000
  C   C183      1.0  0.28004  0.17598  0.60512  1.0000
  C   C184      1.0  0.29301  0.18938  0.58331  1.0000
  C   C185      1.0  0.31295  0.21168  0.58758  1.0000
  C   C186      1.0  0.32020  0.21999  0.61363  1.0000
  C   C187      1.0  0.33635  0.05827  0.55799  1.0000
  H   H278      1.0  0.26481  0.15866  0.60202  1.0000
  H   H279      1.0  0.32281  0.22248  0.57090  1.0000
  H   H280      1.0  0.33621  0.23666  0.61683  1.0000
  C   C188      1.0  0.37916  0.06984  0.48680  1.0000
  H   H281      1.0  0.35878  0.11417  0.49190  1.0000
  H   H282      1.0  0.35883  0.05890  0.49036  1.0000
  H   H283      1.0  0.09854  0.18680  0.53096  1.0000
  Fe  Fe35      1.0  0.99869  0.18048  0.38775  1.0000
  H   H284      1.0  0.20492  0.48247  0.50721  1.0000
  H   H285      1.0  0.98918  0.07644  0.49751  1.0000
  H   H286      1.0  0.05180  0.36930  0.33892  1.0000
  H   H287      1.0  0.07121  0.15511  0.37672  1.0000
  H   H288      1.0  0.21766  0.50984  0.42915  1.0000
  H   H289      1.0  0.40590  0.08476  0.36257  1.0000
  C   C189      1.0  0.00769  0.43522  0.36017  1.0000
  H   H290      1.0  0.33264  0.10118  0.38409  1.0000
  C   C190      1.0  0.00464  0.44118  0.59947  1.0000
  S   S68       1.0  0.05679  0.45418  0.47905  1.0000
  H   H291      1.0  0.42672  0.50932  0.48693  1.0000
  H   H292      1.0  0.36269  0.17475  0.40907  1.0000
  H   H293      1.0  0.35623  0.08473  0.42652  1.0000
  H   H294      1.0  0.30188  0.09071  0.42355  1.0000
  H   H295      1.0  0.36805  0.50877  0.45571  1.0000
  C   C191      1.0  0.45080  0.05397  0.55025  1.0000
  H   H296      1.0  0.11446  0.46142  0.36698  1.0000
  H   H297      1.0  0.12115  0.42182  0.36208  1.0000
  C   C192      1.0  0.05159  0.47565  0.35226  1.0000
  H   H298      1.0  0.35813  0.15070  0.35320  1.0000
  H   H299      1.0  0.33499  0.05810  0.53598  1.0000
  H   H300      1.0  0.14495  0.43026  0.31879  1.0000
  H   H301      1.0  0.03952  0.05681  0.55416  1.0000
  H   H302      1.0  0.25955  0.33441  0.60616  1.0000
  H   H303      1.0  0.31695  0.32429  0.60899  1.0000
  C   C193      1.0  0.40219  0.46043  0.31943  1.0000
  H   H304      1.0  0.23243  0.08888  0.57984  1.0000
  H   H305      1.0  0.00329  0.32610  0.35174  1.0000
  N   N7        1.0  0.18869  0.46811  0.54513  1.0000
  C   C194      1.0  0.20507  0.48969  0.52838  1.0000
  C   C195      1.0  0.20158  0.43638  0.54107  1.0000
  C   C196      1.0  0.15693  0.46947  0.53558  1.0000
  C   C197      1.0  0.18863  0.47640  0.57421  1.0000
  C   C198      1.0  0.21915  0.48095  0.58709  1.0000
  H   H306      1.0  0.14342  0.19483  0.31935  1.0000
  C   C199      1.0  0.13619  0.44784  0.54945  1.0000
  C   C200      1.0  0.23541  0.43201  0.53551  1.0000
  C   C201      1.0  0.24624  0.39910  0.53729  1.0000
  C   C202      1.0  0.00871  0.35302  0.43123  1.0000
  H   H307      1.0  0.99848  0.52405  0.63147  1.0000
  C   C203      1.0  0.10589  0.44865  0.53594  1.0000
  H   H308      1.0  0.18321  0.11749  0.63451  1.0000
  H   H309      1.0  0.02482  0.29068  0.39204  1.0000
  H   H310      1.0  0.19644  0.42218  0.55841  1.0000
  H   H311      1.0  0.19094  0.42579  0.52373  1.0000
  H   H312      1.0  0.03249  0.24249  0.41754  1.0000
  C   C204      1.0  0.03109  0.35798  0.33465  1.0000
  H   H313      1.0  0.17413  0.49694  0.57779  1.0000
  H   H314      1.0  0.17849  0.45880  0.58616  1.0000
  H   H315      1.0  0.02555  0.36156  0.48426  1.0000
  H   H316      1.0  0.23264  0.45955  0.58758  1.0000
  H   H317      1.0  0.40412  0.49533  0.44420  1.0000
  H   H318      1.0  0.24651  0.43870  0.31610  1.0000
  H   H319      1.0  0.13248  0.45450  0.57048  1.0000
  H   H320      1.0  0.14548  0.42439  0.54894  1.0000
  H   H321      1.0  0.24040  0.43999  0.51519  1.0000
  H   H322      1.0  0.24872  0.44446  0.54961  1.0000
  H   H323      1.0  0.24349  0.39062  0.55779  1.0000
  H   H324      1.0  0.23383  0.38534  0.52325  1.0000
  H   H325      1.0  0.27019  0.39672  0.53217  1.0000
  H   H326      1.0  0.03284  0.24426  0.45323  1.0000
  H   H327      1.0  0.21004  0.17166  0.62709  1.0000
  C   C205      1.0  0.14463  0.50591  0.44642  1.0000
  H   H328      1.0  0.39700  0.21608  0.41068  1.0000
  C   C206      1.0  0.03930  0.36038  0.44271  1.0000
  H   H329      1.0  0.06867  0.49124  0.34927  1.0000
  H   H330      1.0  0.10820  0.44031  0.51524  1.0000
  H   H331      1.0  0.09088  0.43416  0.54683  1.0000
  C   C207      1.0  0.18175  0.50847  0.40122  1.0000
  C   C208      1.0  0.34632  0.11720  0.39472  1.0000
  H   H332      1.0  0.20704  0.47870  0.31988  1.0000
  C   C209      1.0  0.10930  0.14168  0.31686  1.0000
  H   H333      1.0  0.19310  0.44265  0.32395  1.0000
  H   H334      1.0  0.07422  0.18124  0.55852  1.0000
  H   H335      1.0  0.09019  0.13133  0.30749  1.0000
  C   C210      1.0  0.03441  0.46369  0.63353  1.0000
  H   H336      1.0  0.37536  0.06986  0.37908  1.0000
  Fe  Fe36      1.0  0.25416  0.50562  0.37096  1.0000
  C   C211      1.0  0.43145  0.06705  0.47686  1.0000
  Fe  Fe37      1.0  0.02439  0.47474  0.50880  1.0000
  C   C212      1.0  0.39191  0.08728  0.38075  1.0000
  C   C213      1.0  0.19330  0.52294  0.52939  1.0000
  H   H337      1.0  0.37895  0.18254  0.37728  1.0000
  H   H338      1.0  0.41105  0.04721  0.60110  1.0000
  C   C214      1.0  0.03837  0.46262  0.33026  1.0000
  H   H339      1.0  0.05372  0.48627  0.57122  1.0000
  C   C215      1.0  0.04310  0.46828  0.37816  1.0000
  H   H340      1.0  0.47242  0.47182  0.55657  1.0000
  H   H341      1.0  0.45653  0.51690  0.53122  1.0000
  H   H342      1.0  0.39472  0.15182  0.54917  1.0000
  H   H343      1.0  0.04206  0.31786  0.35674  1.0000
  H   H344      1.0  0.41040  0.18512  0.43099  1.0000
  C   C216      1.0  0.39561  0.13986  0.39566  1.0000
  C   C217      1.0  0.03569  0.37625  0.46949  1.0000
  H   H345      1.0  0.15896  0.15909  0.32864  1.0000
  H   H346      1.0  0.39330  0.13348  0.34429  1.0000
  H   H347      1.0  0.05772  0.38208  0.47703  1.0000
  C   C218      1.0  0.03156  0.06713  0.53523  1.0000
  H   H348      1.0  0.06714  0.49258  0.61872  1.0000
  H   H349      1.0  0.44801  0.06579  0.56951  1.0000
  C   C219      1.0  0.34619  0.10771  0.42419  1.0000
  C   C220      1.0  0.01179  0.44519  0.62643  1.0000
  H   H350      1.0  0.40382  0.08300  0.42363  1.0000
  H   H351      1.0  0.29244  0.29696  0.56275  1.0000
  C   C221      1.0  0.35805  0.03318  0.56774  1.0000
  C   C222      1.0  0.19400  0.50834  0.42671  1.0000
  H   H352      1.0  0.37066  0.18027  0.62888  1.0000
  H   H353      1.0  0.43653  0.06623  0.53541  1.0000
  H   H354      1.0  0.07895  0.17750  0.33323  1.0000
  H   H355      1.0  0.05399  0.47779  0.39496  1.0000
  C   C223      1.0  0.42297  0.04488  0.40286  1.0000
  C   C224      1.0  0.35493  0.10828  0.33468  1.0000
  S   S69       1.0  0.40592  0.15532  0.48229  1.0000
  H   H356      1.0  0.09557  0.47178  0.53568  1.0000
  H   H357      1.0  0.11337  0.17238  0.35113  1.0000
  C   C225      1.0  0.35577  0.11956  0.30605  1.0000
  C   C226      1.0  0.37157  0.12909  0.35358  1.0000
  H   H358      1.0  0.39137  0.43944  0.32420  1.0000
  C   C227      1.0  0.27897  0.31682  0.57009  1.0000
  H   H359      1.0  0.18504  0.50837  0.46871  1.0000
  H   H360      1.0  0.45178  0.05426  0.47266  1.0000
  N   N8        1.0  0.37632  0.11821  0.38177  1.0000
  H   H361      1.0  0.10889  0.50317  0.41843  1.0000
  C   C228      1.0  0.43127  0.09847  0.47728  1.0000
  C   C229      1.0  0.40590  0.19245  0.41028  1.0000
  S   S70       1.0  0.40731  0.51092  0.62128  1.0000
  C   C230      1.0  0.39133  0.12912  0.60174  1.0000
  C   C231      1.0  0.40506  0.11580  0.48245  1.0000
  H   H362      1.0  0.35818  0.12349  0.43664  1.0000
  H   H363      1.0  0.31391  0.05504  0.56610  1.0000
  C   C232      1.0  0.99954  0.07944  0.53861  1.0000
  H   H364      1.0  0.31512  0.10041  0.45599  1.0000
  C   C233      1.0  0.45319  0.48631  0.56349  1.0000
  H   H365      1.0  0.44919  0.11509  0.62083  1.0000
  Fe  Fe38      1.0  0.07265  0.50057  0.47451  1.0000
  N   N9        1.0  0.17723  0.18316  0.57652  1.0000
  C   C234      1.0  0.20358  0.19665  0.56390  1.0000
  C   C235      1.0  0.18023  0.14936  0.57428  1.0000
  C   C236      1.0  0.15000  0.19353  0.56085  1.0000
  C   C237      1.0  0.17256  0.19318  0.60500  1.0000
  H   H366      1.0  0.26869  0.51106  0.49489  1.0000
  C   C238      1.0  0.20191  0.23131  0.56202  1.0000
  C   C239      1.0  0.12068  0.17961  0.56917  1.0000
  C   C240      1.0  0.21125  0.13360  0.57871  1.0000
  C   C241      1.0  0.21005  0.09966  0.57624  1.0000
  H   H367      1.0  0.40362  0.47377  0.33796  1.0000
  C   C242      1.0  0.23204  0.24309  0.55515  1.0000
  C   C243      1.0  0.09466  0.19189  0.55231  1.0000
  H   H368      1.0  0.20698  0.18772  0.54337  1.0000
  H   H369      1.0  0.22425  0.18966  0.57459  1.0000
  H   H370      1.0  0.16478  0.13897  0.58820  1.0000
  H   H371      1.0  0.17344  0.14221  0.55406  1.0000
  H   H372      1.0  0.15353  0.18883  0.53929  1.0000
  H   H373      1.0  0.14576  0.21817  0.56252  1.0000
  H   H374      1.0  0.16120  0.21590  0.60564  1.0000
  H   H375      1.0  0.15701  0.17865  0.61521  1.0000
  H   H376      1.0  0.21750  0.20802  0.61446  1.0000
  S   S71       1.0  0.00922  0.45057  0.54579  1.0000
  H   H377      1.0  0.18620  0.23881  0.54610  1.0000
  H   H378      1.0  0.19436  0.24183  0.58095  1.0000
  H   H379      1.0  0.11531  0.18475  0.59024  1.0000
  H   H380      1.0  0.12211  0.15495  0.56663  1.0000
  H   H381      1.0  0.22734  0.14071  0.56366  1.0000
  H   H382      1.0  0.21973  0.13817  0.59866  1.0000
  C   C244      1.0  0.01922  0.28629  0.43421  1.0000
  H   H383      1.0  0.35821  0.03365  0.58975  1.0000
  H   H384      1.0  0.23131  0.49807  0.57645  1.0000
  H   H385      1.0  0.99656  0.37497  0.42774  1.0000
  H   H386      1.0  0.34533  0.13304  0.58665  1.0000
  H   H387      1.0  0.12239  0.49636  0.32420  1.0000
  H   H388      1.0  0.24071  0.23285  0.53640  1.0000
  H   H389      1.0  0.22983  0.26772  0.55250  1.0000
  H   H390      1.0  0.24821  0.23795  0.57134  1.0000
  H   H391      1.0  0.34329  0.08041  0.56465  1.0000
  H   H392      1.0  0.09101  0.21644  0.55502  1.0000
  C   C245      1.0  0.15092  0.50668  0.39847  1.0000
  N   N10       1.0  0.32901  0.35943  0.42143  1.0000
  C   C246      1.0  0.31837  0.37587  0.39673  1.0000
  C   C247      1.0  0.31195  0.37104  0.44561  1.0000
  C   C248      1.0  0.36121  0.36573  0.42549  1.0000
  C   C249      1.0  0.32706  0.32608  0.41863  1.0000
  C   C250      1.0  0.29583  0.31495  0.41341  1.0000
  C   C251      1.0  0.33390  0.36647  0.37032  1.0000
  C   C252      1.0  0.37584  0.35322  0.45146  1.0000
  C   C253      1.0  0.27947  0.38338  0.44153  1.0000
  C   C254      1.0  0.26460  0.39088  0.46814  1.0000
  C   C255      1.0  0.29730  0.28118  0.40855  1.0000
  C   C256      1.0  0.32124  0.38531  0.34725  1.0000
  C   C257      1.0  0.40668  0.36485  0.45527  1.0000
  H   H393      1.0  0.32077  0.40029  0.39935  1.0000
  H   H394      1.0  0.29438  0.37352  0.39339  1.0000
  H   H395      1.0  0.31194  0.35344  0.46119  1.0000
  H   H396      1.0  0.32311  0.39004  0.45485  1.0000
  H   H397      1.0  0.36378  0.39038  0.42509  1.0000
  H   H398      1.0  0.37518  0.35608  0.40913  1.0000
  H   H399      1.0  0.34235  0.31710  0.40287  1.0000
  H   H400      1.0  0.33496  0.31455  0.43701  1.0000
  H   H401      1.0  0.28531  0.32584  0.39579  1.0000
  H   H402      1.0  0.28157  0.31931  0.43107  1.0000
  H   H403      1.0  0.35796  0.36987  0.37101  1.0000
  H   H404      1.0  0.33057  0.34267  0.36567  1.0000
  H   H405      1.0  0.37843  0.32844  0.45075  1.0000
  H   H406      1.0  0.36272  0.35969  0.46934  1.0000
  H   H407      1.0  0.27902  0.40440  0.42978  1.0000
  H   H408      1.0  0.26600  0.36723  0.43101  1.0000
  H   H409      1.0  0.26384  0.37043  0.48053  1.0000
  H   H410      1.0  0.27694  0.40789  0.47896  1.0000
  H   H411      1.0  0.24160  0.40014  0.46475  1.0000
  H   H412      1.0  0.30704  0.26903  0.42598  1.0000
  H   H413      1.0  0.27464  0.27350  0.40531  1.0000
  H   H414      1.0  0.31081  0.27540  0.39066  1.0000
  H   H415      1.0  0.33243  0.37821  0.32846  1.0000
  H   H416      1.0  0.29709  0.38261  0.34496  1.0000
  H   H417      1.0  0.32499  0.40934  0.35055  1.0000
  H   H418      1.0  0.41673  0.35522  0.47371  1.0000
  H   H419      1.0  0.42127  0.35822  0.43828  1.0000
  H   H420      1.0  0.40523  0.38962  0.45720  1.0000
  C   C258      1.0  0.40487  0.51989  0.48143  1.0000
  C   C259      1.0  0.02297  0.35176  0.38428  1.0000
  H   H421      1.0  0.36471  0.08502  0.33481  1.0000
  H   H422      1.0  0.03378  0.34569  0.31555  1.0000
  H   H423      1.0  0.14120  0.50704  0.37888  1.0000
  H   H424      1.0  0.06250  0.12952  0.35069  1.0000
  C   C260      1.0  0.02433  0.33610  0.35677  1.0000
  H   H425      1.0  0.99044  0.41980  0.36310  1.0000
  H   H426      1.0  0.09691  0.12405  0.36901  1.0000
  H   H427      1.0  0.12332  0.12279  0.32543  1.0000
  H   H428      1.0  0.22875  0.48919  0.53382  1.0000
  H   H429      1.0  0.39446  0.06033  0.55900  1.0000
  H   H430      1.0  0.31069  0.28564  0.61063  1.0000
  H   H431      1.0  0.04626  0.35629  0.38919  1.0000
  C   C261      1.0  0.30095  0.30820  0.61621  1.0000
  C   C262      1.0  0.02109  0.44806  0.38219  1.0000
  H   H432      1.0  0.39414  0.10490  0.59689  1.0000
  H   H433      1.0  0.29110  0.33726  0.56655  1.0000
  H   H434      1.0  0.99556  0.28097  0.43371  1.0000
  C   C263      1.0  0.02727  0.30524  0.40979  1.0000
  C   C264      1.0  0.01962  0.45600  0.57935  1.0000
  H   H435      1.0  0.43231  0.48664  0.52547  1.0000
  H   H436      1.0  0.19450  0.09099  0.59107  1.0000
  H   H437      1.0  0.02345  0.29828  0.45299  1.0000
  H   H438      1.0  0.15206  0.44513  0.36627  1.0000
  S   S72       1.0  0.04119  0.51369  0.44153  1.0000
  H   H439      1.0  0.40026  0.13300  0.41649  1.0000
  C   C265      1.0  0.36675  0.14339  0.58342  1.0000
  H   H440      1.0  0.05391  0.33996  0.44580  1.0000
  H   H441      1.0  0.20278  0.09343  0.55601  1.0000
  H   H442      1.0  0.42703  0.19138  0.39898  1.0000
  S   S73       1.0  0.98899  0.14120  0.36189  1.0000
  H   H443      1.0  0.98736  0.42653  0.59415  1.0000
  C   C266      1.0  0.09605  0.16065  0.34035  1.0000
  C   C267      1.0  0.37491  0.13932  0.55412  1.0000
  C   C268      1.0  0.12954  0.44407  0.35757  1.0000
  H   H444      1.0  0.35620  0.14816  0.54155  1.0000
  H   H445      1.0  0.14620  0.49222  0.53844  1.0000
  H   H446      1.0  0.15866  0.48535  0.33450  1.0000
  C   C269      1.0  0.38339  0.17290  0.39719  1.0000
  C   C270      1.0  0.34823  0.09326  0.63315  1.0000
  H   H447      1.0  0.31018  0.06584  0.63276  1.0000
  H   H448      1.0  0.01153  0.37431  0.38239  1.0000
  Fe  Fe39      1.0  0.00209  0.16929  0.32756  1.0000
  H   H449      1.0  0.01244  0.37502  0.33237  1.0000
  H   H450      1.0  0.25792  0.29449  0.60163  1.0000
  H   H451      1.0  0.33373  0.13924  0.39300  1.0000
  C   C271      1.0  0.41353  0.07822  0.40384  1.0000
  H   H452      1.0  0.30297  0.12950  0.43320  1.0000
  H   H453      1.0  0.37702  0.50518  0.51345  1.0000
  C   C272      1.0  0.37904  0.10128  0.48749  1.0000
  H   H454      1.0  0.05062  0.37562  0.42921  1.0000
  C   C273      1.0  0.04954  0.47833  0.61341  1.0000
  C   C274      1.0  0.99539  0.20168  0.49545  1.0000
  H   H455      1.0  0.35238  0.08763  0.61207  1.0000
  S   S74       1.0  0.27917  0.51975  0.33462  1.0000
  N   N11       1.0  0.00926  0.33438  0.40625  1.0000
  H   H456      1.0  0.99594  0.34226  0.44712  1.0000
  H   H457      1.0  0.20312  0.51347  0.61685  1.0000
  H   H458      1.0  0.38710  0.47695  0.47153  1.0000
  S   S75       1.0  0.12063  0.12695  0.62576  1.0000
  C   C275      1.0  0.28661  0.18484  0.63100  1.0000
  C   C276      1.0  0.15161  0.17278  0.31111  1.0000
  H   H459      1.0  0.03311  0.04977  0.51946  1.0000
  S   S76       1.0  0.20369  0.51252  0.37239  1.0000
  C   C277      1.0  0.13050  0.44855  0.32753  1.0000
  H   H460      1.0  0.00387  0.11104  0.50660  1.0000
  H   H461      1.0  0.36019  0.30530  0.62849  1.0000
  H   H462      1.0  0.23801  0.49397  0.62469  1.0000
  H   H463      1.0  0.20421  0.47489  0.62786  1.0000
  H   H464      1.0  0.30113  0.10505  0.62698  1.0000
  C   C278      1.0  0.20207  0.45806  0.30916  1.0000
  N   N12       1.0  0.38674  0.13387  0.63117  1.0000
  H   H465      1.0  0.40949  0.17507  0.62699  1.0000
  H   H466      1.0  0.42490  0.45458  0.31196  1.0000
  H   H467      1.0  0.40354  0.03116  0.40584  1.0000
  H   H468      1.0  0.43911  0.03940  0.41904  1.0000
  H   H469      1.0  0.34642  0.14299  0.30479  1.0000
  H   H470      1.0  0.10771  0.44623  0.31981  1.0000
  H   H471      1.0  0.43378  0.03891  0.38362  1.0000
  H   H472      1.0  0.33895  0.14159  0.63130  1.0000
  H   H473      1.0  0.36126  0.48189  0.30646  1.0000
  H   H474      1.0  0.19147  0.21883  0.31533  1.0000
  C   C279      1.0  0.20171  0.19612  0.31139  1.0000
  H   H475      1.0  0.39881  0.52006  0.31125  1.0000
  C   C280      1.0  0.30708  0.20647  0.63541  1.0000
  C   C281      1.0  0.98772  0.09446  0.51268  1.0000
  H   H476      1.0  0.99537  0.51518  0.56602  1.0000
  H   H477      1.0  0.48640  0.04426  0.52181  1.0000
  H   H478      1.0  0.17202  0.52601  0.51842  1.0000
  H   H479      1.0  0.44168  0.52599  0.36650  1.0000
  H   H480      1.0  0.38678  0.52608  0.36778  1.0000
  Fe  Fe40      1.0  0.31683  0.12249  0.72194  1.0000
  S   S77       1.0  0.33849  0.16554  0.72749  1.0000
  S   S78       1.0  0.34513  0.08054  0.71141  1.0000
  Fe  Fe41      1.0  0.25438  0.15324  0.72642  1.0000
  S   S79       1.0  0.27281  0.19847  0.73313  1.0000
  S   S80       1.0  0.20376  0.15324  0.72525  1.0000
  Fe  Fe42      1.0  0.30369  0.18491  0.69998  1.0000
  S   S81       1.0  0.31643  0.21688  0.66792  1.0000
  Fe  Fe43      1.0  0.30573  0.17466  0.76055  1.0000
  S   S82       1.0  0.32800  0.19532  0.79643  1.0000
  S   S83       1.0  0.28392  0.14117  0.69188  1.0000
  S   S84       1.0  0.28541  0.13007  0.75650  1.0000
  C   C282      1.0  0.32613  0.29926  0.65855  1.0000
  S   S85       1.0  0.29234  0.19380  0.91893  1.0000
  H   H481      1.0  0.32293  0.35514  0.68216  1.0000
  H   H482      1.0  0.10387  0.42397  0.82548  1.0000
  H   H483      1.0  0.42006  0.13703  0.83914  1.0000
  H   H484      1.0  0.07333  0.26935  0.71833  1.0000
  H   H485      1.0  0.15497  0.52494  0.88038  1.0000
  S   S86       1.0  0.03387  0.22277  0.85894  1.0000
  Fe  Fe44      1.0  0.01725  0.19022  0.82924  1.0000
  S   S87       1.0  0.04507  0.17193  0.79487  1.0000
  Fe  Fe45      1.0  0.01433  0.19446  0.89055  1.0000
  S   S88       1.0  0.03961  0.17793  0.92721  1.0000
  H   H486      1.0  0.43449  0.03680  0.64782  1.0000
  Fe  Fe46      1.0  0.32203  0.49239  0.89530  1.0000
  C   C283      1.0  0.02362  0.08875  0.79636  1.0000
  S   S89       1.0  0.34096  0.46848  0.93151  1.0000
  Fe  Fe47      1.0  0.31457  0.48808  0.83450  1.0000
  H   H487      1.0  0.26092  0.38686  0.68570  1.0000
  S   S90       1.0  0.32640  0.45781  0.79903  1.0000
  C   C284      1.0  0.26723  0.28681  0.68393  1.0000
  H   H488      1.0  0.39859  0.10458  0.84219  1.0000
  H   H489      1.0  0.02720  0.38578  0.94397  1.0000
  S   S91       1.0  0.28708  0.47404  0.86919  1.0000
  S   S92       1.0  0.28311  0.47112  0.67889  1.0000
  H   H490      1.0  0.35100  0.33843  0.64757  1.0000
  C   C285      1.0  0.03209  0.48016  0.82837  1.0000
  H   H491      1.0  0.43656  0.06811  0.79811  1.0000
  H   H492      1.0  0.27790  0.26788  0.64535  1.0000
  S   S93       1.0  0.98970  0.18398  0.67972  1.0000
  H   H493      1.0  0.07471  0.41074  0.78665  1.0000
  C   C286      1.0  0.03040  0.35217  0.69128  1.0000
  H   H494      1.0  0.29136  0.33980  0.69691  1.0000
  C   C287      1.0  0.05399  0.25559  0.71465  1.0000
  C   C288      1.0  0.32494  0.10783  0.82345  1.0000
  C   C289      1.0  0.17354  0.48451  0.81902  1.0000
  C   C290      1.0  0.31576  0.46434  0.76550  1.0000
  C   C291      1.0  0.29120  0.48324  0.75873  1.0000
  C   C292      1.0  0.28178  0.48551  0.73207  1.0000
  C   C293      1.0  0.29725  0.46959  0.71181  1.0000
  C   C294      1.0  0.32242  0.45152  0.71847  1.0000
  C   C295      1.0  0.33138  0.44865  0.74520  1.0000
  H   H495      1.0  0.28757  0.27949  0.69491  1.0000
  C   C296      1.0  0.09672  0.42010  0.78374  1.0000
  H   H496      1.0  0.33448  0.43905  0.70314  1.0000
  H   H497      1.0  0.35042  0.43400  0.75022  1.0000
  C   C297      1.0  0.00498  0.17746  0.71143  1.0000
  H   H498      1.0  0.45842  0.11214  0.68128  1.0000
  H   H499      1.0  0.07099  0.33571  0.86178  1.0000
  H   H500      1.0  0.05718  0.06260  0.70405  1.0000
  C   C298      1.0  0.36271  0.13456  0.90967  1.0000
  C   C299      1.0  0.02759  0.18081  0.96063  1.0000
  H   H501      1.0  0.10461  0.24548  0.68267  1.0000
  C   C300      1.0  0.33002  0.11303  0.85308  1.0000
  C   C301      1.0  0.99941  0.18218  0.75927  1.0000
  H   H502      1.0  0.23382  0.49449  0.82160  1.0000
  H   H503      1.0  0.38514  0.28136  0.66787  1.0000
  H   H504      1.0  0.40086  0.31590  0.65842  1.0000
  C   C302      1.0  0.02932  0.17358  0.76286  1.0000
  C   C303      1.0  0.04692  0.16610  0.74061  1.0000
  C   C304      1.0  0.03478  0.16803  0.71489  1.0000
  H   H505      1.0  0.20356  0.50646  0.96716  1.0000
  S   S94       1.0  0.35189  0.50131  0.86090  1.0000
  H   H506      1.0  0.07010  0.15923  0.74321  1.0000
  H   H507      1.0  0.04864  0.16298  0.69778  1.0000
  H   H508      1.0  0.30797  0.12204  0.90415  1.0000
  H   H509      1.0  0.25752  0.30800  0.69242  1.0000
  H   H510      1.0  0.09891  0.35931  0.87424  1.0000
  Fe  Fe48      1.0  0.01250  0.47498  0.76288  1.0000
  Fe  Fe49      1.0  0.31182  0.46287  0.64216  1.0000
  H   H511      1.0  0.31926  0.06771  0.86199  1.0000
  C   C305      1.0  0.01898  0.08607  0.82671  1.0000
  C   C306      1.0  0.18099  0.14580  0.69737  1.0000
  C   C307      1.0  0.19274  0.13341  0.67385  1.0000
  C   C308      1.0  0.19286  0.50969  0.94813  1.0000
  H   H512      1.0  0.01155  0.31176  0.67886  1.0000
  C   C309      1.0  0.13133  0.14672  0.67735  1.0000
  C   C310      1.0  0.15016  0.15232  0.69897  1.0000
  H   H513      1.0  0.21631  0.12806  0.67232  1.0000
  H   H514      1.0  0.10772  0.15190  0.67892  1.0000
  H   H515      1.0  0.14078  0.16175  0.71709  1.0000
  C   C311      1.0  0.31792  0.19389  0.83041  1.0000
  C   C312      1.0  0.29040  0.18451  0.83858  1.0000
  C   C313      1.0  0.28294  0.18481  0.86574  1.0000
  C   C314      1.0  0.30296  0.19413  0.88503  1.0000
  C   C315      1.0  0.33050  0.20348  0.87685  1.0000
  C   C316      1.0  0.33785  0.20346  0.84966  1.0000
  H   H516      1.0  0.27476  0.17730  0.82398  1.0000
  H   H517      1.0  0.26152  0.17767  0.87187  1.0000
  H   H518      1.0  0.34605  0.21085  0.89146  1.0000
  H   H519      1.0  0.35915  0.21086  0.84353  1.0000
  C   C317      1.0  0.38386  0.07869  0.71700  1.0000
  C   C318      1.0  0.40130  0.05406  0.70733  1.0000
  C   C319      1.0  0.28927  0.34314  0.65289  1.0000
  C   C320      1.0  0.11791  0.51813  0.79822  1.0000
  H   H520      1.0  0.01015  0.06422  0.83188  1.0000
  H   H521      1.0  0.03315  0.36029  0.67067  1.0000
  H   H522      1.0  0.24766  0.45630  0.81731  1.0000
  C   C321      1.0  0.12182  0.50184  0.82525  1.0000
  C   C322      1.0  0.03609  0.48414  0.87630  1.0000
  S   S95       1.0  0.36628  0.21789  0.95796  1.0000
  C   C323      1.0  0.04807  0.08894  0.84172  1.0000
  H   H523      1.0  0.37550  0.09137  0.92513  1.0000
  Fe  Fe50      1.0  0.01402  0.16312  0.64473  1.0000
  C   C324      1.0  0.02625  0.43670  0.85625  1.0000
  H   H524      1.0  0.29170  0.08757  0.89991  1.0000
  C   C325      1.0  0.30766  0.09498  0.93961  1.0000
  H   H525      1.0  0.05805  0.23526  0.72726  1.0000
  Fe  Fe51      1.0  0.01590  0.46130  0.70317  1.0000
  H   H526      1.0  0.28945  0.50563  0.95021  1.0000
  H   H527      1.0  0.38001  0.22258  0.66006  1.0000
  H   H528      1.0  0.35148  0.13977  0.92880  1.0000
  C   C326      1.0  0.19207  0.20826  0.65003  1.0000
  H   H529      1.0  0.01829  0.26376  0.80588  1.0000
  H   H530      1.0  0.46557  0.04904  0.96859  1.0000
  H   H531      1.0  0.04783  0.31308  0.73071  1.0000
  H   H532      1.0  0.35378  0.12812  0.66167  1.0000
  N   N13       1.0  0.29044  0.37714  0.96674  1.0000
  H   H533      1.0  0.34470  0.09616  0.81420  1.0000
  S   S96       1.0  0.03593  0.11717  0.64794  1.0000
  H   H534      1.0  0.32540  0.30170  0.68040  1.0000
  H   H535      1.0  0.39522  0.45047  0.70092  1.0000
  H   H536      1.0  0.17372  0.19659  0.65936  1.0000
  H   H537      1.0  0.05185  0.29422  0.91528  1.0000
  H   H538      1.0  0.99928  0.38575  0.79869  1.0000
  H   H539      1.0  0.25149  0.29898  0.64545  1.0000
  H   H540      1.0  0.18516  0.23231  0.64775  1.0000
  H   H541      1.0  0.40361  0.14635  0.89045  1.0000
  C   C327      1.0  0.00911  0.31344  0.92936  1.0000
  H   H542      1.0  0.32101  0.37595  0.91714  1.0000
  H   H543      1.0  0.43885  0.11680  0.74540  1.0000
  C   C328      1.0  0.44585  0.07457  0.72517  1.0000
  C   C329      1.0  0.04394  0.27589  0.77123  1.0000
  C   C330      1.0  0.34309  0.05214  0.90726  1.0000
  H   H544      1.0  0.30982  0.12509  0.86094  1.0000
  N   N14       1.0  0.01128  0.34658  0.92503  1.0000
  H   H545      1.0  0.46080  0.02951  0.91695  1.0000
  H   H546      1.0  0.29271  0.39375  0.70589  1.0000
  C   C331      1.0  0.38675  0.49792  0.70846  1.0000
  H   H547      1.0  0.99891  0.27692  0.75863  1.0000
  H   H548      1.0  0.25599  0.32998  0.94092  1.0000
  H   H549      1.0  0.99879  0.30305  0.91184  1.0000
  H   H550      1.0  0.00344  0.10412  0.83401  1.0000
  C   C332      1.0  0.06131  0.35563  0.90059  1.0000
  C   C333      1.0  0.07468  0.35672  0.87276  1.0000
  H   H551      1.0  0.00474  0.03794  0.78840  1.0000
  C   C334      1.0  0.02790  0.30595  0.71999  1.0000
  H   H552      1.0  0.22342  0.26932  0.67865  1.0000
  C   C335      1.0  0.39138  0.17515  0.66695  1.0000
  H   H553      1.0  0.46043  0.08005  0.65940  1.0000
  H   H554      1.0  0.41993  0.05523  0.82738  1.0000
  H   H555      1.0  0.98898  0.20989  0.95303  1.0000
  C   C336      1.0  0.16186  0.50894  0.94620  1.0000
  H   H556      1.0  0.24061  0.26083  0.71024  1.0000
  H   H557      1.0  0.01637  0.08040  0.94323  1.0000
  H   H558      1.0  0.00906  0.36213  0.69911  1.0000
  H   H559      1.0  0.42817  0.47128  0.70253  1.0000
  H   H560      1.0  0.29077  0.42833  0.93077  1.0000
  C   C337      1.0  0.03642  0.07487  0.71066  1.0000
  H   H561      1.0  0.01031  0.08525  0.90785  1.0000
  C   C338      1.0  0.00538  0.09070  0.75082  1.0000
  H   H562      1.0  0.20367  0.45815  0.84581  1.0000
  N   N15       1.0  0.29739  0.31077  0.64601  1.0000
  H   H563      1.0  0.07287  0.33695  0.91143  1.0000
  S   S97       1.0  0.00273  0.50270  0.72656  1.0000
  H   H564      1.0  0.28334  0.13797  0.94556  1.0000
  H   H565      1.0  0.32975  0.27484  0.65489  1.0000
  Fe  Fe52      1.0  0.98830  0.24539  0.85548  1.0000
  H   H566      1.0  0.12893  0.51835  0.84015  1.0000
  H   H567      1.0  0.05148  0.30933  0.68228  1.0000
  C   C339      1.0  0.38084  0.30599  0.66666  1.0000
  H   H568      1.0  0.17817  0.50507  0.83048  1.0000
  H   H569      1.0  0.29343  0.40183  0.67095  1.0000
  H   H570      1.0  0.46228  0.10666  0.82152  1.0000
  C   C340      1.0  0.33685  0.08302  0.86767  1.0000
  H   H571      1.0  0.02302  0.33485  0.88444  1.0000
  N   N16       1.0  0.14298  0.47444  0.82569  1.0000
  H   H572      1.0  0.40479  0.11460  0.66767  1.0000
  C   C341      1.0  0.14409  0.46071  0.85317  1.0000
  H   H573      1.0  0.05432  0.24930  0.94325  1.0000
  H   H574      1.0  0.12470  0.51263  0.91953  1.0000
  N   N17       1.0  0.02534  0.27267  0.72269  1.0000
  C   C342      1.0  0.03859  0.29487  0.93381  1.0000
  C   C343      1.0  0.11507  0.46273  0.86985  1.0000
  C   C344      1.0  0.11816  0.44375  0.89498  1.0000
  H   H575      1.0  0.10668  0.50380  0.78378  1.0000
  C   C345      1.0  0.20011  0.46154  0.82419  1.0000
  H   H576      1.0  0.45188  0.09332  0.85327  1.0000
  C   C346      1.0  0.21024  0.51502  0.92558  1.0000
  H   H577      1.0  0.15232  0.43681  0.85204  1.0000
  H   H578      1.0  0.16045  0.47181  0.86579  1.0000
  H   H579      1.0  0.02030  0.26138  0.95961  1.0000
  C   C347      1.0  0.08738  0.22897  0.68035  1.0000
  H   H580      1.0  0.44190  0.05372  0.87631  1.0000
  H   H581      1.0  0.15115  0.43217  0.80527  1.0000
  C   C348      1.0  0.29851  0.35435  0.68075  1.0000
  H   H582      1.0  0.08657  0.45681  0.80979  1.0000
  C   C349      1.0  0.02616  0.36142  0.94801  1.0000
  H   H583      1.0  0.10988  0.48625  0.87616  1.0000
  H   H584      1.0  0.09576  0.45535  0.85867  1.0000
  H   H585      1.0  0.12136  0.41967  0.88981  1.0000
  H   H586      1.0  0.13716  0.45050  0.90716  1.0000
  H   H587      1.0  0.09767  0.44696  0.90707  1.0000
  C   C350      1.0  0.28552  0.38607  0.68606  1.0000
  H   H588      1.0  0.40941  0.16223  0.67750  1.0000
  Fe  Fe53      1.0  0.26767  0.52139  0.86929  1.0000
  H   H589      1.0  0.34912  0.14570  0.89405  1.0000
  S   S98       1.0  0.03033  0.43500  0.73966  1.0000
  C   C351      1.0  0.24479  0.26306  0.68864  1.0000
  H   H590      1.0  0.03309  0.11072  0.79238  1.0000
  H   H591      1.0  0.13936  0.52415  0.78975  1.0000
  C   C352      1.0  0.14842  0.51364  0.92145  1.0000
  H   H592      1.0  0.38445  0.12009  0.73865  1.0000
  S   S99       1.0  0.03460  0.49718  0.79716  1.0000
  H   H593      1.0  0.29313  0.32982  0.92840  1.0000
  H   H594      1.0  0.36141  0.07697  0.64563  1.0000
  N   N18       1.0  0.30497  0.29175  0.78370  1.0000
  C   C353      1.0  0.30632  0.32373  0.77448  1.0000
  C   C354      1.0  0.31520  0.27118  0.76131  1.0000
  C   C355      1.0  0.27286  0.28608  0.78914  1.0000
  C   C356      1.0  0.32278  0.28506  0.80866  1.0000
  C   C357      1.0  0.35102  0.30264  0.81309  1.0000
  C   C358      1.0  0.29125  0.34789  0.79293  1.0000
  C   C359      1.0  0.26638  0.25366  0.79738  1.0000
  C   C360      1.0  0.34750  0.27346  0.75167  1.0000
  C   C361      1.0  0.35389  0.25353  0.72747  1.0000
  C   C362      1.0  0.36943  0.28945  0.83616  1.0000
  C   C363      1.0  0.30102  0.37916  0.78626  1.0000
  C   C364      1.0  0.23427  0.25161  0.80633  1.0000
  H   H595      1.0  0.29563  0.32656  0.75462  1.0000
  H   H596      1.0  0.32953  0.32966  0.77130  1.0000
  H   H597      1.0  0.31377  0.24744  0.76709  1.0000
  H   H598      1.0  0.30019  0.27455  0.74388  1.0000
  H   H599      1.0  0.25892  0.29201  0.77145  1.0000
  H   H600      1.0  0.26415  0.30065  0.80561  1.0000
  H   H601      1.0  0.30891  0.28943  0.82669  1.0000
  H   H602      1.0  0.32942  0.26070  0.80963  1.0000
  H   H603      1.0  0.34490  0.32633  0.81805  1.0000
  H   H604      1.0  0.36544  0.30258  0.79538  1.0000
  H   H605      1.0  0.26680  0.34831  0.79036  1.0000
  H   H606      1.0  0.29628  0.34322  0.81411  1.0000
  H   H607      1.0  0.28085  0.24577  0.81401  1.0000
  H   H608      1.0  0.26982  0.23799  0.78050  1.0000
  H   H609      1.0  0.35218  0.29657  0.74591  1.0000
  H   H610      1.0  0.36313  0.26541  0.76743  1.0000
  H   H611      1.0  0.37701  0.25592  0.72073  1.0000
  H   H612      1.0  0.35134  0.22972  0.73262  1.0000
  H   H613      1.0  0.33869  0.25984  0.71087  1.0000
  H   H614      1.0  0.38899  0.30290  0.83951  1.0000
  H   H615      1.0  0.35608  0.28969  0.85469  1.0000
  H   H616      1.0  0.37743  0.26607  0.83165  1.0000
  H   H617      1.0  0.32518  0.38061  0.78974  1.0000
  H   H618      1.0  0.29595  0.38492  0.76524  1.0000
  H   H619      1.0  0.28913  0.39607  0.79914  1.0000
  H   H620      1.0  0.21876  0.25867  0.79012  1.0000
  H   H621      1.0  0.23037  0.22806  0.81158  1.0000
  H   H622      1.0  0.22963  0.26575  0.82413  1.0000
  H   H623      1.0  0.19661  0.43954  0.81504  1.0000
  Fe  Fe54      1.0  0.04227  0.46556  0.94590  1.0000
  C   C365      1.0  0.39758  0.10121  0.73081  1.0000
  C   C366      1.0  0.44504  0.09482  0.83224  1.0000
  H   H624      1.0  0.27707  0.27859  0.93407  1.0000
  H   H625      1.0  0.01742  0.06506  0.70052  1.0000
  C   C367      1.0  0.27313  0.29066  0.65392  1.0000
  H   H626      1.0  0.01738  0.24140  0.75418  1.0000
  H   H627      1.0  0.40799  0.09050  0.64017  1.0000
  H   H628      1.0  0.37010  0.17114  0.67686  1.0000
  C   C368      1.0  0.39260  0.14881  0.91008  1.0000
  H   H629      1.0  0.04400  0.08764  0.86340  1.0000
  C   C369      1.0  0.43218  0.05198  0.71139  1.0000
  H   H630      1.0  0.05362  0.08174  0.74948  1.0000
  C   C370      1.0  0.42843  0.09918  0.73481  1.0000
  S   S100      1.0  0.04513  0.46848  0.66709  1.0000
  Fe  Fe55      1.0  0.32075  0.20057  0.95574  1.0000
  H   H631      1.0  0.27896  0.49542  0.77412  1.0000
  H   H632      1.0  0.04141  0.07146  0.79141  1.0000
  H   H633      1.0  0.11351  0.40126  0.78093  1.0000
  C   C371      1.0  0.01996  0.26583  0.75157  1.0000
  H   H634      1.0  0.44540  0.03305  0.70366  1.0000
  C   C372      1.0  0.44095  0.06363  0.81959  1.0000
  H   H635      1.0  0.00894  0.31833  0.72999  1.0000
  C   C373      1.0  0.13500  0.45179  0.80507  1.0000
  C   C374      1.0  0.03697  0.49717  0.85109  1.0000
  H   H636      1.0  0.00951  0.11480  0.74804  1.0000
  H   H637      1.0  0.38903  0.49497  0.73016  1.0000
  H   H638      1.0  0.17482  0.49083  0.79774  1.0000
  S   S101      1.0  0.03011  0.43710  0.91069  1.0000
  H   H639      1.0  0.34905  0.12745  0.85463  1.0000
  C   C375      1.0  0.99060  0.36377  0.79960  1.0000
  S   S102      1.0  0.00280  0.15949  0.86104  1.0000
  H   H640      1.0  0.05739  0.11086  0.83739  1.0000
  H   H641      1.0  0.09220  0.20997  0.69417  1.0000
  H   H642      1.0  0.13673  0.46133  0.78478  1.0000
  H   H643      1.0  0.24598  0.38394  0.95143  1.0000
  H   H644      1.0  0.44583  0.14563  0.64404  1.0000
  C   C376      1.0  0.40483  0.47192  0.69554  1.0000
  C   C377      1.0  0.29930  0.49344  0.96681  1.0000
  H   H645      1.0  0.27547  0.17511  0.64744  1.0000
  H   H646      1.0  0.40914  0.11756  0.80973  1.0000
  C   C378      1.0  0.31110  0.09792  0.90909  1.0000
  H   H647      1.0  0.03894  0.49776  0.89353  1.0000
  C   C379      1.0  0.03105  0.45382  0.87905  1.0000
  H   H648      1.0  0.40725  0.13830  0.92554  1.0000
  N   N19       1.0  0.46598  0.03998  0.82294  1.0000
  C   C380      1.0  0.02653  0.44990  0.83093  1.0000
  H   H649      1.0  0.04044  0.22613  0.68240  1.0000
  S   S103      1.0  0.48463  0.07346  0.73004  1.0000
  H   H650      1.0  0.30761  0.28530  0.95579  1.0000
  H   H651      1.0  0.04119  0.52059  0.84915  1.0000
  H   H652      1.0  0.06450  0.07064  0.83605  1.0000
  C   C381      1.0  0.32455  0.47433  0.96293  1.0000
  C   C382      1.0  0.98729  0.18415  0.73370  1.0000
  C   C383      1.0  0.01335  0.09703  0.92699  1.0000
  H   H653      1.0  0.22287  0.42776  0.92673  1.0000
  H   H654      1.0  0.04730  0.23648  0.79639  1.0000
  H   H655      1.0  0.32241  0.04037  0.90343  1.0000
  C   C384      1.0  0.19667  0.52052  0.90099  1.0000
  H   H656      1.0  0.05643  0.27058  0.81264  1.0000
  C   C385      1.0  0.26899  0.38894  0.94567  1.0000
  H   H657      1.0  0.24915  0.41990  0.90003  1.0000
  H   H658      1.0  0.35773  0.07359  0.85858  1.0000
  C   C386      1.0  0.36664  0.10016  0.90584  1.0000
  H   H659      1.0  0.02279  0.43662  0.81341  1.0000
  C   C387      1.0  0.04123  0.26075  0.79815  1.0000
  H   H660      1.0  0.32085  0.12965  0.81328  1.0000
  H   H661      1.0  0.24579  0.45647  0.91500  1.0000
  C   C388      1.0  0.22887  0.47258  0.81276  1.0000
  C   C389      1.0  0.03291  0.26247  0.94075  1.0000
  H   H662      1.0  0.04107  0.30045  0.77445  1.0000
  H   H663      1.0  0.37518  0.37020  0.91089  1.0000
  H   H664      1.0  0.38498  0.09535  0.89144  1.0000
  H   H665      1.0  0.02034  0.25190  0.92464  1.0000
  H   H666      1.0  0.25348  0.24095  0.68103  1.0000
  C   C390      1.0  0.39725  0.20821  0.67032  1.0000
  C   C391      1.0  0.41639  0.11461  0.83070  1.0000
  H   H667      1.0  0.99809  0.23762  0.71001  1.0000
  C   C392      1.0  0.05654  0.24359  0.68574  1.0000
  H   H668      1.0  0.39088  0.03650  0.69666  1.0000
  H   H669      1.0  0.05168  0.30396  0.95022  1.0000
  H   H670      1.0  0.30528  0.09447  0.82026  1.0000
  C   C393      1.0  0.02730  0.35249  0.89930  1.0000
  S   S104      1.0  0.98791  0.29636  0.85383  1.0000
  H   H671      1.0  0.06672  0.27056  0.76384  1.0000
  H   H672      1.0  0.39073  0.04311  0.89915  1.0000
  N   N20       1.0  0.33958  0.08411  0.89755  1.0000
  H   H673      1.0  0.02187  0.41333  0.85806  1.0000
  C   C394      1.0  0.27968  0.32503  0.94606  1.0000
  H   H674      1.0  0.06616  0.37680  0.91082  1.0000
  C   C395      1.0  0.03039  0.31801  0.69139  1.0000
  H   H675      1.0  0.39691  0.21398  0.69174  1.0000
  H   H676      1.0  0.00576  0.35511  0.83960  1.0000
  C   C396      1.0  0.98681  0.11878  0.93267  1.0000
  H   H677      1.0  0.09915  0.49651  0.83130  1.0000
  C   C397      1.0  0.36591  0.38098  0.92917  1.0000
  C   C398      1.0  0.26913  0.42289  0.93932  1.0000
  H   H678      1.0  0.48205  0.05165  0.87699  1.0000
  H   H679      1.0  0.26495  0.34795  0.65070  1.0000
  C   C399      1.0  0.99425  0.34630  0.82279  1.0000
  H   H680      1.0  0.32780  0.10174  0.95009  1.0000
  H   H681      1.0  0.04885  0.36000  0.70357  1.0000
  H   H682      1.0  0.27311  0.37745  0.92643  1.0000
  H   H683      1.0  0.05211  0.26156  0.67098  1.0000
  H   H684      1.0  0.36330  0.49608  0.70255  1.0000
  H   H685      1.0  0.41934  0.21286  0.66216  1.0000
  H   H686      1.0  0.03742  0.09868  0.70475  1.0000
  C   C400      1.0  0.28391  0.29156  0.95163  1.0000
  H   H687      1.0  0.99392  0.30926  0.94615  1.0000
  C   C401      1.0  0.99952  0.26197  0.70700  1.0000
  H   H688      1.0  0.33772  0.34534  0.93660  1.0000
  C   C402      1.0  0.33508  0.37002  0.93457  1.0000
  H   H689      1.0  0.26225  0.49949  0.72714  1.0000
  H   H690      1.0  0.38922  0.17303  0.91462  1.0000
  C   C403      1.0  0.24522  0.43213  0.91901  1.0000
  H   H691      1.0  0.03377  0.10963  0.92560  1.0000
  H   H692      1.0  0.22728  0.47499  0.79086  1.0000
  C   C404      1.0  0.46303  0.10448  0.66065  1.0000
  H   H693      1.0  0.40457  0.47413  0.67360  1.0000
  C   C405      1.0  0.03344  0.07257  0.74077  1.0000
  C   C406      1.0  0.16566  0.52019  0.89918  1.0000
  C   C407      1.0  0.35435  0.31378  0.64861  1.0000
  H   H694      1.0  0.01843  0.37386  0.89024  1.0000
  H   H695      1.0  0.36477  0.40558  0.92621  1.0000
  H   H696      1.0  0.06460  0.37600  0.86146  1.0000
  H   H697      1.0  0.31066  0.09170  0.66001  1.0000
  H   H698      1.0  0.34651  0.05162  0.92915  1.0000
  H   H699      1.0  0.04954  0.35291  0.95018  1.0000
  H   H700      1.0  0.03301  0.04864  0.74632  1.0000
  C   C408      1.0  0.14308  0.13412  0.65391  1.0000
  H   H701      1.0  0.30392  0.07147  0.94505  1.0000
  C   C409      1.0  0.10420  0.43885  0.80791  1.0000
  H   H702      1.0  0.21153  0.20621  0.66352  1.0000
  H   H703      1.0  0.08842  0.22011  0.65976  1.0000
  C   C410      1.0  0.40952  0.11433  0.64595  1.0000
  H   H704      1.0  0.09561  0.43416  0.76557  1.0000
  C   C411      1.0  0.46213  0.03862  0.87460  1.0000
  C   C412      1.0  0.44230  0.12156  0.64130  1.0000
  H   H705      1.0  0.46717  0.03139  0.78053  1.0000
  S   S105      1.0  0.06004  0.51097  0.94181  1.0000
  H   H706      1.0  0.32408  0.40842  0.95950  1.0000
  H   H707      1.0  0.00026  0.43347  0.64166  1.0000
  H   H708      1.0  0.00291  0.26469  0.68537  1.0000
  N   N21       1.0  0.99659  0.08510  0.77922  1.0000
  C   C413      1.0  0.17386  0.12744  0.65239  1.0000
  H   H709      1.0  0.99124  0.13071  0.95133  1.0000
  C   C414      1.0  0.31552  0.08885  0.63854  1.0000
  S   S106      1.0  0.35880  0.44407  0.64237  1.0000
  C   C415      1.0  0.32191  0.38394  0.96036  1.0000
  H   H710      1.0  0.38112  0.37517  0.94596  1.0000
  H   H711      1.0  0.37679  0.31522  0.68689  1.0000
  H   H712      1.0  0.26468  0.43702  0.95706  1.0000
  H   H713      1.0  0.23408  0.51553  0.92735  1.0000
  C   C416      1.0  0.28087  0.11396  0.94981  1.0000
  H   H714      1.0  0.26017  0.10695  0.94035  1.0000
  H   H715      1.0  0.36240  0.52291  0.75656  1.0000
  C   C417      1.0  0.36944  0.03257  0.89557  1.0000
  C   C418      1.0  0.35628  0.12568  0.63977  1.0000
  H   H716      1.0  0.36667  0.02893  0.87397  1.0000
  H   H717      1.0  0.98716  0.08642  0.73692  1.0000
  C   C419      1.0  0.38980  0.16660  0.63717  1.0000
  C   C420      1.0  0.00218  0.19815  0.96803  1.0000
  H   H718      1.0  0.98939  0.50620  0.66220  1.0000
  H   H719      1.0  0.48642  0.10875  0.65597  1.0000
  H   H720      1.0  0.27026  0.28536  0.96888  1.0000
  H   H721      1.0  0.29949  0.35842  0.63848  1.0000
  H   H722      1.0  0.04592  0.61592  0.03234  1.0000
  H   H723      1.0  0.44253  0.57385  0.20105  1.0000
  H   H724      1.0  0.41822  0.64472  0.97047  1.0000
  Fe  Fe56      1.0  0.45570  0.67528  0.08755  1.0000
  C   C421      1.0  0.04491  0.60656  0.01197  1.0000
  S   S107      1.0  0.41451  0.64832  0.08671  1.0000
  H   H725      1.0  0.45727  0.60096  0.02554  1.0000
  C   C422      1.0  0.42509  0.57262  0.16188  1.0000
  H   H726      1.0  0.48256  0.01542  0.02990  1.0000
  C   C423      1.0  0.40464  0.57591  0.28732  1.0000
  H   H727      1.0  0.13449  0.52869  0.28759  1.0000
  C   C424      1.0  0.41616  0.93998  0.25037  1.0000
  C   C425      1.0  0.41612  0.55959  0.01306  1.0000
  S   S108      1.0  0.46730  0.70605  0.05431  1.0000
  S   S109      1.0  0.46359  0.70972  0.11926  1.0000
  C   C426      1.0  0.43879  0.88159  0.15285  1.0000
  C   C427      1.0  0.40024  0.55296  0.26476  1.0000
  H   H728      1.0  0.29299  0.59025  0.26911  1.0000
  H   H729      1.0  0.40739  0.68138  0.14687  1.0000
  H   H730      1.0  0.42490  0.62864  0.14553  1.0000
  H   H731      1.0  0.34603  0.58161  0.26176  1.0000
  C   C428      1.0  0.07529  0.60714  0.99878  1.0000
  C   C429      1.0  0.30542  0.57310  0.28127  1.0000
  H   H732      1.0  0.31112  0.54085  0.03372  1.0000
  H   H733      1.0  0.46239  0.95196  0.30176  1.0000
  H   H734      1.0  0.40368  0.69321  0.99170  1.0000
  H   H735      1.0  0.44143  0.97910  0.25542  1.0000
  C   C430      1.0  0.18520  0.58636  0.97215  1.0000
  H   H736      1.0  0.37471  0.53317  0.04327  1.0000
  H   H737      1.0  0.29083  0.55445  0.28488  1.0000
  H   H738      1.0  0.44144  0.90405  0.14409  1.0000
  C   C431      1.0  0.44185  0.55969  0.08714  1.0000
  C   C432      1.0  0.44185  0.59109  0.08490  1.0000
  C   C433      1.0  0.41551  0.60871  0.08807  1.0000
  C   C434      1.0  0.38907  0.59455  0.09260  1.0000
  C   C435      1.0  0.38903  0.56322  0.09479  1.0000
  C   C436      1.0  0.11488  0.55408  0.05698  1.0000
  H   H739      1.0  0.46220  0.60171  0.08078  1.0000
  H   H740      1.0  0.36852  0.60794  0.09489  1.0000
  H   H741      1.0  0.36856  0.55285  0.09876  1.0000
  H   H742      1.0  0.00973  0.56112  0.29362  1.0000
  H   H743      1.0  0.47225  0.85224  0.07296  1.0000
  Fe  Fe57      1.0  0.48589  0.91249  0.97408  1.0000
  H   H744      1.0  0.09114  0.59346  0.01124  1.0000
  C   C437      1.0  0.37099  0.53303  0.02136  1.0000
  H   H745      1.0  0.48213  0.93104  0.10007  1.0000
  H   H746      1.0  0.42635  0.86786  0.13879  1.0000
  H   H747      1.0  0.02801  0.62016  0.00049  1.0000
  H   H748      1.0  0.48268  0.63014  0.22906  1.0000
  H   H749      1.0  0.42728  0.01426  0.06546  1.0000
  H   H750      1.0  0.41963  0.94019  0.22854  1.0000
  H   H751      1.0  0.32633  0.55166  0.24767  1.0000
  H   H752      1.0  0.40817  0.59065  0.16695  1.0000
  S   S110      1.0  0.47933  0.86245  0.97577  1.0000
  H   H753      1.0  0.47518  0.71488  0.23081  1.0000
  H   H754      1.0  0.39400  0.95079  0.25454  1.0000
  H   H755      1.0  0.44844  0.58941  0.27654  1.0000
  C   C438      1.0  0.47742  0.84245  0.00614  1.0000
  H   H756      1.0  0.39981  0.66385  0.17809  1.0000
  C   C439      1.0  0.42733  0.68508  0.99067  1.0000
  H   H757      1.0  0.45656  0.98506  0.06287  1.0000
  C   C440      1.0  0.99530  0.54244  0.28945  1.0000
  H   H758      1.0  0.18374  0.56446  0.98228  1.0000
  C   C441      1.0  0.45874  0.02127  0.28812  1.0000
  H   H759      1.0  0.10237  0.56793  0.07198  1.0000
  H   H760      1.0  0.48516  0.58910  0.00158  1.0000
  H   H761      1.0  0.47587  0.77030  0.02854  1.0000
  C   C442      1.0  0.41773  0.67102  0.16489  1.0000
  H   H762      1.0  0.35932  0.58142  0.01514  1.0000
  C   C443      1.0  0.42567  0.59968  0.27898  1.0000
  Fe  Fe58      1.0  0.48013  0.73823  0.08596  1.0000
  H   H763      1.0  0.03791  0.58325  0.01340  1.0000
  H   H764      1.0  0.31114  0.58338  0.30056  1.0000
  H   H765      1.0  0.14195  0.53184  0.08647  1.0000
  H   H766      1.0  0.40491  0.57937  0.00345  1.0000
  C   C444      1.0  0.47623  0.85709  0.03068  1.0000
  H   H767      1.0  0.40221  0.99984  0.27341  1.0000
  H   H768      1.0  0.48005  0.88073  0.17353  1.0000
  H   H769      1.0  0.41489  0.56464  0.03473  1.0000
  H   H770      1.0  0.12743  0.56765  0.97578  1.0000
  H   H771      1.0  0.43351  0.99472  0.03459  1.0000
  S   S111      1.0  0.41795  0.00774  0.97157  1.0000
  C   C445      1.0  0.47688  0.81107  0.00564  1.0000
  H   H772      1.0  0.42572  0.88448  0.17143  1.0000
  H   H773      1.0  0.30723  0.58054  0.02819  1.0000
  S   S112      1.0  0.47169  0.94634  0.00512  1.0000
  H   H774      1.0  0.18591  0.60436  0.98728  1.0000
  C   C446      1.0  0.34898  0.55965  0.01439  1.0000
  C   C447      1.0  0.44935  0.55902  0.00527  1.0000
  C   C448      1.0  0.44464  0.00384  0.05226  1.0000
  C   C449      1.0  0.45393  0.62956  0.18133  1.0000
  H   H775      1.0  0.45504  0.65239  0.14299  1.0000
  H   H776      1.0  0.43181  0.57484  0.14095  1.0000
  H   H777      1.0  0.46970  0.60241  0.13403  1.0000
  H   H778      1.0  0.39122  0.56531  0.24710  1.0000
  H   H779      1.0  0.13294  0.56723  0.04893  1.0000
  H   H780      1.0  0.43726  0.62750  0.19740  1.0000
  H   H781      1.0  0.41812  0.61076  0.26027  1.0000
  H   H782      1.0  0.41672  0.91628  0.25694  1.0000
  C   C450      1.0  0.35202  0.53867  0.28348  1.0000
  H   H783      1.0  0.42281  0.54422  0.25878  1.0000
  H   H784      1.0  0.38102  0.97707  0.29361  1.0000
  H   H785      1.0  0.46533  0.84454  0.16866  1.0000
  H   H786      1.0  0.08227  0.63047  0.99900  1.0000
  C   C451      1.0  0.46909  0.86627  0.15906  1.0000
  C   C452      1.0  0.33343  0.56183  0.26654  1.0000
  H   H787      1.0  0.42642  0.61704  0.29470  1.0000
  H   H788      1.0  0.43046  0.68808  0.17523  1.0000
  C   C453      1.0  0.39745  0.99468  0.29440  1.0000
  C   C454      1.0  0.41548  0.54561  0.09245  1.0000
  C   C455      1.0  0.43820  0.64422  0.15680  1.0000
  H   H789      1.0  0.33107  0.56591  0.05437  1.0000
  C   C456      1.0  0.44083  0.95645  0.26390  1.0000
  H   H790      1.0  0.43317  0.67329  0.00951  1.0000
  H   H791      1.0  0.38335  0.58762  0.29316  1.0000
  H   H792      1.0  0.44972  0.60456  0.99037  1.0000
  H   H793      1.0  0.47442  0.85027  0.11864  1.0000
  H   H794      1.0  0.42830  0.93511  0.30036  1.0000
  H   H795      1.0  0.44130  0.70454  0.98884  1.0000
  H   H796      1.0  0.47686  0.79944  0.98690  1.0000
  S   S113      1.0  0.47247  0.78903  0.08419  1.0000
  H   H797      1.0  0.46208  0.94457  0.25791  1.0000
  C   C457      1.0  0.47420  0.84051  0.05430  1.0000
  C   C458      1.0  0.32307  0.56178  0.03390  1.0000
  H   H798      1.0  0.46240  0.54628  0.08503  1.0000
  C   C459      1.0  0.41016  0.54301  0.16462  1.0000
  C   C460      1.0  0.46099  0.59039  0.00575  1.0000
  C   C461      1.0  0.47448  0.80907  0.05384  1.0000
  H   H799      1.0  0.33957  0.55624  0.99432  1.0000
  H   H800      1.0  0.45307  0.54932  0.98518  1.0000
  H   H801      1.0  0.40218  0.54009  0.18522  1.0000
  H   H802      1.0  0.33658  0.01239  0.29594  1.0000
  H   H803      1.0  0.39075  0.54289  0.15109  1.0000
  H   H804      1.0  0.46276  0.54530  0.01976  1.0000
  H   H805      1.0  0.47447  0.00516  0.27784  1.0000
  H   H806      1.0  0.13119  0.60502  0.98662  1.0000
  C   C462      1.0  0.47601  0.79442  0.02931  1.0000
  C   C463      1.0  0.43914  0.95594  0.29478  1.0000
  Fe  Fe59      1.0  0.45996  0.97732  0.97107  1.0000
  C   C464      1.0  0.45193  0.57394  0.18073  1.0000
  H   H807      1.0  0.47624  0.88122  0.03146  1.0000
  H   H808      1.0  0.09947  0.54890  0.04070  1.0000
  H   H809      1.0  0.18551  0.56759  0.27628  1.0000
  H   H810      1.0  0.38228  0.02572  0.22104  1.0000
  H   H811      1.0  0.43718  0.02423  0.21724  1.0000
  H   H812      1.0  0.46899  0.64680  0.18822  1.0000
  H   H813      1.0  0.07343  0.56958  0.97210  1.0000
  C   C465      1.0  0.07504  0.59422  0.97016  1.0000
  N   N22       1.0  0.47130  0.60001  0.17716  1.0000
  H   H814      1.0  0.46526  0.59552  0.23243  1.0000
  H   H815      1.0  0.46539  0.55243  0.17911  1.0000
  C   C466      1.0  0.48613  0.60551  0.22685  1.0000
  C   C467      1.0  0.48612  0.59952  0.15029  1.0000
  N   N23       1.0  0.38129  0.52743  0.27171  1.0000
  N   N24       1.0  0.40046  0.53142  0.00710  1.0000
  H   H816      1.0  0.15682  0.57595  0.30077  1.0000
  C   C468      1.0  0.17894  0.56451  0.29730  1.0000
  H   H817      1.0  0.40124  0.01063  0.60878  1.0000
  N   N25       1.0  0.41420  0.01620  0.56786  1.0000
  H   H818      1.0  0.19618  0.57911  0.44260  1.0000
  H   H819      1.0  0.37698  0.02232  0.32706  1.0000
  S   S114      1.0  0.34082  0.57359  0.35735  1.0000
  H   H820      1.0  0.03979  0.55609  0.37019  1.0000
  C   C469      1.0  0.41764  0.92842  0.56744  1.0000
  H   H821      1.0  0.40575  0.99153  0.34818  1.0000
  H   H822      1.0  0.46719  0.61642  0.46155  1.0000
  C   C470      1.0  0.47086  0.84800  0.50842  1.0000
  H   H823      1.0  0.43940  0.01308  0.53134  1.0000
  H   H824      1.0  0.17531  0.57063  0.47177  1.0000
  H   H825      1.0  0.42844  0.96053  0.59669  1.0000
  H   H826      1.0  0.45548  0.97222  0.36007  1.0000
  Fe  Fe60      1.0  0.44723  0.98369  0.47669  1.0000
  S   S115      1.0  0.47541  0.86953  0.47924  1.0000
  H   H827      1.0  0.40350  0.58103  0.42220  1.0000
  H   H828      1.0  0.06704  0.57060  0.46625  1.0000
  H   H829      1.0  0.41758  0.60073  0.54979  1.0000
  H   H830      1.0  0.30299  0.55250  0.56949  1.0000
  H   H831      1.0  0.44309  0.93108  0.39006  1.0000
  C   C471      1.0  0.38010  0.57256  0.35742  1.0000
  C   C472      1.0  0.39736  0.54639  0.36303  1.0000
  C   C473      1.0  0.42854  0.54643  0.36243  1.0000
  C   C474      1.0  0.44283  0.57267  0.35656  1.0000
  C   C475      1.0  0.42552  0.59896  0.35148  1.0000
  C   C476      1.0  0.39437  0.59884  0.35177  1.0000
  H   H832      1.0  0.42257  0.71504  0.36348  1.0000
  H   H833      1.0  0.45029  0.60807  0.61124  1.0000
  H   H834      1.0  0.43603  0.61928  0.34675  1.0000
  H   H835      1.0  0.38125  0.61921  0.34737  1.0000
  H   H836      1.0  0.38601  0.70743  0.37507  1.0000
  H   H837      1.0  0.38444  0.98045  0.57374  1.0000
  H   H838      1.0  0.36475  0.53909  0.49792  1.0000
  Fe  Fe61      1.0  0.44152  0.67869  0.59941  1.0000
  H   H839      1.0  0.43361  0.65246  0.47104  1.0000
  S   S116      1.0  0.40034  0.65230  0.60538  1.0000
  H   H840      1.0  0.40823  0.92783  0.37351  1.0000
  H   H841      1.0  0.03645  0.58577  0.50823  1.0000
  Fe  Fe62      1.0  0.46691  0.73985  0.58732  1.0000
  H   H842      1.0  0.41824  0.53599  0.56692  1.0000
  H   H843      1.0  0.40875  0.54086  0.47055  1.0000
  C   C477      1.0  0.44357  0.62440  0.42373  1.0000
  S   S117      1.0  0.44905  0.70389  0.56146  1.0000
  H   H844      1.0  0.44155  0.58839  0.45379  1.0000
  H   H845      1.0  0.35362  0.53059  0.56934  1.0000
  H   H846      1.0  0.08776  0.60253  0.50008  1.0000
  C   C478      1.0  0.47232  0.79881  0.52997  1.0000
  Fe  Fe63      1.0  0.47753  0.92029  0.47681  1.0000
  H   H847      1.0  0.39646  0.95706  0.33365  1.0000
  C   C479      1.0  0.40478  0.55034  0.61808  1.0000
  C   C480      1.0  0.38166  0.02373  0.30558  1.0000
  C   C481      1.0  0.42993  0.59677  0.61264  1.0000
  C   C482      1.0  0.40270  0.61311  0.61076  1.0000
  C   C483      1.0  0.37649  0.59788  0.61297  1.0000
  C   C484      1.0  0.37750  0.56661  0.61637  1.0000
  H   H848      1.0  0.45772  0.88517  0.53356  1.0000
  H   H849      1.0  0.47438  0.59267  0.51647  1.0000
  H   H850      1.0  0.41657  0.92569  0.54554  1.0000
  H   H851      1.0  0.40230  0.98003  0.54219  1.0000
  H   H852      1.0  0.98877  0.58455  0.36794  1.0000
  C   C485      1.0  0.41204  0.70937  0.48292  1.0000
  H   H853      1.0  0.43807  0.55422  0.50736  1.0000
  C   C486      1.0  0.46290  0.81198  0.55394  1.0000
  C   C487      1.0  0.45752  0.84326  0.55497  1.0000
  C   C488      1.0  0.46186  0.86120  0.53248  1.0000
  H   H854      1.0  0.07891  0.56070  0.36628  1.0000
  H   H855      1.0  0.40073  0.64332  0.39151  1.0000
  H   H856      1.0  0.44956  0.85370  0.57314  1.0000
  H   H857      1.0  0.37649  0.60548  0.40565  1.0000
  H   H858      1.0  0.36521  0.57253  0.45770  1.0000
  H   H859      1.0  0.23651  0.54213  0.52738  1.0000
  Fe  Fe64      1.0  0.00927  0.52926  0.47358  1.0000
  C   C489      1.0  0.17685  0.58659  0.45505  1.0000
  N   N26       1.0  0.41624  0.64305  0.43207  1.0000
  H   H860      1.0  0.37190  0.63765  0.44659  1.0000
  H   H861      1.0  0.18058  0.60921  0.46299  1.0000
  H   H862      1.0  0.45978  0.99608  0.60313  1.0000
  C   C490      1.0  0.35924  0.58058  0.43750  1.0000
  H   H863      1.0  0.36378  0.58013  0.52817  1.0000
  H   H864      1.0  0.11987  0.57699  0.47000  1.0000
  H   H865      1.0  0.46138  0.63903  0.41741  1.0000
  N   N27       1.0  0.39795  0.54424  0.52864  1.0000
  C   C491      1.0  0.43896  0.95632  0.35361  1.0000
  C   C492      1.0  0.41733  0.02322  0.59708  1.0000
  C   C493      1.0  0.38438  0.59733  0.42527  1.0000
  H   H866      1.0  0.33866  0.59534  0.43858  1.0000
  H   H867      1.0  0.47472  0.56888  0.41755  1.0000
  H   H868      1.0  0.40826  0.58125  0.50360  1.0000
  C   C494      1.0  0.45776  0.60328  0.44523  1.0000
  C   C495      1.0  0.41482  0.97247  0.33599  1.0000
  H   H869      1.0  0.40747  0.67975  0.35565  1.0000
  H   H870      1.0  0.35468  0.56100  0.42485  1.0000
  S   S118      1.0  0.40469  0.01295  0.48153  1.0000
  H   H871      1.0  0.04314  0.62091  0.52384  1.0000
  H   H872      1.0  0.38101  0.66941  0.41209  1.0000
  C   C496      1.0  0.44197  0.02105  0.55214  1.0000
  H   H873      1.0  0.17253  0.52981  0.32523  1.0000
  H   H874      1.0  0.39938  0.61497  0.46296  1.0000
  N   N28       1.0  0.42481  0.98286  0.30904  1.0000
  H   H875      1.0  0.44665  0.57191  0.55433  1.0000
  H   H876      1.0  0.06612  0.53292  0.38882  1.0000
  H   H877      1.0  0.42776  0.72372  0.47278  1.0000
  C   C497      1.0  0.32077  0.56572  0.56104  1.0000
  C   C498      1.0  0.39992  0.68699  0.46335  1.0000
  C   C499      1.0  0.37289  0.56241  0.54192  1.0000
  H   H878      1.0  0.39357  0.72405  0.49105  1.0000
  H   H879      1.0  0.42357  0.69761  0.49973  1.0000
  H   H880      1.0  0.45219  0.55328  0.61787  1.0000
  N   N29       1.0  0.09131  0.60022  0.44129  1.0000
  C   C500      1.0  0.08912  0.57734  0.41945  1.0000
  C   C501      1.0  0.12080  0.59568  0.45542  1.0000
  C   C502      1.0  0.06710  0.59486  0.46121  1.0000
  C   C503      1.0  0.08636  0.63185  0.43121  1.0000
  C   C504      1.0  0.10636  0.64141  0.40816  1.0000
  C   C505      1.0  0.05993  0.57894  0.40316  1.0000
  C   C506      1.0  0.06889  0.61197  0.48803  1.0000
  C   C507      1.0  0.14863  0.58718  0.43831  1.0000
  C   C508      1.0  0.47598  0.81671  0.50730  1.0000
  C   C509      1.0  0.09424  0.67079  0.39579  1.0000
  C   C510      1.0  0.06135  0.55575  0.38078  1.0000
  H   H881      1.0  0.38094  0.57428  0.55965  1.0000
  H   H882      1.0  0.43380  0.91109  0.57542  1.0000
  H   H883      1.0  0.10740  0.57858  0.40491  1.0000
  H   H884      1.0  0.12542  0.61591  0.46726  1.0000
  C   C511      1.0  0.40364  0.65935  0.40801  1.0000
  H   H885      1.0  0.41556  0.96189  0.39131  1.0000
  H   H886      1.0  0.04483  0.60078  0.45261  1.0000
  H   H887      1.0  0.06280  0.63617  0.42515  1.0000
  H   H888      1.0  0.08973  0.64819  0.44736  1.0000
  H   H889      1.0  0.10824  0.62460  0.39203  1.0000
  H   H890      1.0  0.12874  0.64552  0.41588  1.0000
  H   H891      1.0  0.04068  0.57434  0.41585  1.0000
  H   H892      1.0  0.05586  0.60125  0.39391  1.0000
  H   H893      1.0  0.07188  0.63609  0.48509  1.0000
  H   H894      1.0  0.45065  0.93733  0.34314  1.0000
  H   H895      1.0  0.14711  0.56449  0.42989  1.0000
  H   H896      1.0  0.15140  0.60252  0.42153  1.0000
  H   H897      1.0  0.07213  0.66803  0.38675  1.0000
  H   H898      1.0  0.09236  0.68881  0.41099  1.0000
  H   H899      1.0  0.10951  0.67770  0.37996  1.0000
  C   C512      1.0  0.43095  0.56563  0.61652  1.0000
  H   H900      1.0  0.31147  0.57875  0.54394  1.0000
  H   H901      1.0  0.39553  0.92478  0.57606  1.0000
  S   S119      1.0  0.45807  0.79055  0.58319  1.0000
  C   C513      1.0  0.21508  0.54337  0.51648  1.0000
  C   C514      1.0  0.42756  0.95945  0.57471  1.0000
  C   C515      1.0  0.42544  0.94361  0.37862  1.0000
  H   H902      1.0  0.42418  0.70288  0.41091  1.0000
  C   C516      1.0  0.34664  0.54461  0.55206  1.0000
  S   S120      1.0  0.45572  0.94920  0.44457  1.0000
  H   H903      1.0  0.45001  0.96131  0.56653  1.0000
  C   C517      1.0  0.42494  0.66468  0.45324  1.0000
  C   C518      1.0  0.04070  0.60953  0.50444  1.0000
  C   C519      1.0  0.42238  0.68423  0.39658  1.0000
  S   S121      1.0  0.46413  0.95276  0.50921  1.0000
  H   H904      1.0  0.38270  0.67491  0.47392  1.0000
  C   C520      1.0  0.39281  0.62385  0.44309  1.0000
  C   C521      1.0  0.40860  0.69734  0.37115  1.0000
  H   H905      1.0  0.43894  0.61081  0.40586  1.0000
  H   H906      1.0  0.09205  0.55448  0.42807  1.0000
  H   H907      1.0  0.44365  0.67764  0.44629  1.0000
  H   H908      1.0  0.38926  0.69992  0.44685  1.0000
  H   H909      1.0  0.35717  0.55520  0.61762  1.0000
  H   H910      1.0  0.44494  0.67521  0.39154  1.0000
  C   C522      1.0  0.41959  0.56598  0.51832  1.0000
  H   H911      1.0  0.48100  0.72969  0.46193  1.0000
  H   H912      1.0  0.35531  0.61034  0.61176  1.0000
  H   H913      1.0  0.46128  0.00731  0.55982  1.0000
  S   S122      1.0  0.48213  0.57138  0.35501  1.0000
  C   C523      1.0  0.43424  0.58581  0.53939  1.0000
  C   C524      1.0  0.44665  0.00661  0.31334  1.0000
  C   C525      1.0  0.40577  0.98435  0.56379  1.0000
  H   H914      1.0  0.02131  0.62034  0.49394  1.0000
  C   C526      1.0  0.44857  0.01738  0.60969  1.0000
  S   S123      1.0  0.45464  0.71682  0.62551  1.0000
  H   H915      1.0  0.34909  0.01188  0.56099  1.0000
  H   H916      1.0  0.47638  0.77480  0.52878  1.0000
  H   H917      1.0  0.20585  0.56687  0.51705  1.0000
  H   H918      1.0  0.32799  0.58133  0.57654  1.0000
  H   H919      1.0  0.46621  0.61990  0.54212  1.0000
  H   H920      1.0  0.98807  0.60247  0.40007  1.0000
  H   H921      1.0  0.44486  0.62141  0.51201  1.0000
  H   H922      1.0  0.98952  0.53409  0.33087  1.0000
  C   C527      1.0  0.45621  0.60607  0.52653  1.0000
  H   H923      1.0  0.46651  0.99717  0.32410  1.0000
  H   H924      1.0  0.21909  0.53692  0.49544  1.0000
  C   C528      1.0  0.17849  0.53126  0.30402  1.0000
  H   H925      1.0  0.48277  0.80626  0.48873  1.0000
  Fe  Fe65      1.0  0.31529  0.53174  0.36298  1.0000
  H   H926      1.0  0.19531  0.57509  0.31021  1.0000
  S   S124      1.0  0.48661  0.65556  0.60006  1.0000
  H   H927      1.0  0.35529  0.54842  0.30354  1.0000
  C   C529      1.0  0.48304  0.58330  0.43356  1.0000
  S   S125      1.0  0.48333  0.65745  0.34644  1.0000
  H   H928      1.0  0.33814  0.52983  0.53653  1.0000
  H   H929      1.0  0.18984  0.53078  0.55007  1.0000
  H   H930      1.0  0.41446  0.56462  0.30500  1.0000
  H   H931      1.0  0.48142  0.84268  0.60836  1.0000
  H   H932      1.0  0.43698  0.02454  0.32658  1.0000
  C   C530      1.0  0.38492  0.52681  0.50604  1.0000
  H   H933      1.0  0.35104  0.98964  0.90421  1.0000
  H   H934      1.0  0.11537  0.63653  0.92796  1.0000
  H   H935      1.0  0.37325  0.65065  0.95264  1.0000
  H   H936      1.0  0.43562  0.99639  0.64656  1.0000
  S   S126      1.0  0.35554  0.58842  0.85508  1.0000
  H   H937      1.0  0.05656  0.56940  0.87306  1.0000
  S   S127      1.0  0.46944  0.94179  0.93990  1.0000
  H   H938      1.0  0.45596  0.68216  0.89399  1.0000
  H   H939      1.0  0.47950  0.00307  0.84861  1.0000
  H   H940      1.0  0.43882  0.98195  0.81218  1.0000
  S   S128      1.0  0.30139  0.53905  0.89732  1.0000
  H   H941      1.0  0.48228  0.65216  0.92919  1.0000
  H   H942      1.0  0.43621  0.79924  0.78924  1.0000
  H   H943      1.0  0.47360  0.91182  0.73466  1.0000
  H   H944      1.0  0.39087  0.58276  0.74640  1.0000
  H   H945      1.0  0.46955  0.01536  0.64848  1.0000
  H   H946      1.0  0.16098  0.61434  0.94396  1.0000
  H   H947      1.0  0.45998  0.61959  0.69012  1.0000
  C   C531      1.0  0.46568  0.01880  0.79951  1.0000
  H   H948      1.0  0.09500  0.55770  0.78155  1.0000
  H   H949      1.0  0.41279  0.56532  0.95794  1.0000
  C   C532      1.0  0.43572  0.61720  0.68843  1.0000
  H   H950      1.0  0.43613  0.61774  0.93553  1.0000
  C   C533      1.0  0.30515  0.55368  0.67670  1.0000
  C   C534      1.0  0.12903  0.59101  0.96854  1.0000
  H   H951      1.0  0.44105  0.56942  0.68997  1.0000
  H   H952      1.0  0.33061  0.64727  0.92167  1.0000
  C   C535      1.0  0.45496  0.78902  0.90590  1.0000
  H   H953      1.0  0.39545  0.63140  0.83667  1.0000
  H   H954      1.0  0.02558  0.54372  0.66951  1.0000
  H   H955      1.0  0.44429  0.78941  0.88605  1.0000
  H   H956      1.0  0.44534  0.69423  0.93749  1.0000
  H   H957      1.0  0.48241  0.63749  0.89602  1.0000
  C   C536      1.0  0.39489  0.58710  0.85319  1.0000
  C   C537      1.0  0.41254  0.56223  0.86170  1.0000
  C   C538      1.0  0.44374  0.56266  0.86091  1.0000
  C   C539      1.0  0.45768  0.58787  0.85154  1.0000
  C   C540      1.0  0.43999  0.61245  0.84254  1.0000
  C   C541      1.0  0.40883  0.61216  0.84357  1.0000
  H   H958      1.0  0.38460  0.57009  0.79513  1.0000
  C   C542      1.0  0.38976  0.55876  0.74071  1.0000
  H   H959      1.0  0.45029  0.63164  0.83454  1.0000
  C   C543      1.0  0.07247  0.65221  0.94391  1.0000
  H   H960      1.0  0.39232  0.70161  0.87770  1.0000
  C   C544      1.0  0.39409  0.58270  0.69720  1.0000
  H   H961      1.0  0.99127  0.55534  0.68562  1.0000
  C   C545      1.0  0.44129  0.63068  0.91761  1.0000
  H   H962      1.0  0.37448  0.56972  0.96700  1.0000
  H   H963      1.0  0.34881  0.53500  0.66768  1.0000
  C   C546      1.0  0.34502  0.62720  0.92685  1.0000
  H   H964      1.0  0.47330  0.82776  0.65292  1.0000
  H   H965      1.0  0.33897  0.57721  0.71611  1.0000
  H   H966      1.0  0.43970  0.87043  0.63763  1.0000
  C   C547      1.0  0.45654  0.87351  0.65333  1.0000
  H   H967      1.0  0.29790  0.55260  0.65569  1.0000
  H   H968      1.0  0.00267  0.55322  0.88213  1.0000
  H   H969      1.0  0.48034  0.72919  0.96227  1.0000
  H   H970      1.0  0.33972  0.53763  0.71760  1.0000
  C   C548      1.0  0.15889  0.59221  0.95344  1.0000
  H   H971      1.0  0.11518  0.64558  0.96205  1.0000
  H   H972      1.0  0.45657  0.96932  0.76701  1.0000
  H   H973      1.0  0.00141  0.57253  0.65468  1.0000
  C   C549      1.0  0.42771  0.58739  0.70046  1.0000
  C   C550      1.0  0.42649  0.67954  0.94033  1.0000
  C   C551      1.0  0.48234  0.85016  0.65038  1.0000
  H   H974      1.0  0.41237  0.72088  0.90290  1.0000
  C   C552      1.0  0.41471  0.70612  0.88524  1.0000
  H   H975      1.0  0.41723  0.01411  0.79961  1.0000
  C   C553      1.0  0.00205  0.55129  0.66605  1.0000
  H   H976      1.0  0.34439  0.57532  0.66683  1.0000
  N   N30       1.0  0.42282  0.65986  0.91625  1.0000
  H   H977      1.0  0.43455  0.58738  0.72160  1.0000
  H   H978      1.0  0.44212  0.00311  0.89695  1.0000
  H   H979      1.0  0.34634  0.61180  0.90955  1.0000
  C   C554      1.0  0.43669  0.98472  0.76997  1.0000
  H   H980      1.0  0.07688  0.54283  0.81000  1.0000
  C   C555      1.0  0.07674  0.68301  0.93198  1.0000
  C   C556      1.0  0.37140  0.00159  0.90838  1.0000
  H   H981      1.0  0.34651  0.56015  0.76087  1.0000
  H   H982      1.0  0.39071  0.98809  0.90031  1.0000
  H   H983      1.0  0.42412  0.63621  0.69905  1.0000
  H   H984      1.0  0.16081  0.57468  0.93787  1.0000
  H   H985      1.0  0.48423  0.80986  0.81110  1.0000
  C   C557      1.0  0.10103  0.58219  0.92829  1.0000
  H   H986      1.0  0.37666  0.67406  0.90983  1.0000
  C   C558      1.0  0.37593  0.63607  0.93487  1.0000
  H   H987      1.0  0.41672  0.97147  0.76883  1.0000
  C   C559      1.0  0.34957  0.55648  0.70714  1.0000
  H   H988      1.0  0.38113  0.56442  0.91834  1.0000
  C   C560      1.0  0.07384  0.58694  0.90980  1.0000
  H   H989      1.0  0.09640  0.56917  0.87426  1.0000
  H   H990      1.0  0.48592  0.58542  0.91362  1.0000
  H   H991      1.0  0.45240  0.72925  0.87001  1.0000
  C   C561      1.0  0.39076  0.65310  0.91224  1.0000
  H   H992      1.0  0.43563  0.61589  0.90076  1.0000
  H   H993      1.0  0.40222  0.54273  0.86910  1.0000
  H   H994      1.0  0.12046  0.58630  0.91555  1.0000
  C   C562      1.0  0.39190  0.55357  0.95948  1.0000
  C   C563      1.0  0.38318  0.54446  0.93140  1.0000
  H   H995      1.0  0.29412  0.57389  0.68599  1.0000
  H   H996      1.0  0.44295  0.80586  0.91876  1.0000
  H   H997      1.0  0.38147  0.60354  0.70378  1.0000
  N   N31       1.0  0.38268  0.55591  0.71136  1.0000
  C   C564      1.0  0.43001  0.72328  0.86345  1.0000
  H   H998      1.0  0.37420  0.00342  0.93019  1.0000
  H   H999      1.0  0.05284  0.58308  0.92031  1.0000
  C   C565      1.0  0.09878  0.54722  0.80131  1.0000
  H   H1000     1.0  0.05390  0.60200  0.96058  1.0000
  H   H1001     1.0  0.45315  0.76641  0.91460  1.0000
  H   H1002     1.0  0.07294  0.60984  0.90144  1.0000
  C   C566      1.0  0.07620  0.56548  0.88610  1.0000
  H   H1003     1.0  0.48212  0.00180  0.89803  1.0000
  H   H1004     1.0  0.10306  0.55811  0.93371  1.0000
  H   H1005     1.0  0.39057  0.58109  0.67540  1.0000
  C   C567      1.0  0.10257  0.63378  0.94661  1.0000
  H   H1006     1.0  0.05635  0.64100  0.93141  1.0000
  H   H1007     1.0  0.38891  0.61529  0.94018  1.0000
  H   H1008     1.0  0.07704  0.54185  0.89279  1.0000
  H   H1009     1.0  0.38835  0.64016  0.89347  1.0000
  H   H1010     1.0  0.48028  0.81276  0.75002  1.0000
  H   H1011     1.0  0.33470  0.61547  0.94357  1.0000
  H   H1012     1.0  0.47041  0.84083  0.77351  1.0000
  H   H1013     1.0  0.40020  0.52838  0.92276  1.0000
  H   H1014     1.0  0.48193  0.73602  0.73410  1.0000
  C   C568      1.0  0.46174  0.01687  0.89796  1.0000
  C   C569      1.0  0.43251  0.67640  0.89191  1.0000
  S   S129      1.0  0.29303  0.53442  0.83269  1.0000
  H   H1015     1.0  0.41670  0.74423  0.85881  1.0000
  C   C570      1.0  0.44682  0.01654  0.63997  1.0000
  H   H1016     1.0  0.43184  0.66180  0.87408  1.0000
  H   H1017     1.0  0.44048  0.01097  0.84740  1.0000
  H   H1018     1.0  0.43220  0.70958  0.84507  1.0000
  H   H1019     1.0  0.08581  0.68080  0.91154  1.0000
  Fe  Fe66      1.0  0.32916  0.54695  0.86098  1.0000
  H   H1020     1.0  0.39760  0.52901  0.67764  1.0000
  S   S130      1.0  0.21725  0.52846  0.87213  1.0000
  H   H1021     1.0  0.45554  0.77035  0.76950  1.0000
  C   C571      1.0  0.33883  0.55506  0.67795  1.0000
  N   N32       1.0  0.10139  0.60093  0.95322  1.0000
  H   H1022     1.0  0.42964  0.61832  0.66708  1.0000
  H   H1023     1.0  0.48294  0.90543  0.70025  1.0000
  C   C572      1.0  0.45570  0.78298  0.78850  1.0000
  H   H1024     1.0  0.45590  0.65465  0.96827  1.0000
  H   H1025     1.0  0.40057  0.53234  0.79098  1.0000
  H   H1026     1.0  0.40666  0.69527  0.94264  1.0000
  H   H1027     1.0  0.45394  0.76669  0.80496  1.0000
  H   H1028     1.0  0.11001  0.56317  0.81425  1.0000
  H   H1029     1.0  0.09202  0.69565  0.94443  1.0000
  H   H1030     1.0  0.06205  0.65581  0.96367  1.0000
  H   H1031     1.0  0.36337  0.53859  0.80336  1.0000
  C   C573      1.0  0.43800  0.99997  0.79703  1.0000
  H   H1032     1.0  0.43537  0.00162  0.75382  1.0000
  C   C574      1.0  0.47534  0.63339  0.91674  1.0000
  H   H1033     1.0  0.48034  0.85725  0.72462  1.0000
  H   H1034     1.0  0.05505  0.69596  0.93099  1.0000
  C   C575      1.0  0.39826  0.52821  0.69973  1.0000
  H   H1035     1.0  0.41223  0.54841  0.74513  1.0000
  H   H1036     1.0  0.45716  0.54338  0.86767  1.0000
  H   H1037     1.0  0.46452  0.89647  0.65186  1.0000
  H   H1038     1.0  0.44587  0.87108  0.67299  1.0000
  C   C576      1.0  0.37992  0.54690  0.78927  1.0000
  C   C577      1.0  0.46202  0.02171  0.84776  1.0000
  H   H1039     1.0  0.29801  0.53349  0.68709  1.0000
  C   C578      1.0  0.48449  0.79897  0.79131  1.0000
  C   C579      1.0  0.36766  0.54620  0.76100  1.0000
  S   S131      1.0  0.99956  0.56777  0.96702  1.0000
  H   H1040     1.0  0.36151  0.53395  0.93163  1.0000
  H   H1041     1.0  0.42225  0.52736  0.70481  1.0000
  H   H1042     1.0  0.48557  0.00287  0.79987  1.0000
  C   C580      1.0  0.43249  0.66360  0.96732  1.0000
  H   H1043     1.0  0.20616  0.58570  0.96059  1.0000
  C   C581      1.0  0.98667  0.52721  0.65063  1.0000
  H   H1044     1.0  0.98797  0.58222  0.90408  1.0000
  H   H1045     1.0  0.53359  0.03806  0.04554  1.0000
  C   C582      1.0  0.98490  0.33147  0.26801  1.0000
  H   H1046     1.0  0.92770  0.05810  0.02975  1.0000
  S   S132      1.0  0.84190  0.07680  0.10402  1.0000
  H   H1047     1.0  0.92950  0.28903  0.24214  1.0000
  N   N33       1.0  0.92981  0.12718  0.19385  1.0000
  H   H1048     1.0  0.94137  0.38316  0.14920  1.0000
  Fe  Fe67      1.0  0.96674  0.46700  0.23278  1.0000
  H   H1049     1.0  0.67534  0.05013  0.26544  1.0000
  S   S133      1.0  0.92342  0.49556  0.23497  1.0000
  H   H1050     1.0  0.56484  0.08442  0.11706  1.0000
  H   H1051     1.0  0.91684  0.04656  0.25599  1.0000
  H   H1052     1.0  0.91858  0.49628  0.13018  1.0000
  H   H1053     1.0  0.89527  0.17369  0.16836  1.0000
  H   H1054     1.0  0.90301  0.12823  0.97756  1.0000
  H   H1055     1.0  0.94819  0.51057  0.28791  1.0000
  H   H1056     1.0  0.94914  0.26619  0.14763  1.0000
  H   H1057     1.0  0.92210  0.12053  0.28767  1.0000
  C   C583      1.0  0.69501  0.03948  0.27569  1.0000
  C   C584      1.0  0.92163  0.51894  0.13836  1.0000
  H   H1058     1.0  0.95810  0.52252  0.98090  1.0000
  H   H1059     1.0  0.91909  0.15062  0.02044  1.0000
  C   C585      1.0  0.92901  0.14134  0.22105  1.0000
  H   H1060     1.0  0.95027  0.15191  0.22523  1.0000
  H   H1061     1.0  0.95312  0.09197  0.17154  1.0000
  H   H1062     1.0  0.88183  0.13402  0.19409  1.0000
  C   C586      1.0  0.92811  0.13543  0.27114  1.0000
  C   C587      1.0  0.95655  0.32267  0.16038  1.0000
  C   C588      1.0  0.89086  0.08600  0.19198  1.0000
  H   H1063     1.0  0.91008  0.36600  0.16423  1.0000
  H   H1064     1.0  0.96833  0.02982  0.07239  1.0000
  C   C589      1.0  0.98043  0.06623  0.04793  1.0000
  C   C590      1.0  0.93889  0.13490  0.01842  1.0000
  H   H1065     1.0  0.60987  0.07711  0.08323  1.0000
  H   H1066     1.0  0.97506  0.35954  0.18273  1.0000
  C   C591      1.0  0.92654  0.04824  0.12297  1.0000
  C   C592      1.0  0.88062  0.07510  0.10970  1.0000
  C   C593      1.0  0.89678  0.10026  0.10425  1.0000
  H   H1067     1.0  0.88536  0.12043  0.09680  1.0000
  H   H1068     1.0  0.56333  0.06934  0.00096  1.0000
  H   H1069     1.0  0.95306  0.15574  0.98300  1.0000
  H   H1070     1.0  0.92100  0.05382  0.06375  1.0000
  H   H1071     1.0  0.92554  0.18557  0.12918  1.0000
  C   C594      1.0  0.92771  0.09933  0.10794  1.0000
  C   C595      1.0  0.52430  0.06146  0.04321  1.0000
  H   H1072     1.0  0.95103  0.20424  0.15038  1.0000
  C   C596      1.0  0.92776  0.19799  0.14811  1.0000
  C   C597      1.0  0.89563  0.04921  0.11940  1.0000
  C   C598      1.0  0.93947  0.15021  0.17426  1.0000
  C   C599      1.0  0.91868  0.17894  0.17154  1.0000
  H   H1073     1.0  0.52054  0.03496  0.11163  1.0000
  H   H1074     1.0  0.91320  0.21879  0.14715  1.0000
  H   H1075     1.0  0.92968  0.39328  0.18235  1.0000
  H   H1076     1.0  0.90426  0.06980  0.17953  1.0000
  H   H1077     1.0  0.91764  0.29938  0.19459  1.0000
  H   H1078     1.0  0.64042  0.08185  0.06090  1.0000
  H   H1079     1.0  0.89737  0.51446  0.29659  1.0000
  H   H1080     1.0  0.97070  0.30227  0.21267  1.0000
  C   C600      1.0  0.54389  0.05625  0.99615  1.0000
  H   H1081     1.0  0.97797  0.26479  0.20286  1.0000
  H   H1082     1.0  0.54311  0.07571  0.04766  1.0000
  H   H1083     1.0  0.93542  0.09931  0.24388  1.0000
  C   C601      1.0  0.94883  0.13278  0.98945  1.0000
  C   C602      1.0  0.94274  0.07322  0.11721  1.0000
  H   H1084     1.0  0.94424  0.34356  0.19901  1.0000
  H   H1085     1.0  0.82852  0.06718  0.00747  1.0000
  C   C603      1.0  0.93231  0.37449  0.16798  1.0000
  C   C604      1.0  0.95203  0.10066  0.19227  1.0000
  H   H1086     1.0  0.97027  0.08423  0.06077  1.0000
  C   C605      1.0  0.95331  0.34985  0.17949  1.0000
  H   H1087     1.0  0.88154  0.06449  0.01878  1.0000
  C   C606      1.0  0.51225  0.07661  0.08901  1.0000
  H   H1088     1.0  0.96991  0.11881  0.98892  1.0000
  C   C607      1.0  0.96941  0.34467  0.28943  1.0000
  H   H1089     1.0  0.82386  0.03203  0.02374  1.0000
  Fe  Fe68      1.0  0.50867  0.03009  0.21549  1.0000
  C   C608      1.0  0.89928  0.11828  0.18551  1.0000
  H   H1090     1.0  0.49430  0.08310  0.10344  1.0000
  H   H1091     1.0  0.95205  0.13959  0.27302  1.0000
  H   H1092     1.0  0.90109  0.26609  0.22969  1.0000
  H   H1093     1.0  0.56657  0.04901  0.13381  1.0000
  H   H1094     1.0  0.52524  0.09677  0.08651  1.0000
  C   C609      1.0  0.83697  0.05224  0.02367  1.0000
  S   S134      1.0  0.97976  0.43674  0.26708  1.0000
  H   H1095     1.0  0.49056  0.13352  0.07385  1.0000
  H   H1096     1.0  0.90635  0.41454  0.28900  1.0000
  H   H1097     1.0  0.91993  0.19291  0.18969  1.0000
  H   H1098     1.0  0.94227  0.13985  0.15420  1.0000
  C   C610      1.0  0.98399  0.24727  0.10577  1.0000
  H   H1099     1.0  0.81580  0.06238  0.27860  1.0000
  H   H1100     1.0  0.89479  0.08039  0.21309  1.0000
  H   H1101     1.0  0.86924  0.05373  0.27883  1.0000
  H   H1102     1.0  0.89657  0.12016  0.16352  1.0000
  H   H1103     1.0  0.92532  0.09471  0.97838  1.0000
  C   C611      1.0  0.53343  0.05276  0.10264  1.0000
  H   H1104     1.0  0.85494  0.04620  0.24634  1.0000
  H   H1105     1.0  0.91189  0.16018  0.22188  1.0000
  C   C612      1.0  0.86975  0.04351  0.01914  1.0000
  C   C613      1.0  0.85660  0.03786  0.26699  1.0000
  H   H1106     1.0  0.84364  0.09628  0.19863  1.0000
  H   H1107     1.0  0.94515  0.08170  0.20442  1.0000
  C   C614      1.0  0.62995  0.06580  0.07423  1.0000
  H   H1108     1.0  0.85332  0.08690  0.16465  1.0000
  H   H1109     1.0  0.96145  0.15821  0.17967  1.0000
  H   H1110     1.0  0.51299  0.12347  0.04536  1.0000
  H   H1111     1.0  0.97378  0.29410  0.11228  1.0000
  H   H1112     1.0  0.93991  0.11864  0.10314  1.0000
  C   C615      1.0  0.85827  0.08166  0.18580  1.0000
  C   C616      1.0  0.51731  0.06636  0.01334  1.0000
  H   H1113     1.0  0.60493  0.04569  0.04347  1.0000
  C   C617      1.0  0.93219  0.27944  0.19967  1.0000
  Fe  Fe69      1.0  0.81646  0.03443  0.10441  1.0000
  C   C618      1.0  0.92491  0.27063  0.22814  1.0000
  H   H1114     1.0  0.91486  0.15698  0.27321  1.0000
  H   H1115     1.0  0.96979  0.06238  0.25958  1.0000
  H   H1116     1.0  0.64567  0.05924  0.09048  1.0000
  C   C619      1.0  0.92193  0.12064  0.24449  1.0000
  H   H1117     1.0  0.71531  0.04388  0.26423  1.0000
  H   H1118     1.0  0.95698  0.14350  0.03072  1.0000
  H   H1119     1.0  0.89810  0.11588  0.24409  1.0000
  H   H1120     1.0  0.93357  0.11266  0.02615  1.0000
  H   H1121     1.0  0.91429  0.03056  0.28806  1.0000
  H   H1122     1.0  0.90323  0.52353  0.98065  1.0000
  C   C620      1.0  0.55126  0.06651  0.12486  1.0000
  C   C621      1.0  0.98407  0.10624  0.20120  1.0000
  C   C622      1.0  0.62137  0.03821  0.05877  1.0000
  C   C623      1.0  0.96540  0.28585  0.19707  1.0000
  H   H1123     1.0  0.93396  0.31597  0.15507  1.0000
  H   H1124     1.0  0.92557  0.46481  0.28702  1.0000
  H   H1125     1.0  0.93829  0.25015  0.23412  1.0000
  H   H1126     1.0  0.85322  0.05802  0.18940  1.0000
  H   H1127     1.0  0.92473  0.51692  0.16020  1.0000
  H   H1128     1.0  0.83374  0.06423  0.04287  1.0000
  H   H1129     1.0  0.54951  0.04234  0.08832  1.0000
  H   H1130     1.0  0.92663  0.26070  0.18650  1.0000
  C   C624      1.0  0.82518  0.03892  0.27823  1.0000
  H   H1131     1.0  0.54983  0.03211  0.99931  1.0000
  N   N34       1.0  0.97543  0.29610  0.17020  1.0000
  C   C625      1.0  0.98604  0.27543  0.12272  1.0000
  C   C626      1.0  0.96462  0.03724  0.05154  1.0000
  H   H1132     1.0  0.96585  0.33126  0.14162  1.0000
  H   H1133     1.0  0.96326  0.36835  0.28905  1.0000
  H   H1134     1.0  0.53624  0.07592  0.14062  1.0000
  N   N35       1.0  0.49923  0.06764  0.06271  1.0000
  H   H1135     1.0  0.69680  0.04978  0.29564  1.0000
  H   H1136     1.0  0.51208  0.09038  0.00907  1.0000
  H   H1137     1.0  0.88963  0.02718  0.22109  1.0000
  C   C627      1.0  0.98471  0.28298  0.29073  1.0000
  C   C628      1.0  0.93084  0.04187  0.04616  1.0000
  H   H1138     1.0  0.97512  0.21500  0.00070  1.0000
  C   C629      1.0  0.97125  0.04598  0.27604  1.0000
  H   H1139     1.0  0.96056  0.24154  0.10331  1.0000
  H   H1140     1.0  0.49823  0.05384  0.00692  1.0000
  H   H1141     1.0  0.91830  0.03841  0.98920  1.0000
  H   H1142     1.0  0.97943  0.07356  0.02690  1.0000
  H   H1143     1.0  0.87145  0.03239  0.99945  1.0000
  H   H1144     1.0  0.82518  0.03007  0.29879  1.0000
  S   S135      1.0  0.97868  0.43161  0.20194  1.0000
  C   C630      1.0  0.97280  0.27080  0.15072  1.0000
  H   H1145     1.0  0.53825  0.05966  0.97487  1.0000
  H   H1146     1.0  0.98306  0.24978  0.15895  1.0000
  H   H1147     1.0  0.98458  0.11422  0.22204  1.0000
  H   H1148     1.0  0.68274  0.02801  0.19751  1.0000
  H   H1149     1.0  0.93804  0.02796  0.13003  1.0000
  S   S136      1.0  0.98165  0.07047  0.12153  1.0000
  C   C631      1.0  0.92532  0.11841  0.97194  1.0000
  H   H1150     1.0  0.87501  0.03131  0.06062  1.0000
  H   H1151     1.0  0.96198  0.05665  0.29439  1.0000
  C   C632      1.0  0.49009  0.12426  0.05338  1.0000
  H   H1152     1.0  0.94704  0.45557  0.97018  1.0000
  H   H1153     1.0  0.66059  0.03821  0.03380  1.0000
  H   H1154     1.0  0.88345  0.02990  0.12420  1.0000
  H   H1155     1.0  0.62298  0.02629  0.00258  1.0000
  H   H1156     1.0  0.95594  0.02694  0.99595  1.0000
  H   H1157     1.0  0.88914  0.46602  0.30136  1.0000
  Fe  Fe70      1.0  0.94391  0.16350  0.35629  1.0000
  H   H1158     1.0  0.78952  0.08681  0.38823  1.0000
  C   C633      1.0  0.95548  0.13099  0.53698  1.0000
  S   S137      1.0  0.95247  0.20166  0.38422  1.0000
  S   S138      1.0  0.95627  0.18919  0.31995  1.0000
  H   H1159     1.0  0.88856  0.05440  0.53799  1.0000
  H   H1160     1.0  0.95718  0.37343  0.40249  1.0000
  C   C634      1.0  0.85824  0.09235  0.44483  1.0000
  H   H1161     1.0  0.95085  0.11901  0.55578  1.0000
  H   H1162     1.0  0.97231  0.09183  0.46040  1.0000
  H   H1163     1.0  0.93249  0.09263  0.46191  1.0000
  H   H1164     1.0  0.78599  0.05338  0.34900  1.0000
  H   H1165     1.0  0.95033  0.18355  0.56820  1.0000
  C   C635      1.0  0.90474  0.03513  0.34389  1.0000
  H   H1166     1.0  0.90830  0.47049  0.34616  1.0000
  H   H1167     1.0  0.79198  0.07274  0.44729  1.0000
  C   C636      1.0  0.92573  0.34495  0.38537  1.0000
  H   H1168     1.0  0.85916  0.07640  0.52211  1.0000
  H   H1169     1.0  0.78554  0.07348  0.49627  1.0000
  H   H1170     1.0  0.93653  0.49273  0.59233  1.0000
  C   C637      1.0  0.92762  0.09519  0.60689  1.0000
  H   H1171     1.0  0.97207  0.49025  0.30984  1.0000
  C   C638      1.0  0.95077  0.12648  0.43756  1.0000
  H   H1172     1.0  0.95217  0.47849  0.37766  1.0000
  C   C639      1.0  0.87732  0.08330  0.34811  1.0000
  H   H1173     1.0  0.91276  0.19413  0.55920  1.0000
  C   C640      1.0  0.92457  0.47406  0.33000  1.0000
  Fe  Fe71      1.0  0.81630  0.02908  0.59988  1.0000
  H   H1174     1.0  0.98488  0.50208  0.40808  1.0000
  S   S139      1.0  0.98390  0.06642  0.60499  1.0000
  H   H1175     1.0  0.77157  0.03684  0.49075  1.0000
  S   S140      1.0  0.84243  0.07106  0.60059  1.0000
  H   H1176     1.0  0.91610  0.33897  0.40479  1.0000
  H   H1177     1.0  0.79993  0.04181  0.51522  1.0000
  H   H1178     1.0  0.89517  0.10909  0.50190  1.0000
  S   S141      1.0  0.95922  0.27537  0.34061  1.0000
  H   H1179     1.0  0.82164  0.09839  0.41841  1.0000
  H   H1180     1.0  0.85361  0.08189  0.40309  1.0000
  C   C641      1.0  0.97775  0.32748  0.39970  1.0000
  H   H1181     1.0  0.95221  0.03687  0.34614  1.0000
  S   S142      1.0  0.90225  0.13702  0.35710  1.0000
  H   H1182     1.0  0.78785  0.03393  0.44187  1.0000
  H   H1183     1.0  0.76355  0.02897  0.36815  1.0000
  H   H1184     1.0  0.89780  0.10822  0.53784  1.0000
  H   H1185     1.0  0.83527  0.05445  0.48053  1.0000
  C   C642      1.0  0.88178  0.06941  0.60112  1.0000
  C   C643      1.0  0.89645  0.09572  0.60576  1.0000
  H   H1186     1.0  0.59627  0.08509  0.53433  1.0000
  C   C644      1.0  0.93536  0.08506  0.51776  1.0000
  H   H1187     1.0  0.88369  0.13034  0.45506  1.0000
  C   C645      1.0  0.95760  0.35396  0.38887  1.0000
  N   N36       1.0  0.93600  0.51444  0.63076  1.0000
  H   H1188     1.0  0.92083  0.15951  0.57665  1.0000
  C   C646      1.0  0.61449  0.03935  0.53778  1.0000
  H   H1189     1.0  0.94976  0.52304  0.40861  1.0000
  H   H1190     1.0  0.93000  0.13875  0.48783  1.0000
  C   C647      1.0  0.85148  0.02632  0.42934  1.0000
  H   H1191     1.0  0.63705  0.04712  0.54117  1.0000
  H   H1192     1.0  0.93840  0.06771  0.50201  1.0000
  C   C648      1.0  0.90247  0.52284  0.31682  1.0000
  C   C649      1.0  0.87778  0.05212  0.34419  1.0000
  C   C650      1.0  0.90383  0.09789  0.35127  1.0000
  C   C651      1.0  0.95613  0.51018  0.30886  1.0000
  C   C652      1.0  0.95043  0.50739  0.60430  1.0000
  C   C653      1.0  0.92990  0.04211  0.59826  1.0000
  H   H1193     1.0  0.94531  0.46099  0.33577  1.0000
  H   H1194     1.0  0.76712  0.06262  0.40721  1.0000
  H   H1195     1.0  0.92493  0.32552  0.37169  1.0000
  H   H1196     1.0  0.91199  0.36390  0.37680  1.0000
  C   C654      1.0  0.78418  0.06323  0.39144  1.0000
  H   H1197     1.0  0.91124  0.15313  0.52778  1.0000
  H   H1198     1.0  0.94209  0.17504  0.52051  1.0000
  H   H1199     1.0  0.85380  0.13909  0.43232  1.0000
  C   C655      1.0  0.89872  0.04262  0.59717  1.0000
  H   H1200     1.0  0.97748  0.14050  0.54012  1.0000
  H   H1201     1.0  0.97172  0.49411  0.60705  1.0000
  H   H1202     1.0  0.60706  0.06799  0.50312  1.0000
  H   H1203     1.0  0.49393  0.04283  0.30927  1.0000
  H   H1204     1.0  0.93208  0.14363  0.43852  1.0000
  H   H1205     1.0  0.85730  0.04126  0.34141  1.0000
  C   C656      1.0  0.94457  0.06835  0.60324  1.0000
  C   C657      1.0  0.87150  0.12193  0.43774  1.0000
  H   H1206     1.0  0.84373  0.09684  0.46229  1.0000
  H   H1207     1.0  0.95136  0.09180  0.35247  1.0000
  C   C658      1.0  0.93337  0.15882  0.53480  1.0000
  C   C659      1.0  0.96944  0.51680  0.39614  1.0000
  H   H1208     1.0  0.89284  0.51440  0.61203  1.0000
  H   H1209     1.0  0.86327  0.02999  0.44824  1.0000
  H   H1210     1.0  0.96855  0.14285  0.48576  1.0000
  C   C660      1.0  0.59676  0.06398  0.52271  1.0000
  C   C661      1.0  0.93122  0.04975  0.34656  1.0000
  H   H1211     1.0  0.87678  0.07622  0.45017  1.0000
  H   H1212     1.0  0.98052  0.49539  0.35885  1.0000
  H   H1213     1.0  0.96548  0.36123  0.36919  1.0000
  H   H1214     1.0  0.85636  0.09623  0.34864  1.0000
  N   N37       1.0  0.82755  0.05065  0.42441  1.0000
  H   H1215     1.0  0.60353  0.03691  0.55728  1.0000
  C   C662      1.0  0.90219  0.09532  0.51928  1.0000
  N   N38       1.0  0.93033  0.50690  0.32759  1.0000
  C   C663      1.0  0.91451  0.42477  0.30751  1.0000
  C   C664      1.0  0.96047  0.50018  0.37114  1.0000
  C   C665      1.0  0.83990  0.08103  0.42141  1.0000
  N   N39       1.0  0.95680  0.10926  0.51383  1.0000
  C   C666      1.0  0.81571  0.04237  0.47469  1.0000
  H   H1216     1.0  0.96070  0.50700  0.55047  1.0000
  H   H1217     1.0  0.94812  0.11260  0.41951  1.0000
  C   C667      1.0  0.91277  0.45884  0.30476  1.0000
  H   H1218     1.0  0.88706  0.11882  0.42074  1.0000
  C   C668      1.0  0.93079  0.08096  0.35017  1.0000
  C   C669      1.0  0.80460  0.05065  0.44631  1.0000
  C   C670      1.0  0.79159  0.04911  0.49541  1.0000
  H   H1219     1.0  0.57355  0.05769  0.51967  1.0000
  C   C671      1.0  0.92913  0.17485  0.56141  1.0000
  C   C672      1.0  0.96908  0.29617  0.31211  1.0000
  H   H1220     1.0  0.88645  0.04300  0.40358  1.0000
  H   H1221     1.0  0.88363  0.11660  0.60879  1.0000
  H   H1222     1.0  0.93775  0.41612  0.31082  1.0000
  H   H1223     1.0  0.97928  0.21879  0.50227  1.0000
  H   H1224     1.0  0.96654  0.31891  0.41757  1.0000
  H   H1225     1.0  0.48809  0.07955  0.53877  1.0000
  C   C673      1.0  0.95165  0.12584  0.48797  1.0000
  C   C674      1.0  0.93613  0.51830  0.35524  1.0000
  H   H1226     1.0  0.94009  0.07309  0.53675  1.0000
  H   H1227     1.0  0.75008  0.06676  0.36104  1.0000
  H   H1228     1.0  0.98448  0.20835  0.45390  1.0000
  C   C675      1.0  0.81249  0.04351  0.39859  1.0000
  C   C676      1.0  0.77019  0.05234  0.36582  1.0000
  H   H1229     1.0  0.93840  0.11553  0.61100  1.0000
  Fe  Fe72      1.0  0.96948  0.22531  0.34788  1.0000
  H   H1230     1.0  0.49834  0.04526  0.55606  1.0000
  C   C677      1.0  0.88282  0.06847  0.52036  1.0000
  H   H1231     1.0  0.94897  0.33750  0.32738  1.0000
  H   H1232     1.0  0.97168  0.13810  0.43557  1.0000
  H   H1233     1.0  0.92035  0.45544  0.61485  1.0000
  H   H1234     1.0  0.91545  0.51843  0.36732  1.0000
  C   C678      1.0  0.97273  0.52438  0.56109  1.0000
  H   H1235     1.0  0.82789  0.04559  0.38162  1.0000
  H   H1236     1.0  0.97719  0.30886  0.38513  1.0000
  H   H1237     1.0  0.90060  0.41787  0.32434  1.0000
  H   H1238     1.0  0.88571  0.05464  0.50214  1.0000
  C   C679      1.0  0.96130  0.32707  0.31116  1.0000
  H   H1239     1.0  0.88318  0.51783  0.32953  1.0000
  C   C680      1.0  0.95197  0.10663  0.46228  1.0000
  H   H1240     1.0  0.71034  0.02762  0.54659  1.0000
  C   C681      1.0  0.91408  0.46233  0.63532  1.0000
  H   H1241     1.0  0.89070  0.47129  0.63525  1.0000
  S   S143      1.0  0.98650  0.15260  0.60938  1.0000
  H   H1242     1.0  0.98627  0.06038  0.54423  1.0000
  H   H1243     1.0  0.92663  0.21421  0.93821  1.0000
  S   S144      1.0  0.91738  0.15887  0.85645  1.0000
  H   H1244     1.0  0.96992  0.46615  0.85432  1.0000
  C   C682      1.0  0.95256  0.45293  0.86329  1.0000
  N   N40       1.0  0.93295  0.49578  0.89456  1.0000
  H   H1245     1.0  0.95269  0.31557  0.76245  1.0000
  C   C683      1.0  0.97579  0.35266  0.77763  1.0000
  H   H1246     1.0  0.91912  0.36596  0.91589  1.0000
  Fe  Fe73      1.0  0.95774  0.48481  0.72871  1.0000
  H   H1247     1.0  0.85323  0.07276  0.92578  1.0000
  H   H1248     1.0  0.88760  0.49510  0.90814  1.0000
  C   C684      1.0  0.94628  0.10278  0.86062  1.0000
  C   C685      1.0  0.91554  0.43410  0.65237  1.0000
  H   H1249     1.0  0.93830  0.42331  0.65220  1.0000
  C   C686      1.0  0.79187  0.08972  0.66679  1.0000
  H   H1250     1.0  0.96891  0.43162  0.94771  1.0000
  C   C687      1.0  0.87058  0.05128  0.77256  1.0000
  C   C688      1.0  0.92347  0.05603  0.85032  1.0000
  S   S145      1.0  0.97129  0.37306  0.74760  1.0000
  H   H1251     1.0  0.91864  0.35921  0.88058  1.0000
  C   C689      1.0  0.53291  0.08615  0.80206  1.0000
  H   H1252     1.0  0.55171  0.07189  0.81017  1.0000
  H   H1253     1.0  0.96122  0.27062  0.73360  1.0000
  H   H1254     1.0  0.68089  0.04375  0.75465  1.0000
  C   C690      1.0  0.50593  0.06771  0.79774  1.0000
  S   S146      1.0  0.91597  0.51407  0.72064  1.0000
  H   H1255     1.0  0.81598  0.09337  0.70308  1.0000
  H   H1256     1.0  0.90489  0.14115  0.76646  1.0000
  C   C691      1.0  0.94794  0.07139  0.85882  1.0000
  H   H1257     1.0  0.53983  0.09547  0.78275  1.0000
  C   C692      1.0  0.82121  0.08862  0.68195  1.0000
  H   H1258     1.0  0.94325  0.08651  0.66236  1.0000
  H   H1259     1.0  0.51344  0.03494  0.82867  1.0000
  H   H1260     1.0  0.98569  0.13545  0.91634  1.0000
  H   H1261     1.0  0.96994  0.47123  0.91356  1.0000
  H   H1262     1.0  0.97322  0.35390  0.87973  1.0000
  H   H1263     1.0  0.92529  0.41722  0.84950  1.0000
  H   H1264     1.0  0.92076  0.05975  0.92395  1.0000
  H   H1265     1.0  0.91808  0.48618  0.85476  1.0000
  C   C693      1.0  0.70019  0.03583  0.76698  1.0000
  H   H1266     1.0  0.84324  0.05596  0.65672  1.0000
  H   H1267     1.0  0.96500  0.11406  0.86795  1.0000
  H   H1268     1.0  0.79588  0.08619  0.64522  1.0000
  H   H1269     1.0  0.90896  0.43955  0.67315  1.0000
  C   C694      1.0  0.89564  0.10393  0.84538  1.0000
  H   H1270     1.0  0.87526  0.11642  0.84020  1.0000
  C   C695      1.0  0.92022  0.11929  0.85378  1.0000
  H   H1271     1.0  0.96246  0.43944  0.87982  1.0000
  H   H1272     1.0  0.83427  0.10687  0.67407  1.0000
  C   C696      1.0  0.89729  0.07245  0.84350  1.0000
  C   C697      1.0  0.96463  0.32409  0.77916  1.0000
  H   H1273     1.0  0.89029  0.07419  0.66306  1.0000
  Fe  Fe74      1.0  0.95907  0.18501  0.85796  1.0000
  N   N41       1.0  0.86645  0.05281  0.69444  1.0000
  H   H1274     1.0  0.90747  0.46261  0.93717  1.0000
  H   H1275     1.0  0.93139  0.11659  0.68467  1.0000
  C   C698      1.0  0.92959  0.45417  0.92995  1.0000
  H   H1276     1.0  0.93410  0.41994  0.96037  1.0000
  H   H1277     1.0  0.85884  0.08206  0.72850  1.0000
  H   H1278     1.0  0.98467  0.03309  0.74434  1.0000
  H   H1279     1.0  0.90773  0.45998  0.87864  1.0000
  S   S147      1.0  0.97268  0.21421  0.82417  1.0000
  H   H1280     1.0  0.92646  0.43660  0.91497  1.0000
  H   H1281     1.0  0.97138  0.05413  0.80168  1.0000
  H   H1282     1.0  0.96215  0.41625  0.83582  1.0000
  N   N42       1.0  0.92970  0.12019  0.94231  1.0000
  C   C699      1.0  0.93049  0.15216  0.93287  1.0000
  C   C700      1.0  0.95757  0.10225  0.93390  1.0000
  C   C701      1.0  0.90351  0.10679  0.92895  1.0000
  H   H1283     1.0  0.94921  0.11393  0.74919  1.0000
  H   H1284     1.0  0.94998  0.16319  0.94081  1.0000
  H   H1285     1.0  0.90719  0.52415  0.92216  1.0000
  C   C702      1.0  0.90108  0.07250  0.93219  1.0000
  H   H1286     1.0  0.84661  0.05015  0.77707  1.0000
  H   H1287     1.0  0.71508  0.05454  0.76936  1.0000
  H   H1288     1.0  0.90218  0.02705  0.65258  1.0000
  C   C703      1.0  0.94603  0.43947  0.95345  1.0000
  H   H1289     1.0  0.94428  0.24127  0.69521  1.0000
  H   H1290     1.0  0.93348  0.15246  0.91094  1.0000
  H   H1291     1.0  0.87828  0.06098  0.83679  1.0000
  H   H1292     1.0  0.68500  0.02830  0.69789  1.0000
  H   H1293     1.0  0.95496  0.09329  0.91349  1.0000
  H   H1294     1.0  0.90374  0.11153  0.90723  1.0000
  H   H1295     1.0  0.88227  0.11729  0.93652  1.0000
  H   H1296     1.0  0.92897  0.49031  0.66735  1.0000
  H   H1297     1.0  0.96239  0.09136  0.69315  1.0000
  C   C704      1.0  0.92620  0.47398  0.87277  1.0000
  C   C705      1.0  0.97335  0.10893  0.78749  1.0000
  C   C706      1.0  0.90298  0.17310  0.93969  1.0000
  S   S148      1.0  0.96968  0.21895  0.88931  1.0000
  H   H1298     1.0  0.88265  0.16522  0.93031  1.0000
  C   C707      1.0  0.94521  0.26600  0.69415  1.0000
  C   C708      1.0  0.96859  0.30648  0.80216  1.0000
  H   H1299     1.0  0.87528  0.06677  0.89609  1.0000
  H   H1300     1.0  0.69229  0.02944  0.78694  1.0000
  H   H1301     1.0  0.97567  0.50557  0.87857  1.0000
  H   H1302     1.0  0.91836  0.07883  0.71854  1.0000
  H   H1303     1.0  0.93756  0.16034  0.77488  1.0000
  H   H1304     1.0  0.95701  0.32651  0.90054  1.0000
  H   H1305     1.0  0.93125  0.52531  0.81019  1.0000
  H   H1306     1.0  0.94953  0.49602  0.93483  1.0000
  H   H1307     1.0  0.52747  0.10502  0.81587  1.0000
  C   C709      1.0  0.96166  0.35048  0.89876  1.0000
  C   C710      1.0  0.96904  0.03974  0.76057  1.0000
  H   H1308     1.0  0.95170  0.05517  0.75206  1.0000
  H   H1309     1.0  0.83534  0.05167  0.72733  1.0000
  H   H1310     1.0  0.91927  0.13895  0.79971  1.0000
  C   C711      1.0  0.94696  0.47996  0.91825  1.0000
  H   H1311     1.0  0.88407  0.51435  0.66326  1.0000
  H   H1312     1.0  0.92307  0.27634  0.69941  1.0000
  H   H1313     1.0  0.77740  0.07236  0.67427  1.0000
  C   C712      1.0  0.87734  0.03992  0.74445  1.0000
  Fe  Fe75      1.0  0.51329  0.03161  0.72053  1.0000
  H   H1314     1.0  0.93455  0.44368  0.82412  1.0000
  H   H1315     1.0  0.96563  0.10498  0.80801  1.0000
  H   H1316     1.0  0.78012  0.11198  0.66951  1.0000
  H   H1317     1.0  0.87290  0.03721  0.91995  1.0000
  C   C713      1.0  0.94463  0.11192  0.77066  1.0000
  H   H1318     1.0  0.89864  0.06653  0.95333  1.0000
  H   H1319     1.0  0.92971  0.04911  0.69563  1.0000
  H   H1320     1.0  0.87954  0.09819  0.68946  1.0000
  H   H1321     1.0  0.48787  0.08235  0.78901  1.0000
  C   C714      1.0  0.91952  0.07212  0.69738  1.0000
  H   H1322     1.0  0.96816  0.05889  0.86441  1.0000
  H   H1323     1.0  0.49752  0.06947  0.83998  1.0000
  H   H1324     1.0  0.95976  0.28456  0.80303  1.0000
  S   S149      1.0  0.96629  0.45988  0.76696  1.0000
  H   H1325     1.0  0.96425  0.19153  0.73112  1.0000
  C   C715      1.0  0.90662  0.20475  0.92946  1.0000
  H   H1326     1.0  0.90843  0.20462  0.90747  1.0000
  C   C716      1.0  0.87395  0.06180  0.91762  1.0000
  H   H1327     1.0  0.96137  0.08221  0.94679  1.0000
  C   C717      1.0  0.94289  0.43125  0.84193  1.0000
  H   H1328     1.0  0.88694  0.21940  0.93505  1.0000
  C   C718      1.0  0.92552  0.13980  0.77847  1.0000
  C   C719      1.0  0.83841  0.05782  0.67830  1.0000
  C   C720      1.0  0.85852  0.05785  0.72343  1.0000
  C   C721      1.0  0.94027  0.09296  0.68353  1.0000
  C   C722      1.0  0.93179  0.36807  0.89716  1.0000
  S   S150      1.0  0.97006  0.44471  0.70315  1.0000
  C   C723      1.0  0.90421  0.51167  0.90330  1.0000
  H   H1329     1.0  0.93517  0.39192  0.89314  1.0000
  C   C724      1.0  0.96847  0.27679  0.71342  1.0000
  H   H1330     1.0  0.93113  0.09243  0.77430  1.0000
  H   H1331     1.0  0.95047  0.27244  0.67347  1.0000
  C   C725      1.0  0.88813  0.07495  0.68508  1.0000
  H   H1332     1.0  0.88644  0.52315  0.86342  1.0000
  H   H1333     1.0  0.96686  0.35566  0.94062  1.0000
  H   H1334     1.0  0.90134  0.04122  0.74100  1.0000
  H   H1335     1.0  0.82289  0.04008  0.68277  1.0000
  C   C726      1.0  0.93504  0.48571  0.64628  1.0000
  H   H1336     1.0  0.90012  0.41789  0.64434  1.0000
  H   H1337     1.0  0.95751  0.47427  0.64722  1.0000
  C   C727      1.0  0.95428  0.51751  0.88392  1.0000
  H   H1338     1.0  0.87696  0.07471  0.77493  1.0000
  H   H1339     1.0  0.98554  0.18751  0.77614  1.0000
  H   H1340     1.0  0.51222  0.05022  0.78293  1.0000
  H   H1341     1.0  0.88324  0.03709  0.78720  1.0000
  C   C728      1.0  0.98346  0.31746  0.82412  1.0000
  H   H1342     1.0  0.96825  0.30150  0.71188  1.0000
  Fe  Fe76      1.0  0.98321  0.42130  0.74149  1.0000
  H   H1343     1.0  0.98089  0.38549  0.92179  1.0000
  C   C729      1.0  0.98582  0.05415  0.78372  1.0000
  H   H1344     1.0  0.98323  0.13118  0.78792  1.0000
  H   H1345     1.0  0.89966  0.17463  0.96146  1.0000
  C   C730      1.0  0.98015  0.36066  0.92280  1.0000
  C   C731      1.0  0.49610  0.05284  0.82381  1.0000
  Fe  Fe77      1.0  0.53098  0.97395  0.24516  1.0000
  C   C732      1.0  0.69798  0.93876  0.17567  1.0000
  H   H1346     1.0  0.49030  0.88499  0.12564  1.0000
  Fe  Fe78      1.0  0.52252  0.97284  0.18470  1.0000
  H   H1347     1.0  0.49903  0.94106  0.05455  1.0000
  H   H1348     1.0  0.51392  0.61173  0.19277  1.0000
  H   H1349     1.0  0.81822  0.59118  0.07266  1.0000
  H   H1350     1.0  0.60895  0.86785  0.17749  1.0000
  H   H1351     1.0  0.83522  0.87134  0.28591  1.0000
  S   S151      1.0  0.56044  0.95790  0.21124  1.0000
  H   H1352     1.0  0.84315  0.56466  0.12002  1.0000
  Fe  Fe79      1.0  0.51754  0.96229  0.00048  1.0000
  S   S152      1.0  0.53671  0.01959  0.17938  1.0000
  S   S153      1.0  0.54666  0.97579  0.03462  1.0000
  H   H1353     1.0  0.67402  0.56476  0.98403  1.0000
  H   H1354     1.0  0.58083  0.85119  0.13895  1.0000
  H   H1355     1.0  0.82881  0.55302  0.15932  1.0000
  H   H1356     1.0  0.97518  0.01994  0.03829  1.0000
  S   S154      1.0  0.77931  0.97217  0.28145  1.0000
  C   C733      1.0  0.53547  0.66672  0.23768  1.0000
  S   S155      1.0  0.77990  0.95822  0.10153  1.0000
  H   H1357     1.0  0.76379  0.99782  0.23088  1.0000
  H   H1358     1.0  0.93590  0.91062  0.25538  1.0000
  S   S156      1.0  0.84231  0.99063  0.10152  1.0000
  Fe  Fe80      1.0  0.80894  0.97853  0.07086  1.0000
  S   S157      1.0  0.82874  0.95423  0.03451  1.0000
  Fe  Fe81      1.0  0.81090  0.97510  0.13222  1.0000
  S   S158      1.0  0.82999  0.94649  0.16580  1.0000
  H   H1359     1.0  0.53270  0.78296  0.11977  1.0000
  H   H1360     1.0  0.85569  0.99062  0.25884  1.0000
  Fe  Fe82      1.0  0.84030  0.72695  0.23199  1.0000
  S   S159      1.0  0.79642  0.70586  0.22740  1.0000
  S   S160      1.0  0.83874  0.77806  0.23399  1.0000
  Fe  Fe83      1.0  0.87496  0.66571  0.22891  1.0000
  S   S161      1.0  0.83347  0.64159  0.22452  1.0000
  S   S162      1.0  0.91892  0.63818  0.22952  1.0000
  Fe  Fe84      1.0  0.81892  0.67742  0.19545  1.0000
  S   S163      1.0  0.79622  0.65943  0.15864  1.0000
  Fe  Fe85      1.0  0.81569  0.67224  0.25652  1.0000
  S   S164      1.0  0.86167  0.70051  0.19796  1.0000
  S   S165      1.0  0.85819  0.69456  0.26300  1.0000
  H   H1361     1.0  0.79960  0.76704  0.09467  1.0000
  C   C734      1.0  0.67438  0.02047  0.17870  1.0000
  H   H1362     1.0  0.96422  0.00899  0.25014  1.0000
  Fe  Fe86      1.0  0.80636  0.66635  0.99891  1.0000
  S   S166      1.0  0.81461  0.69273  0.03684  1.0000
  S   S167      1.0  0.79004  0.62014  0.99470  1.0000
  C   C735      1.0  0.81118  0.68123  0.07038  1.0000
  C   C736      1.0  0.79337  0.65812  0.07777  1.0000
  C   C737      1.0  0.78919  0.65163  0.10486  1.0000
  C   C738      1.0  0.80311  0.66780  0.12482  1.0000
  C   C739      1.0  0.82173  0.69020  0.11740  1.0000
  C   C740      1.0  0.82551  0.69702  0.09034  1.0000
  H   H1363     1.0  0.78217  0.64584  0.06265  1.0000
  H   H1364     1.0  0.77481  0.63419  0.11040  1.0000
  H   H1365     1.0  0.83277  0.70263  0.13251  1.0000
  H   H1366     1.0  0.83947  0.71480  0.08478  1.0000
  N   N43       1.0  0.91479  0.01381  0.04077  1.0000
  H   H1367     1.0  0.90566  0.92035  0.08407  1.0000
  H   H1368     1.0  0.74508  0.86965  0.27018  1.0000
  C   C741      1.0  0.51105  0.68542  0.24515  1.0000
  C   C742      1.0  0.66181  0.61747  0.01276  1.0000
  H   H1369     1.0  0.52250  0.56552  0.15867  1.0000
  C   C743      1.0  0.89615  0.55180  0.23871  1.0000
  C   C744      1.0  0.89479  0.58330  0.23792  1.0000
  C   C745      1.0  0.91969  0.59851  0.23058  1.0000
  C   C746      1.0  0.94602  0.58182  0.22428  1.0000
  C   C747      1.0  0.94742  0.55031  0.22520  1.0000
  C   C748      1.0  0.63180  0.69504  0.98684  1.0000
  H   H1370     1.0  0.87459  0.59576  0.24342  1.0000
  H   H1371     1.0  0.96544  0.59331  0.21857  1.0000
  C   C749      1.0  0.62732  0.93983  0.03694  1.0000
  H   H1372     1.0  0.54541  0.74227  0.15119  1.0000
  C   C750      1.0  0.83625  0.83000  0.26353  1.0000
  C   C751      1.0  0.84269  0.79886  0.26375  1.0000
  H   H1373     1.0  0.51409  0.88232  0.08803  1.0000
  C   C752      1.0  0.55693  0.77704  0.00293  1.0000
  H   H1374     1.0  0.82803  0.84079  0.24565  1.0000
  Fe  Fe87      1.0  0.50977  0.68844  0.12062  1.0000
  C   C753      1.0  0.79950  0.98409  0.99284  1.0000
  C   C754      1.0  0.82268  0.96399  0.00066  1.0000
  S   S168      1.0  0.78678  0.01998  0.13739  1.0000
  H   H1375     1.0  0.63104  0.99221  0.26341  1.0000
  H   H1376     1.0  0.85901  0.93472  0.98684  1.0000
  C   C755      1.0  0.79303  0.96429  0.24933  1.0000
  C   C756      1.0  0.81530  0.94187  0.24496  1.0000
  C   C757      1.0  0.82655  0.93666  0.21928  1.0000
  C   C758      1.0  0.81509  0.95333  0.19771  1.0000
  C   C759      1.0  0.79207  0.97502  0.20196  1.0000
  C   C760      1.0  0.78119  0.98059  0.22770  1.0000
  H   H1377     1.0  0.82373  0.92836  0.26132  1.0000
  H   H1378     1.0  0.84409  0.91958  0.21613  1.0000
  H   H1379     1.0  0.78266  0.98763  0.18548  1.0000
  N   N44       1.0  0.68512  0.67118  0.28922  1.0000
  C   C761      1.0  0.59906  0.68745  0.29012  1.0000
  H   H1380     1.0  0.87493  0.52964  0.14074  1.0000
  H   H1381     1.0  0.58408  0.66106  0.07570  1.0000
  H   H1382     1.0  0.91311  0.94974  0.04350  1.0000
  C   C762      1.0  0.89877  0.94375  0.25184  1.0000
  H   H1383     1.0  0.58397  0.97231  0.27591  1.0000
  H   H1384     1.0  0.85420  0.89593  0.06907  1.0000
  H   H1385     1.0  0.59522  0.62752  0.09362  1.0000
  H   H1386     1.0  0.53252  0.76511  0.17876  1.0000
  C   C763      1.0  0.59304  0.63755  0.07352  1.0000
  C   C764      1.0  0.51689  0.95423  0.11898  1.0000
  C   C765      1.0  0.54174  0.97085  0.11487  1.0000
  H   H1387     1.0  0.67037  0.96327  0.00512  1.0000
  C   C766      1.0  0.53542  0.96663  0.06696  1.0000
  C   C767      1.0  0.65901  0.95021  0.26789  1.0000
  H   H1388     1.0  0.66568  0.55535  0.01808  1.0000
  H   H1389     1.0  0.80289  0.58137  0.19578  1.0000
  C   C768      1.0  0.52216  0.57476  0.11723  1.0000
  H   H1390     1.0  0.50387  0.60370  0.26690  1.0000
  H   H1391     1.0  0.95963  0.00141  0.28487  1.0000
  C   C769      1.0  0.50984  0.59483  0.24687  1.0000
  H   H1392     1.0  0.83821  0.77481  0.09629  1.0000
  C   C770      1.0  0.92677  0.99871  0.20956  1.0000
  H   H1393     1.0  0.76886  0.85389  0.21439  1.0000
  C   C771      1.0  0.53151  0.84219  0.10926  1.0000
  H   H1394     1.0  0.91732  0.56250  0.29656  1.0000
  C   C772      1.0  0.53583  0.87150  0.09369  1.0000
  C   C773      1.0  0.55277  0.86526  0.06785  1.0000
  C   C774      1.0  0.54294  0.66317  0.21065  1.0000
  C   C775      1.0  0.62089  0.00268  0.00897  1.0000
  H   H1395     1.0  0.55337  0.82970  0.11005  1.0000
  C   C776      1.0  0.84107  0.95038  0.98103  1.0000
  H   H1396     1.0  0.66403  0.95335  0.28932  1.0000
  H   H1397     1.0  0.76275  0.90329  0.26149  1.0000
  H   H1398     1.0  0.54096  0.84941  0.05521  1.0000
  H   H1399     1.0  0.55436  0.88649  0.05669  1.0000
  H   H1400     1.0  0.57552  0.85576  0.07203  1.0000
  H   H1401     1.0  0.91192  0.91323  0.28413  1.0000
  H   H1402     1.0  0.66181  0.65779  0.97507  1.0000
  H   H1403     1.0  0.74610  0.87074  0.18807  1.0000
  H   H1404     1.0  0.82029  0.75848  0.12449  1.0000
  H   H1405     1.0  0.90991  0.95283  0.10454  1.0000
  H   H1406     1.0  0.81535  0.89443  0.07642  1.0000
  H   H1407     1.0  0.52071  0.76833  0.97776  1.0000
  H   H1408     1.0  0.53577  0.55397  0.11260  1.0000
  C   C777      1.0  0.91452  0.97056  0.26378  1.0000
  H   H1409     1.0  0.60058  0.93498  0.27850  1.0000
  N   N45       1.0  0.87146  0.59334  0.14237  1.0000
  C   C778      1.0  0.85003  0.58798  0.12006  1.0000
  C   C779      1.0  0.85519  0.59197  0.16848  1.0000
  C   C780      1.0  0.88140  0.62481  0.13930  1.0000
  C   C781      1.0  0.89854  0.57184  0.14224  1.0000
  H   H1410     1.0  0.87222  0.99925  0.28968  1.0000
  C   C782      1.0  0.86114  0.59508  0.09173  1.0000
  C   C783      1.0  0.90079  0.63639  0.16204  1.0000
  C   C784      1.0  0.84217  0.56181  0.17567  1.0000
  C   C785      1.0  0.82184  0.56509  0.19986  1.0000
  H   H1411     1.0  0.50643  0.57928  0.10064  1.0000
  C   C786      1.0  0.91539  0.66496  0.15405  1.0000
  H   H1412     1.0  0.82905  0.60195  0.12311  1.0000
  H   H1413     1.0  0.71542  0.94787  0.28347  1.0000
  H   H1414     1.0  0.87005  0.59684  0.18533  1.0000
  H   H1415     1.0  0.83687  0.60968  0.16904  1.0000
  H   H1416     1.0  0.86183  0.64098  0.13724  1.0000
  H   H1417     1.0  0.89453  0.62676  0.12077  1.0000
  H   H1418     1.0  0.91644  0.58060  0.12975  1.0000
  H   H1419     1.0  0.90821  0.57009  0.16260  1.0000
  H   H1420     1.0  0.59741  0.92694  0.06840  1.0000
  H   H1421     1.0  0.49144  0.55154  0.14092  1.0000
  H   H1422     1.0  0.86043  0.61971  0.08868  1.0000
  H   H1423     1.0  0.87673  0.54029  0.24433  1.0000
  H   H1424     1.0  0.91855  0.61957  0.16792  1.0000
  H   H1425     1.0  0.88670  0.64180  0.17958  1.0000
  C   C787      1.0  0.54387  0.77445  0.97511  1.0000
  H   H1426     1.0  0.62831  0.64800  0.29071  1.0000
  S   S169      1.0  0.78423  0.02339  0.07205  1.0000
  S   S170      1.0  0.62147  0.01721  0.20500  1.0000
  H   H1427     1.0  0.55504  0.75555  0.01365  1.0000
  H   H1428     1.0  0.83815  0.91869  0.09537  1.0000
  H   H1429     1.0  0.88427  0.58605  0.08867  1.0000
  C   C788      1.0  0.68931  0.99085  0.25093  1.0000
  H   H1430     1.0  0.54459  0.79497  0.01438  1.0000
  H   H1431     1.0  0.92755  0.67363  0.17133  1.0000
  H   H1432     1.0  0.93142  0.66034  0.13764  1.0000
  H   H1433     1.0  0.89840  0.68239  0.14763  1.0000
  H   H1434     1.0  0.54828  0.88750  0.10550  1.0000
  H   H1435     1.0  0.71954  0.66609  0.21173  1.0000
  C   C789      1.0  0.53624  0.86396  0.15475  1.0000
  H   H1436     1.0  0.52666  0.86465  0.17508  1.0000
  H   H1437     1.0  0.76228  0.89391  0.21282  1.0000
  C   C790      1.0  0.64917  0.02173  0.04615  1.0000
  H   H1438     1.0  0.57425  0.98335  0.97717  1.0000
  H   H1439     1.0  0.57009  0.98996  0.08595  1.0000
  S   S171      1.0  0.49180  0.98435  0.21858  1.0000
  N   N46       1.0  0.90195  0.00134  0.25603  1.0000
  H   H1440     1.0  0.67114  0.00303  0.23978  1.0000
  H   H1441     1.0  0.90632  0.85115  0.19404  1.0000
  S   S172      1.0  0.50067  0.69093  0.27888  1.0000
  H   H1442     1.0  0.67312  0.64686  0.25393  1.0000
  C   C791      1.0  0.56916  0.85343  0.15824  1.0000
  C   C792      1.0  0.84151  0.58220  0.07037  1.0000
  N   N47       1.0  0.82700  0.84787  0.14886  1.0000
  C   C793      1.0  0.83288  0.81697  0.13742  1.0000
  C   C794      1.0  0.85393  0.85600  0.16443  1.0000
  C   C795      1.0  0.79985  0.84773  0.16633  1.0000
  C   C796      1.0  0.82131  0.87087  0.12731  1.0000
  C   C797      1.0  0.84500  0.87135  0.10502  1.0000
  C   C798      1.0  0.80863  0.80593  0.11855  1.0000
  C   C799      1.0  0.79354  0.87602  0.18369  1.0000
  C   C800      1.0  0.86151  0.83630  0.18908  1.0000
  C   C801      1.0  0.88575  0.84944  0.20585  1.0000
  C   C802      1.0  0.83761  0.89662  0.08534  1.0000
  C   C803      1.0  0.81733  0.77469  0.10790  1.0000
  C   C804      1.0  0.76592  0.87330  0.20073  1.0000
  H   H1443     1.0  0.83523  0.80016  0.15368  1.0000
  H   H1444     1.0  0.85451  0.81527  0.12679  1.0000
  H   H1445     1.0  0.87405  0.85420  0.15176  1.0000
  H   H1446     1.0  0.85183  0.87992  0.17065  1.0000
  H   H1447     1.0  0.80089  0.82780  0.17960  1.0000
  H   H1448     1.0  0.77967  0.84534  0.15404  1.0000
  H   H1449     1.0  0.79938  0.86828  0.11778  1.0000
  H   H1450     1.0  0.81964  0.89371  0.13603  1.0000
  H   H1451     1.0  0.84629  0.85006  0.09371  1.0000
  H   H1452     1.0  0.86723  0.87507  0.11322  1.0000
  H   H1453     1.0  0.78727  0.80456  0.12918  1.0000
  H   H1454     1.0  0.80507  0.82098  0.10126  1.0000
  H   H1455     1.0  0.78982  0.89618  0.17111  1.0000
  H   H1456     1.0  0.81213  0.87957  0.19744  1.0000
  H   H1457     1.0  0.84206  0.83428  0.20203  1.0000
  H   H1458     1.0  0.86956  0.81343  0.18294  1.0000
  H   H1459     1.0  0.87821  0.87192  0.21338  1.0000
  H   H1460     1.0  0.89078  0.83467  0.22318  1.0000
  H   H1461     1.0  0.66194  0.68968  0.03533  1.0000
  C   C805      1.0  0.48794  0.86207  0.13341  1.0000
  H   H1462     1.0  0.64459  0.99538  0.11079  1.0000
  H   H1463     1.0  0.62170  0.59183  0.01692  1.0000
  N   N48       1.0  0.64376  0.99409  0.03001  1.0000
  H   H1464     1.0  0.85765  0.76137  0.28787  1.0000
  H   H1465     1.0  0.63841  0.64867  0.07261  1.0000
  H   H1466     1.0  0.64752  0.92974  0.02729  1.0000
  C   C806      1.0  0.70105  0.67142  0.01434  1.0000
  C   C807      1.0  0.64231  0.66151  0.98834  1.0000
  H   H1467     1.0  0.53533  0.88769  0.14820  1.0000
  C   C808      1.0  0.52956  0.76092  0.15722  1.0000
  C   C809      1.0  0.67176  0.66722  0.02967  1.0000
  C   C810      1.0  0.63250  0.97099  0.04869  1.0000
  H   H1468     1.0  0.51757  0.82818  0.09669  1.0000
  C   C811      1.0  0.62325  0.63638  0.05980  1.0000
  H   H1469     1.0  0.61282  0.67430  0.03490  1.0000
  H   H1470     1.0  0.59660  0.70958  0.28020  1.0000
  C   C812      1.0  0.92253  0.53514  0.23265  1.0000
  H   H1471     1.0  0.58070  0.78193  0.00187  1.0000
  C   C813      1.0  0.88184  0.02175  0.04093  1.0000
  H   H1472     1.0  0.51175  0.81677  0.17050  1.0000
  H   H1473     1.0  0.56194  0.64871  0.20511  1.0000
  H   H1474     1.0  0.94547  0.98690  0.06525  1.0000
  C   C814      1.0  0.62100  0.65066  0.03175  1.0000
  H   H1475     1.0  0.61441  0.89619  0.04975  1.0000
  H   H1476     1.0  0.63149  0.61262  0.05891  1.0000
  S   S173      1.0  0.70640  0.00553  0.10378  1.0000
  H   H1477     1.0  0.90062  0.94338  0.22988  1.0000
  H   H1478     1.0  0.68065  0.61654  0.99857  1.0000
  C   C815      1.0  0.91436  0.54336  0.97517  1.0000
  Fe  Fe88      1.0  0.75704  0.00413  0.10498  1.0000
  H   H1479     1.0  0.71169  0.99657  0.28937  1.0000
  H   H1480     1.0  0.65469  0.92612  0.26584  1.0000
  Fe  Fe89      1.0  0.51359  0.68606  0.05964  1.0000
  H   H1481     1.0  0.73823  0.66346  0.25786  1.0000
  C   C816      1.0  0.64007  0.59436  0.00267  1.0000
  H   H1482     1.0  0.90614  0.98455  0.00785  1.0000
  C   C817      1.0  0.91656  0.94190  0.08547  1.0000
  H   H1483     1.0  0.72812  0.67771  0.04964  1.0000
  C   C818      1.0  0.70594  0.95006  0.20325  1.0000
  C   C819      1.0  0.50843  0.70491  0.99032  1.0000
  C   C820      1.0  0.62201  0.98442  0.98267  1.0000
  N   N49       1.0  0.64919  0.64925  0.01566  1.0000
  H   H1484     1.0  0.59819  0.00212  0.01737  1.0000
  H   H1485     1.0  0.72099  0.94068  0.01314  1.0000
  H   H1486     1.0  0.61046  0.02364  0.07308  1.0000
  H   H1487     1.0  0.54852  0.65490  0.25270  1.0000
  H   H1488     1.0  0.93980  0.99254  0.16838  1.0000
  H   H1489     1.0  0.66075  0.96170  0.21409  1.0000
  H   H1490     1.0  0.60291  0.64031  0.02062  1.0000
  H   H1491     1.0  0.49097  0.80743  0.14209  1.0000
  H   H1492     1.0  0.61024  0.69916  0.99713  1.0000
  H   H1493     1.0  0.83420  0.57277  0.21737  1.0000
  C   C821      1.0  0.61828  0.91833  0.05865  1.0000
  C   C822      1.0  0.90688  0.96185  0.06208  1.0000
  H   H1494     1.0  0.87508  0.94486  0.25709  1.0000
  H   H1495     1.0  0.67159  0.60909  0.03180  1.0000
  H   H1496     1.0  0.71212  0.97352  0.20110  1.0000
  H   H1497     1.0  0.86041  0.54515  0.18084  1.0000
  H   H1498     1.0  0.53175  0.60294  0.24137  1.0000
  S   S174      1.0  0.50107  0.65289  0.09045  1.0000
  H   H1499     1.0  0.58490  0.89805  0.16481  1.0000
  C   C823      1.0  0.55097  0.97700  0.08891  1.0000
  C   C824      1.0  0.65604  0.56362  0.99900  1.0000
  H   H1500     1.0  0.63039  0.60101  0.98321  1.0000
  C   C825      1.0  0.94554  0.54269  0.97520  1.0000
  H   H1501     1.0  0.55848  0.79442  0.14432  1.0000
  H   H1502     1.0  0.73260  0.94977  0.25216  1.0000
  H   H1503     1.0  0.69690  0.68350  0.99538  1.0000
  H   H1504     1.0  0.57509  0.87874  0.19478  1.0000
  H   H1505     1.0  0.94350  0.98227  0.01855  1.0000
  C   C826      1.0  0.52590  0.67794  0.19076  1.0000
  H   H1506     1.0  0.72582  0.93656  0.20995  1.0000
  H   H1507     1.0  0.57094  0.83181  0.16894  1.0000
  H   H1508     1.0  0.55396  0.97877  0.13168  1.0000
  H   H1509     1.0  0.89151  0.53977  0.11012  1.0000
  S   S175      1.0  0.53587  0.67191  0.15703  1.0000
  H   H1510     1.0  0.74311  0.69186  0.01947  1.0000
  C   C827      1.0  0.50139  0.69656  0.19818  1.0000
  H   H1511     1.0  0.60876  0.94152  0.02253  1.0000
  H   H1512     1.0  0.53104  0.82146  0.97089  1.0000
  H   H1513     1.0  0.64819  0.70949  0.99585  1.0000
  H   H1514     1.0  0.62451  0.64913  0.97886  1.0000
  H   H1515     1.0  0.51156  0.57002  0.24784  1.0000
  H   H1516     1.0  0.71271  0.64953  0.00988  1.0000
  H   H1517     1.0  0.61072  0.97890  0.05700  1.0000
  H   H1518     1.0  0.74562  0.90012  0.29363  1.0000
  H   H1519     1.0  0.69369  0.91461  0.17636  1.0000
  C   C828      1.0  0.67956  0.94789  0.22282  1.0000
  N   N50       1.0  0.68510  0.95768  0.25097  1.0000
  S   S176      1.0  0.84606  0.65680  0.97263  1.0000
  H   H1520     1.0  0.65487  0.70946  0.28092  1.0000
  H   H1521     1.0  0.84236  0.55740  0.07152  1.0000
  S   S177      1.0  0.54417  0.67261  0.02562  1.0000
  C   C829      1.0  0.72020  0.64896  0.25229  1.0000
  S   S178      1.0  0.53268  0.92683  0.97119  1.0000
  H   H1522     1.0  0.88118  0.98950  0.21905  1.0000
  H   H1523     1.0  0.67229  0.92458  0.22235  1.0000
  S   S179      1.0  0.52432  0.94475  0.28151  1.0000
  S   S180      1.0  0.52716  0.71944  0.08986  1.0000
  N   N51       1.0  0.51790  0.84565  0.13655  1.0000
  C   C830      1.0  0.92126  0.99251  0.06359  1.0000
  C   C831      1.0  0.53525  0.78889  0.14105  1.0000
  C   C832      1.0  0.92420  0.99845  0.01514  1.0000
  H   H1524     1.0  0.94097  0.01803  0.21149  1.0000
  S   S181      1.0  0.54633  0.02068  0.24414  1.0000
  H   H1525     1.0  0.62180  0.96275  0.24113  1.0000
  H   H1526     1.0  0.73075  0.68082  0.29793  1.0000
  H   H1527     1.0  0.71670  0.02259  0.15890  1.0000
  H   H1528     1.0  0.70987  0.99568  0.24004  1.0000
  H   H1529     1.0  0.90594  0.97551  0.17699  1.0000
  H   H1530     1.0  0.50558  0.57398  0.19854  1.0000
  C   C833      1.0  0.58544  0.87594  0.17485  1.0000
  H   H1531     1.0  0.91456  0.96836  0.28584  1.0000
  H   H1532     1.0  0.84944  0.58865  0.05042  1.0000
  H   H1533     1.0  0.67803  0.95148  0.16787  1.0000
  H   H1534     1.0  0.71665  0.94191  0.16180  1.0000
  C   C834      1.0  0.72610  0.96289  0.02122  1.0000
  H   H1535     1.0  0.62464  0.96004  0.98597  1.0000
  H   H1536     1.0  0.81297  0.54313  0.20469  1.0000
  C   C835      1.0  0.53320  0.68516  0.99383  1.0000
  H   H1537     1.0  0.72402  0.62669  0.26163  1.0000
  H   H1538     1.0  0.67960  0.00097  0.00282  1.0000
  H   H1539     1.0  0.89986  0.89530  0.25441  1.0000
  H   H1540     1.0  0.94191  0.52757  0.12942  1.0000
  H   H1541     1.0  0.64011  0.54743  0.99185  1.0000
  C   C836      1.0  0.50146  0.94378  0.09707  1.0000
  H   H1542     1.0  0.93804  0.96689  0.25791  1.0000
  H   H1543     1.0  0.94095  0.93714  0.08527  1.0000
  H   H1544     1.0  0.88249  0.96455  0.06295  1.0000
  C   C837      1.0  0.51086  0.94971  0.07117  1.0000
  H   H1545     1.0  0.62811  0.66885  0.26007  1.0000
  C   C838      1.0  0.72236  0.64433  0.22227  1.0000
  H   H1546     1.0  0.69380  0.96170  0.05231  1.0000
  C   C839      1.0  0.51290  0.81525  0.14845  1.0000
  H   H1547     1.0  0.64739  0.96800  0.06620  1.0000
  H   H1548     1.0  0.57704  0.62482  0.06193  1.0000
  C   C840      1.0  0.91254  0.91398  0.26210  1.0000
  H   H1549     1.0  0.63602  0.91532  0.07384  1.0000
  C   C841      1.0  0.84021  0.84744  0.28642  1.0000
  H   H1550     1.0  0.68506  0.68342  0.24776  1.0000
  Fe  Fe90      1.0  0.57305  0.00565  0.20805  1.0000
  H   H1551     1.0  0.67841  0.65634  0.04876  1.0000
  C   C842      1.0  0.85262  0.78527  0.28737  1.0000
  H   H1552     1.0  0.74459  0.63402  0.21716  1.0000
  H   H1553     1.0  0.61082  0.99964  0.14976  1.0000
  H   H1554     1.0  0.53712  0.59354  0.11881  1.0000
  H   H1555     1.0  0.49759  0.02121  0.07471  1.0000
  H   H1556     1.0  0.70529  0.62927  0.21527  1.0000
  C   C843      1.0  0.68942  0.66312  0.26030  1.0000
  C   C844      1.0  0.93369  0.01866  0.99198  1.0000
  C   C845      1.0  0.50553  0.57089  0.14329  1.0000
  C   C846      1.0  0.89446  0.53963  0.13199  1.0000
  H   H1557     1.0  0.70662  0.99823  0.04500  1.0000
  C   C847      1.0  0.63383  0.00470  0.15181  1.0000
  C   C848      1.0  0.71266  0.94191  0.26220  1.0000
  C   C849      1.0  0.67276  0.98372  0.01716  1.0000
  C   C850      1.0  0.72228  0.68939  0.03075  1.0000
  H   H1558     1.0  0.71224  0.71205  0.03519  1.0000
  S   S182      1.0  0.79100  0.65156  0.28998  1.0000
  H   H1559     1.0  0.78524  0.99479  0.00768  1.0000
  C   C851      1.0  0.64444  0.01389  0.17643  1.0000
  H   H1560     1.0  0.67629  0.62449  0.29490  1.0000
  C   C852      1.0  0.89840  0.00437  0.22638  1.0000
  C   C853      1.0  0.65305  0.00227  0.12975  1.0000
  S   S183      1.0  0.50505  0.94544  0.15114  1.0000
  C   C854      1.0  0.62921  0.96772  0.26156  1.0000
  H   H1561     1.0  0.71259  0.89914  0.24023  1.0000
  C   C855      1.0  0.68312  0.00848  0.13216  1.0000
  H   H1562     1.0  0.58007  0.67423  0.28440  1.0000
  H   H1563     1.0  0.56899  0.66022  0.97417  1.0000
  H   H1564     1.0  0.71018  0.71014  0.28205  1.0000
  C   C856      1.0  0.91910  0.99543  0.18019  1.0000
  C   C857      1.0  0.69941  0.97713  0.03613  1.0000
  C   C858      1.0  0.95483  0.01815  0.26891  1.0000
  H   H1565     1.0  0.66437  0.01608  0.06297  1.0000
  H   H1566     1.0  0.50023  0.61906  0.14859  1.0000
  C   C859      1.0  0.65513  0.68775  0.29175  1.0000
  C   C860      1.0  0.54968  0.67533  0.97163  1.0000
  C   C861      1.0  0.71429  0.90727  0.26093  1.0000
  C   C862      1.0  0.49410  0.70032  0.22523  1.0000
  C   C863      1.0  0.70837  0.69235  0.29733  1.0000
  H   H1567     1.0  0.91446  0.00334  0.08273  1.0000
  H   H1568     1.0  0.73259  0.97751  0.00467  1.0000
  C   C864      1.0  0.60482  0.95905  0.28058  1.0000
  H   H1569     1.0  0.93967  0.97804  0.21553  1.0000
  H   H1570     1.0  0.90610  0.01557  0.17293  1.0000
  C   C865      1.0  0.62813  0.67078  0.28204  1.0000
  H   H1571     1.0  0.96778  0.53785  0.22009  1.0000
  C   C866      1.0  0.49551  0.59723  0.19795  1.0000
  C   C867      1.0  0.87141  0.00563  0.26830  1.0000
  H   H1572     1.0  0.64113  0.99086  0.97049  1.0000
  H   H1573     1.0  0.74526  0.95974  0.03498  1.0000
  H   H1574     1.0  0.86917  0.00150  0.03828  1.0000
  C   C868      1.0  0.69186  0.00585  0.27854  1.0000
  H   H1575     1.0  0.69622  0.89810  0.27274  1.0000
  H   H1576     1.0  0.86234  0.56028  0.28959  1.0000
  C   C869      1.0  0.74373  0.89436  0.27226  1.0000
  H   H1577     1.0  0.49619  0.71350  0.00724  1.0000
  H   H1578     1.0  0.67199  0.00275  0.29089  1.0000
  C   C870      1.0  0.69372  0.01747  0.15680  1.0000
  H   H1579     1.0  0.50674  0.75383  0.15363  1.0000
  H   H1580     1.0  0.98191  0.54815  0.27152  1.0000
  H   H1581     1.0  0.81072  0.02560  0.26561  1.0000
  H   H1582     1.0  0.48808  0.70808  0.18311  1.0000
  C   C871      1.0  0.92086  0.02528  0.26717  1.0000
  H   H1583     1.0  0.75310  0.82731  0.30223  1.0000
  H   H1584     1.0  0.61087  0.96382  0.30146  1.0000
  H   H1585     1.0  0.96181  0.59517  0.56240  1.0000
  H   H1586     1.0  0.89008  0.97667  0.41987  1.0000
  S   S184      1.0  0.51847  0.98896  0.40212  1.0000
  C   C872      1.0  0.71512  0.63193  0.31879  1.0000
  C   C873      1.0  0.85060  0.83389  0.30989  1.0000
  Fe  Fe91      1.0  0.81208  0.95289  0.37639  1.0000
  S   S185      1.0  0.78450  0.96619  0.41288  1.0000
  Fe  Fe92      1.0  0.84348  0.90486  0.34164  1.0000
  S   S186      1.0  0.85574  0.85495  0.33922  1.0000
  S   S187      1.0  0.81987  0.98919  0.34678  1.0000
  S   S188      1.0  0.79579  0.92161  0.34515  1.0000
  S   S189      1.0  0.61925  0.64181  0.35588  1.0000
  H   H1587     1.0  0.91029  0.68550  0.31243  1.0000
  C   C874      1.0  0.86299  0.85635  0.61906  1.0000
  Fe  Fe93      1.0  0.74584  0.64186  0.46599  1.0000
  S   S190      1.0  0.75857  0.68969  0.46715  1.0000
  S   S191      1.0  0.69756  0.62989  0.46171  1.0000
  Fe  Fe94      1.0  0.79606  0.67360  0.44060  1.0000
  S   S192      1.0  0.81134  0.70091  0.40597  1.0000
  S   S193      1.0  0.78177  0.62660  0.43752  1.0000
  C   C875      1.0  0.79750  0.66529  0.32200  1.0000
  C   C876      1.0  0.81136  0.69207  0.32594  1.0000
  C   C877      1.0  0.81565  0.70279  0.35180  1.0000
  C   C878      1.0  0.80571  0.68702  0.37378  1.0000
  C   C879      1.0  0.79164  0.66043  0.36974  1.0000
  C   C880      1.0  0.78779  0.64947  0.34397  1.0000
  C   C881      1.0  0.52820  0.99560  0.34869  1.0000
  H   H1588     1.0  0.82667  0.72333  0.35465  1.0000
  H   H1589     1.0  0.78349  0.64830  0.38636  1.0000
  H   H1590     1.0  0.77712  0.62873  0.34107  1.0000
  C   C882      1.0  0.94365  0.57466  0.47081  1.0000
  C   C883      1.0  0.92725  0.60221  0.47296  1.0000
  C   C884      1.0  0.89606  0.60330  0.47477  1.0000
  H   H1591     1.0  0.93873  0.62273  0.47367  1.0000
  H   H1592     1.0  0.88366  0.62449  0.47707  1.0000
  C   C885      1.0  0.67613  0.63358  0.43214  1.0000
  C   C886      1.0  0.68722  0.64602  0.40901  1.0000
  C   C887      1.0  0.66941  0.64862  0.38604  1.0000
  C   C888      1.0  0.64024  0.63917  0.38586  1.0000
  C   C889      1.0  0.62906  0.62702  0.40911  1.0000
  C   C890      1.0  0.64700  0.62406  0.43201  1.0000
  H   H1593     1.0  0.70959  0.65340  0.40875  1.0000
  H   H1594     1.0  0.67838  0.65797  0.36834  1.0000
  H   H1595     1.0  0.60681  0.61932  0.40929  1.0000
  H   H1596     1.0  0.63837  0.61399  0.44965  1.0000
  H   H1597     1.0  0.83138  0.80686  0.62672  1.0000
  H   H1598     1.0  0.84341  0.52992  0.63194  1.0000
  H   H1599     1.0  0.98466  0.62466  0.36999  1.0000
  H   H1600     1.0  0.86462  0.79203  0.32834  1.0000
  C   C891      1.0  0.90763  0.62431  0.57121  1.0000
  C   C892      1.0  0.79618  0.96077  0.44620  1.0000
  C   C893      1.0  0.82280  0.94495  0.45254  1.0000
  C   C894      1.0  0.66257  0.99025  0.54332  1.0000
  H   H1601     1.0  0.83682  0.93557  0.43688  1.0000
  C   C895      1.0  0.52352  0.95720  0.31500  1.0000
  C   C896      1.0  0.52978  0.98640  0.32193  1.0000
  H   H1602     1.0  0.69486  0.69308  0.33946  1.0000
  C   C897      1.0  0.52026  0.97583  0.36882  1.0000
  C   C898      1.0  0.51416  0.94656  0.36190  1.0000
  C   C899      1.0  0.51586  0.93732  0.33512  1.0000
  H   H1603     1.0  0.81441  0.57198  0.40330  1.0000
  C   C900      1.0  0.87178  0.57097  0.30734  1.0000
  C   C901      1.0  0.51059  0.95306  0.57154  1.0000
  C   C902      1.0  0.68258  0.00168  0.52094  1.0000
  Fe  Fe95      1.0  0.50793  0.97169  0.50112  1.0000
  H   H1604     1.0  0.52426  0.64786  0.43407  1.0000
  S   S194      1.0  0.53573  0.98893  0.53435  1.0000
  H   H1605     1.0  0.54385  0.89747  0.62210  1.0000
  C   C903      1.0  0.79370  0.68575  0.62522  1.0000
  H   H1606     1.0  0.91160  0.60721  0.58694  1.0000
  S   S195      1.0  0.52277  0.93793  0.47021  1.0000
  C   C904      1.0  0.91884  0.60917  0.54513  1.0000
  S   S196      1.0  0.77609  0.95475  0.60059  1.0000
  S   S197      1.0  0.51788  0.65826  0.52995  1.0000
  H   H1607     1.0  0.62354  0.90000  0.49729  1.0000
  S   S198      1.0  0.84023  0.98409  0.59909  1.0000
  Fe  Fe96      1.0  0.80593  0.97216  0.56912  1.0000
  S   S199      1.0  0.82394  0.94583  0.53333  1.0000
  H   H1608     1.0  0.50048  0.59707  0.42529  1.0000
  Fe  Fe97      1.0  0.81068  0.61817  0.47339  1.0000
  S   S200      1.0  0.82741  0.66410  0.47450  1.0000
  S   S201      1.0  0.84196  0.57677  0.47584  1.0000
  Fe  Fe98      1.0  0.78852  0.67556  0.50124  1.0000
  S   S202      1.0  0.79677  0.70698  0.53583  1.0000
  S   S203      1.0  0.77333  0.62868  0.50225  1.0000
  C   C905      1.0  0.79546  0.69803  0.57009  1.0000
  C   C906      1.0  0.78520  0.67098  0.57910  1.0000
  C   C907      1.0  0.78410  0.66503  0.60654  1.0000
  H   H1609     1.0  0.93510  0.54621  0.58020  1.0000
  C   C908      1.0  0.80461  0.71250  0.61618  1.0000
  C   C909      1.0  0.80532  0.71864  0.58875  1.0000
  H   H1610     1.0  0.77750  0.65494  0.56498  1.0000
  H   H1611     1.0  0.77544  0.64436  0.61336  1.0000
  H   H1612     1.0  0.85843  0.90492  0.62825  1.0000
  H   H1613     1.0  0.81316  0.73965  0.58193  1.0000
  C   C910      1.0  0.88103  0.57685  0.47399  1.0000
  H   H1614     1.0  0.85015  0.66842  0.59645  1.0000
  H   H1615     1.0  0.53317  0.01823  0.35385  1.0000
  H   H1616     1.0  0.51441  0.87740  0.57664  1.0000
  C   C911      1.0  0.53886  0.99317  0.58841  1.0000
  C   C912      1.0  0.77818  0.97273  0.46683  1.0000
  C   C913      1.0  0.78668  0.96892  0.49359  1.0000
  C   C914      1.0  0.81310  0.95273  0.49997  1.0000
  C   C915      1.0  0.83107  0.94076  0.47931  1.0000
  H   H1617     1.0  0.77260  0.97803  0.50931  1.0000
  H   H1618     1.0  0.88849  0.80231  0.61543  1.0000
  H   H1619     1.0  0.72222  0.64789  0.33405  1.0000
  H   H1620     1.0  0.88894  0.67174  0.59864  1.0000
  C   C916      1.0  0.53238  0.98487  0.61455  1.0000
  H   H1621     1.0  0.64342  0.96483  0.49653  1.0000
  C   C917      1.0  0.52769  0.97753  0.56684  1.0000
  C   C918      1.0  0.71228  0.60180  0.33250  1.0000
  H   H1622     1.0  0.74075  0.73633  0.31976  1.0000
  Fe  Fe99      1.0  0.80822  0.95614  0.31562  1.0000
  S   S204      1.0  0.51385  0.72005  0.58750  1.0000
  H   H1623     1.0  0.91165  0.67821  0.54700  1.0000
  H   H1624     1.0  0.81163  0.72876  0.63037  1.0000
  N   N52       1.0  0.89674  0.63214  0.39305  1.0000
  C   C919      1.0  0.88488  0.65433  0.41358  1.0000
  C   C920      1.0  0.88391  0.60242  0.39900  1.0000
  C   C921      1.0  0.88722  0.64188  0.36542  1.0000
  C   C922      1.0  0.84968  0.60271  0.40099  1.0000
  C   C923      1.0  0.89583  0.68642  0.41195  1.0000
  C   C924      1.0  0.88794  0.70418  0.43715  1.0000
  C   C925      1.0  0.83883  0.57102  0.40053  1.0000
  H   H1625     1.0  0.86034  0.65730  0.41241  1.0000
  H   H1626     1.0  0.88983  0.64544  0.43379  1.0000
  H   H1627     1.0  0.89298  0.59306  0.41802  1.0000
  H   H1628     1.0  0.86496  0.65397  0.36612  1.0000
  H   H1629     1.0  0.83883  0.61545  0.38445  1.0000
  H   H1630     1.0  0.84235  0.61304  0.42009  1.0000
  H   H1631     1.0  0.92014  0.68665  0.40967  1.0000
  H   H1632     1.0  0.88492  0.69846  0.39499  1.0000
  H   H1633     1.0  0.89806  0.69288  0.45482  1.0000
  H   H1634     1.0  0.89660  0.72680  0.43573  1.0000
  H   H1635     1.0  0.86355  0.70668  0.43983  1.0000
  H   H1636     1.0  0.84913  0.55747  0.41692  1.0000
  C   C926      1.0  0.50376  0.94501  0.59767  1.0000
  H   H1637     1.0  0.73296  0.62913  0.30388  1.0000
  N   N53       1.0  0.78785  0.79561  0.38684  1.0000
  C   C927      1.0  0.79327  0.80026  0.35760  1.0000
  C   C928      1.0  0.81580  0.78187  0.39930  1.0000
  C   C929      1.0  0.76441  0.77299  0.38932  1.0000
  C   C930      1.0  0.77744  0.82406  0.40107  1.0000
  C   C931      1.0  0.78958  0.85379  0.39095  1.0000
  H   H1638     1.0  0.55236  0.01196  0.58491  1.0000
  C   C932      1.0  0.75572  0.76404  0.41793  1.0000
  C   C933      1.0  0.84347  0.80062  0.39871  1.0000
  C   C934      1.0  0.87071  0.78247  0.40906  1.0000
  C   C935      1.0  0.78315  0.87924  0.41074  1.0000
  C   C936      1.0  0.65328  0.99971  0.63196  1.0000
  C   C937      1.0  0.72954  0.74385  0.41747  1.0000
  H   H1639     1.0  0.80373  0.77949  0.34854  1.0000
  H   H1640     1.0  0.80958  0.81735  0.35434  1.0000
  H   H1641     1.0  0.81225  0.77688  0.42060  1.0000
  H   H1642     1.0  0.82193  0.76005  0.38962  1.0000
  H   H1643     1.0  0.77143  0.75204  0.37843  1.0000
  H   H1644     1.0  0.74339  0.78168  0.37996  1.0000
  H   H1645     1.0  0.75285  0.82746  0.40003  1.0000
  H   H1646     1.0  0.78258  0.82201  0.42265  1.0000
  H   H1647     1.0  0.77889  0.86045  0.37186  1.0000
  H   H1648     1.0  0.81372  0.85211  0.38739  1.0000
  H   H1649     1.0  0.82210  0.01806  0.47572  1.0000
  H   H1650     1.0  0.64420  0.99236  0.61348  1.0000
  H   H1651     1.0  0.74925  0.78404  0.43007  1.0000
  H   H1652     1.0  0.77420  0.75131  0.42805  1.0000
  H   H1653     1.0  0.84875  0.80787  0.37838  1.0000
  H   H1654     1.0  0.84010  0.82041  0.41185  1.0000
  H   H1655     1.0  0.86710  0.77540  0.42987  1.0000
  H   H1656     1.0  0.87553  0.76241  0.39645  1.0000
  H   H1657     1.0  0.89022  0.79645  0.40854  1.0000
  H   H1658     1.0  0.79201  0.90011  0.40298  1.0000
  H   H1659     1.0  0.75892  0.88322  0.41385  1.0000
  H   H1660     1.0  0.79411  0.87413  0.43008  1.0000
  C   C938      1.0  0.60874  0.91806  0.48856  1.0000
  C   C939      1.0  0.76534  0.80919  0.34082  1.0000
  H   H1661     1.0  0.85563  0.56777  0.63226  1.0000
  H   H1662     1.0  0.71006  0.75513  0.40747  1.0000
  H   H1663     1.0  0.73579  0.72253  0.40701  1.0000
  H   H1664     1.0  0.72305  0.73853  0.43809  1.0000
  H   H1665     1.0  0.56097  0.70571  0.41426  1.0000
  C   C940      1.0  0.61473  0.97507  0.55963  1.0000
  H   H1666     1.0  0.88232  0.70111  0.56251  1.0000
  C   C941      1.0  0.97513  0.53764  0.31317  1.0000
  H   H1667     1.0  0.55270  0.73050  0.47418  1.0000
  Fe  Fe100     1.0  0.56857  0.64251  0.35287  1.0000
  H   H1668     1.0  0.75751  0.98493  0.46211  1.0000
  S   S205      1.0  0.53724  0.62822  0.38432  1.0000
  C   C942      1.0  0.55258  0.78301  0.62504  1.0000
  Fe  Fe101     1.0  0.80789  0.97189  0.63037  1.0000
  H   H1669     1.0  0.53180  0.63089  0.48020  1.0000
  S   S206      1.0  0.90644  0.99575  0.33982  1.0000
  N   N54       1.0  0.63169  0.98306  0.53513  1.0000
  C   C943      1.0  0.88768  0.68489  0.54626  1.0000
  H   H1670     1.0  0.60869  0.59689  0.51845  1.0000
  H   H1671     1.0  0.88736  0.65392  0.31155  1.0000
  Fe  Fe102     1.0  0.50017  0.96878  0.44005  1.0000
  H   H1672     1.0  0.61505  0.99331  0.57456  1.0000
  N   N55       1.0  0.60726  0.69656  0.48620  1.0000
  C   C944      1.0  0.59734  0.67348  0.50552  1.0000
  C   C945      1.0  0.59561  0.72707  0.49557  1.0000
  C   C946      1.0  0.59543  0.68942  0.45907  1.0000
  C   C947      1.0  0.64062  0.69631  0.48474  1.0000
  C   C948      1.0  0.65696  0.69850  0.51174  1.0000
  C   C949      1.0  0.60933  0.64080  0.50042  1.0000
  C   C950      1.0  0.60110  0.71239  0.43691  1.0000
  C   C951      1.0  0.69037  0.69995  0.50784  1.0000
  C   C952      1.0  0.59998  0.62012  0.52260  1.0000
  C   C953      1.0  0.58532  0.70441  0.41126  1.0000
  H   H1673     1.0  0.60276  0.67973  0.52627  1.0000
  H   H1674     1.0  0.60202  0.73064  0.51658  1.0000
  H   H1675     1.0  0.60550  0.66771  0.45187  1.0000
  H   H1676     1.0  0.64982  0.67595  0.47423  1.0000
  H   H1677     1.0  0.64750  0.71527  0.47239  1.0000
  H   H1678     1.0  0.65339  0.67872  0.52432  1.0000
  H   H1679     1.0  0.60019  0.63226  0.48163  1.0000
  H   H1680     1.0  0.63386  0.63888  0.49928  1.0000
  H   H1681     1.0  0.62516  0.71251  0.43251  1.0000
  H   H1682     1.0  0.59287  0.73531  0.44252  1.0000
  H   H1683     1.0  0.70139  0.70224  0.52738  1.0000
  H   H1684     1.0  0.69968  0.67913  0.49835  1.0000
  H   H1685     1.0  0.69545  0.71941  0.49534  1.0000
  H   H1686     1.0  0.60895  0.62722  0.54199  1.0000
  H   H1687     1.0  0.57543  0.62024  0.52387  1.0000
  H   H1688     1.0  0.59060  0.72036  0.39534  1.0000
  H   H1689     1.0  0.59243  0.68150  0.40457  1.0000
  H   H1690     1.0  0.91424  0.68148  0.36147  1.0000
  H   H1691     1.0  0.98102  0.53711  0.39088  1.0000
  H   H1692     1.0  0.81969  0.56260  0.53057  1.0000
  H   H1693     1.0  0.50821  0.93105  0.37717  1.0000
  H   H1694     1.0  0.89146  0.62072  0.62462  1.0000
  H   H1695     1.0  0.66976  0.64675  0.32326  1.0000
  H   H1696     1.0  0.86593  0.01358  0.38902  1.0000
  H   H1697     1.0  0.96150  0.55862  0.31626  1.0000
  H   H1698     1.0  0.94222  0.54183  0.35493  1.0000
  H   H1699     1.0  0.49318  0.56872  0.44930  1.0000
  H   H1700     1.0  0.68650  0.98433  0.50540  1.0000
  H   H1701     1.0  0.57343  0.79384  0.62962  1.0000
  H   H1702     1.0  0.80633  0.01987  0.39864  1.0000
  N   N56       1.0  0.52726  0.83618  0.61994  1.0000
  C   C954      1.0  0.53526  0.83443  0.59083  1.0000
  Fe  Fe103     1.0  0.49518  0.68289  0.56399  1.0000
  H   H1703     1.0  0.55328  0.77558  0.60398  1.0000
  H   H1704     1.0  0.81852  0.70467  0.30908  1.0000
  C   C955      1.0  0.87775  0.79226  0.63277  1.0000
  H   H1705     1.0  0.58715  0.90868  0.48377  1.0000
  H   H1706     1.0  0.55753  0.82299  0.58803  1.0000
  H   H1707     1.0  0.51943  0.82039  0.58015  1.0000
  H   H1708     1.0  0.89183  0.74726  0.62019  1.0000
  H   H1709     1.0  0.49766  0.87601  0.61725  1.0000
  H   H1710     1.0  0.84498  0.66593  0.55013  1.0000
  H   H1711     1.0  0.94055  0.58013  0.39043  1.0000
  H   H1712     1.0  0.52783  0.76827  0.50277  1.0000
  H   H1713     1.0  0.91043  0.56833  0.33161  1.0000
  C   C956      1.0  0.70295  0.70851  0.32431  1.0000
  H   H1714     1.0  0.55370  0.87804  0.58373  1.0000
  H   H1715     1.0  0.54215  0.88089  0.53564  1.0000
  Fe  Fe104     1.0  0.75521  0.00156  0.60220  1.0000
  H   H1716     1.0  0.86333  0.88493  0.56986  1.0000
  H   H1717     1.0  0.85164  0.62479  0.62536  1.0000
  C   C957      1.0  0.54311  0.85916  0.54633  1.0000
  C   C958      1.0  0.53605  0.86446  0.57570  1.0000
  C   C959      1.0  0.97872  0.60355  0.37965  1.0000
  H   H1718     1.0  0.83317  0.62043  0.58214  1.0000
  H   H1719     1.0  0.85489  0.84310  0.60204  1.0000
  C   C960      1.0  0.85442  0.61208  0.57269  1.0000
  H   H1720     1.0  0.61372  0.91847  0.60724  1.0000
  C   C961      1.0  0.77347  0.82256  0.31413  1.0000
  C   C962      1.0  0.85329  0.88928  0.61215  1.0000
  C   C963      1.0  0.84488  0.59871  0.54580  1.0000
  C   C964      1.0  0.82712  0.57109  0.55005  1.0000
  H   H1721     1.0  0.55049  0.71758  0.50797  1.0000
  C   C965      1.0  0.94510  0.60155  0.38056  1.0000
  H   H1722     1.0  0.84116  0.00444  0.43175  1.0000
  H   H1723     1.0  0.86969  0.64536  0.52956  1.0000
  H   H1724     1.0  0.85148  0.92809  0.48407  1.0000
  H   H1725     1.0  0.94108  0.64846  0.39075  1.0000
  H   H1726     1.0  0.67464  0.97011  0.55180  1.0000
  C   C966      1.0  0.52028  0.65228  0.47627  1.0000
  S   S207      1.0  0.49034  0.00446  0.47080  1.0000
  Fe  Fe105     1.0  0.50820  0.61327  0.35102  1.0000
  H   H1727     1.0  0.83036  0.61535  0.53487  1.0000
  H   H1728     1.0  0.86398  0.59226  0.53296  1.0000
  H   H1729     1.0  0.80715  0.57677  0.56231  1.0000
  C   C967      1.0  0.71282  0.00924  0.53178  1.0000
  H   H1730     1.0  0.84097  0.55303  0.55987  1.0000
  C   C968      1.0  0.51450  0.96098  0.61925  1.0000
  H   H1731     1.0  0.89056  0.58572  0.38343  1.0000
  H   H1732     1.0  0.92913  0.64880  0.34460  1.0000
  C   C969      1.0  0.92854  0.54832  0.47015  1.0000
  S   S208      1.0  0.54634  0.68850  0.34789  1.0000
  C   C970      1.0  0.87094  0.76036  0.62510  1.0000
  H   H1733     1.0  0.93666  0.60089  0.35994  1.0000
  C   C971      1.0  0.86852  0.65741  0.54878  1.0000
  H   H1734     1.0  0.75288  0.78905  0.33661  1.0000
  C   C972      1.0  0.85663  0.80272  0.31028  1.0000
  S   S209      1.0  0.54224  0.62239  0.31951  1.0000
  C   C973      1.0  0.49172  0.70793  0.46589  1.0000
  H   H1735     1.0  0.88759  0.68612  0.50302  1.0000
  C   C974      1.0  0.89745  0.54943  0.47172  1.0000
  H   H1736     1.0  0.78451  0.84385  0.31712  1.0000
  H   H1737     1.0  0.91171  0.62185  0.52726  1.0000
  S   S210      1.0  0.70461  0.00457  0.60341  1.0000
  H   H1738     1.0  0.91652  0.99550  0.40016  1.0000
  H   H1739     1.0  0.84414  0.55997  0.38124  1.0000
  H   H1740     1.0  0.54104  0.99713  0.63098  1.0000
  H   H1741     1.0  0.68592  0.72722  0.32185  1.0000
  C   C975      1.0  0.50211  0.68988  0.44469  1.0000
  H   H1742     1.0  0.88602  0.52885  0.47117  1.0000
  H   H1743     1.0  0.86336  0.59339  0.58545  1.0000
  H   H1744     1.0  0.50254  0.94036  0.55507  1.0000
  H   H1745     1.0  0.91088  0.58623  0.54379  1.0000
  H   H1746     1.0  0.86081  0.92265  0.58209  1.0000
  C   C976      1.0  0.92996  0.62799  0.39628  1.0000
  S   S211      1.0  0.49640  0.70240  0.41184  1.0000
  H   H1747     1.0  0.57314  0.84591  0.62644  1.0000
  H   H1748     1.0  0.64806  0.94876  0.58302  1.0000
  H   H1749     1.0  0.62744  0.92651  0.56067  1.0000
  C   C977      1.0  0.50998  0.67030  0.49743  1.0000
  H   H1750     1.0  0.58851  0.96096  0.49858  1.0000
  H   H1751     1.0  0.94071  0.52699  0.46826  1.0000
  H   H1752     1.0  0.82902  0.89154  0.60842  1.0000
  H   H1753     1.0  0.58253  0.93419  0.58857  1.0000
  C   C978      1.0  0.86866  0.89937  0.58696  1.0000
  H   H1754     1.0  0.57286  0.67286  0.50520  1.0000
  H   H1755     1.0  0.94272  0.02122  0.59533  1.0000
  H   H1756     1.0  0.87297  0.59523  0.30316  1.0000
  H   H1757     1.0  0.50575  0.79407  0.62016  1.0000
  H   H1758     1.0  0.93571  0.62421  0.41760  1.0000
  C   C979      1.0  0.52491  0.80451  0.62968  1.0000
  H   H1759     1.0  0.96019  0.59317  0.52665  1.0000
  H   H1760     1.0  0.52671  0.84481  0.53710  1.0000
  Fe  Fe106     1.0  0.86581  0.96839  0.34347  1.0000
  H   H1761     1.0  0.48985  0.92658  0.60113  1.0000
  H   H1762     1.0  0.87450  0.68819  0.32805  1.0000
  H   H1763     1.0  0.56563  0.84825  0.54388  1.0000
  S   S212      1.0  0.85914  0.93381  0.37512  1.0000
  C   C980      1.0  0.56147  0.73309  0.49456  1.0000
  C   C981      1.0  0.55234  0.76484  0.50370  1.0000
  H   H1764     1.0  0.64919  0.71887  0.52278  1.0000
  Fe  Fe107     1.0  0.50049  0.69475  0.62395  1.0000
  H   H1765     1.0  0.53592  0.00186  0.30670  1.0000
  H   H1766     1.0  0.60597  0.74506  0.48427  1.0000
  H   H1767     1.0  0.75032  0.82565  0.35141  1.0000
  C   C982      1.0  0.49708  0.85210  0.62271  1.0000
  H   H1768     1.0  0.56208  0.78159  0.49057  1.0000
  S   S213      1.0  0.85479  0.93754  0.31016  1.0000
  C   C983      1.0  0.68304  0.00719  0.63292  1.0000
  H   H1769     1.0  0.74760  0.70353  0.34029  1.0000
  H   H1770     1.0  0.89305  0.89881  0.58981  1.0000
  C   C984      1.0  0.87170  0.65505  0.59700  1.0000
  H   H1771     1.0  0.64928  0.93914  0.52277  1.0000
  H   H1772     1.0  0.85819  0.70914  0.51843  1.0000
  C   C985      1.0  0.62587  0.94607  0.57418  1.0000
  N   N57       1.0  0.87585  0.63680  0.57183  1.0000
  C   C986      1.0  0.90830  0.66173  0.34988  1.0000
  Fe  Fe108     1.0  0.51390  0.67312  0.37792  1.0000
  H   H1773     1.0  0.55943  0.76844  0.52451  1.0000
  C   C987      1.0  0.87562  0.02189  0.40765  1.0000
  H   H1774     1.0  0.59097  0.97327  0.55490  1.0000
  H   H1775     1.0  0.61860  0.92593  0.46981  1.0000
  H   H1776     1.0  0.96174  0.62891  0.54276  1.0000
  Fe  Fe109     1.0  0.51835  0.66770  0.31659  1.0000
  H   H1777     1.0  0.73360  0.59466  0.34216  1.0000
  C   C988      1.0  0.51615  0.66194  0.45003  1.0000
  H   H1778     1.0  0.57127  0.68607  0.46001  1.0000
  H   H1779     1.0  0.88405  0.62214  0.35245  1.0000
  C   C989      1.0  0.88185  0.70118  0.52000  1.0000
  H   H1780     1.0  0.90659  0.55029  0.61583  1.0000
  C   C990      1.0  0.61560  0.00954  0.52197  1.0000
  H   H1781     1.0  0.92288  0.64211  0.57633  1.0000
  H   H1782     1.0  0.89558  0.72090  0.51882  1.0000
  H   H1783     1.0  0.72566  0.73511  0.35294  1.0000
  C   C991      1.0  0.60475  0.93869  0.59662  1.0000
  H   H1784     1.0  0.60230  0.95746  0.61105  1.0000
  C   C992      1.0  0.95271  0.60643  0.54431  1.0000
  H   H1785     1.0  0.88762  0.85408  0.61783  1.0000
  S   S214      1.0  0.98285  0.57388  0.46888  1.0000
  C   C993      1.0  0.60384  0.94397  0.50813  1.0000
  C   C994      1.0  0.87219  0.63708  0.62341  1.0000
  H   H1786     1.0  0.97002  0.55070  0.59664  1.0000
  H   H1787     1.0  0.70673  0.58446  0.31783  1.0000
  H   H1788     1.0  0.59260  0.93517  0.52578  1.0000
  H   H1789     1.0  0.65045  0.69343  0.31293  1.0000
  C   C995      1.0  0.49528  0.69801  0.49223  1.0000
  H   H1790     1.0  0.69477  0.60354  0.34801  1.0000
  C   C996      1.0  0.73105  0.72172  0.33486  1.0000
  H   H1791     1.0  0.59222  0.00466  0.51798  1.0000
  C   C997      1.0  0.89416  0.67292  0.32394  1.0000
  C   C998      1.0  0.63368  0.95749  0.51555  1.0000
  C   C999      1.0  0.89974  0.99855  0.41618  1.0000
  H   H1792     1.0  0.85669  0.56833  0.32447  1.0000
  H   H1793     1.0  0.51111  0.91463  0.32999  1.0000
  H   H1794     1.0  0.85618  0.76049  0.60748  1.0000
  H   H1795     1.0  0.72414  0.98934  0.54131  1.0000
  H   H1796     1.0  0.66177  0.00693  0.55976  1.0000
  S   S215      1.0  0.78586  0.01783  0.63343  1.0000
  H   H1797     1.0  0.97489  0.54350  0.54744  1.0000
  C   C1000     1.0  0.90278  0.55720  0.31350  1.0000
  S   S216      1.0  0.78308  0.01801  0.56838  1.0000
  H   H1798     1.0  0.88791  0.02225  0.59321  1.0000
  H   H1799     1.0  0.91105  0.00589  0.43443  1.0000
  H   H1800     1.0  0.59821  0.69068  0.31196  1.0000
  C   C1001     1.0  0.68523  0.64333  0.30625  1.0000
  C   C1002     1.0  0.90530  0.52837  0.62595  1.0000
  H   H1801     1.0  0.48753  0.71220  0.50849  1.0000
  H   H1802     1.0  0.78846  0.80663  0.30286  1.0000
  H   H1803     1.0  0.62507  0.01371  0.50202  1.0000
  C   C1003     1.0  0.95628  0.53453  0.58636  1.0000
  H   H1804     1.0  0.67253  0.02220  0.51153  1.0000
  H   H1805     1.0  0.72699  0.01664  0.51533  1.0000
  H   H1806     1.0  0.52750  0.82969  0.84663  1.0000
  H   H1807     1.0  0.68468  0.61719  0.82655  1.0000
  H   H1808     1.0  0.92122  0.87115  0.69534  1.0000
  Fe  Fe110     1.0  0.52339  0.97666  0.68581  1.0000
  H   H1809     1.0  0.55800  0.84293  0.78721  1.0000
  S   S217      1.0  0.51335  0.71609  0.78104  1.0000
  H   H1810     1.0  0.58485  0.77964  0.73015  1.0000
  H   H1811     1.0  0.55850  0.85262  0.84009  1.0000
  Fe  Fe111     1.0  0.58103  0.66214  0.85169  1.0000
  S   S218      1.0  0.56041  0.95703  0.71133  1.0000
  H   H1812     1.0  0.89394  0.79084  0.64938  1.0000
  H   H1813     1.0  0.53887  0.89605  0.91215  1.0000
  C   C1004     1.0  0.85490  0.54671  0.64377  1.0000
  S   S219      1.0  0.54222  0.97112  0.90326  1.0000
  Fe  Fe112     1.0  0.82943  0.98194  0.81427  1.0000
  S   S220      1.0  0.87582  0.96257  0.80832  1.0000
  S   S221      1.0  0.80232  0.00175  0.78024  1.0000
  Fe  Fe113     1.0  0.83096  0.97158  0.87480  1.0000
  S   S222      1.0  0.80325  0.98220  0.91202  1.0000
  Fe  Fe114     1.0  0.86202  0.92658  0.83614  1.0000
  S   S223      1.0  0.87233  0.87626  0.83055  1.0000
  S   S224      1.0  0.84068  0.01077  0.84891  1.0000
  S   S225      1.0  0.81479  0.94478  0.84015  1.0000
  C   C1005     1.0  0.70835  0.62249  0.82631  1.0000
  S   S226      1.0  0.82321  0.94485  0.66616  1.0000
  C   C1006     1.0  0.87787  0.02082  0.68997  1.0000
  S   S227      1.0  0.63143  0.66536  0.85533  1.0000
  C   C1007     1.0  0.52486  0.69170  0.69263  1.0000
  Fe  Fe115     1.0  0.84188  0.74808  0.72695  1.0000
  S   S228      1.0  0.79615  0.73040  0.72519  1.0000
  S   S229      1.0  0.84465  0.79885  0.72750  1.0000
  Fe  Fe116     1.0  0.87168  0.68477  0.72552  1.0000
  S   S230      1.0  0.82826  0.66354  0.72482  1.0000
  S   S231      1.0  0.91482  0.65622  0.72530  1.0000
  Fe  Fe117     1.0  0.81491  0.69821  0.69421  1.0000
  S   S232      1.0  0.79067  0.67764  0.65954  1.0000
  Fe  Fe118     1.0  0.81410  0.69750  0.75554  1.0000
  S   S233      1.0  0.78652  0.68279  0.79006  1.0000
  S   S234      1.0  0.85939  0.71821  0.69348  1.0000
  S   S235      1.0  0.85877  0.71656  0.75885  1.0000
  H   H1814     1.0  0.54621  0.78219  0.89367  1.0000
  S   S236      1.0  0.87738  0.95098  0.87271  1.0000
  C   C1008     1.0  0.66076  0.62632  0.76666  1.0000
  Fe  Fe119     1.0  0.81634  0.67132  0.93877  1.0000
  S   S237      1.0  0.83446  0.70062  0.90680  1.0000
  S   S238      1.0  0.80126  0.62533  0.93043  1.0000
  C   C1009     1.0  0.80015  0.68767  0.82242  1.0000
  C   C1010     1.0  0.82520  0.70380  0.82702  1.0000
  C   C1011     1.0  0.83564  0.70748  0.85296  1.0000
  C   C1012     1.0  0.82105  0.69514  0.87450  1.0000
  C   C1013     1.0  0.79595  0.67901  0.86996  1.0000
  C   C1014     1.0  0.78552  0.67530  0.84396  1.0000
  H   H1815     1.0  0.83641  0.71375  0.81069  1.0000
  H   H1816     1.0  0.85522  0.71972  0.85629  1.0000
  H   H1817     1.0  0.78442  0.66961  0.88650  1.0000
  H   H1818     1.0  0.76611  0.66280  0.84064  1.0000
  Fe  Fe120     1.0  0.52484  0.68932  0.87688  1.0000
  C   C1015     1.0  0.85867  0.54536  0.89251  1.0000
  H   H1819     1.0  0.53772  0.83306  0.89691  1.0000
  H   H1820     1.0  0.95228  0.58631  0.79234  1.0000
  C   C1016     1.0  0.54326  0.78380  0.75234  1.0000
  C   C1017     1.0  0.51370  0.86686  0.75515  1.0000
  C   C1018     1.0  0.88958  0.57061  0.71778  1.0000
  C   C1019     1.0  0.88890  0.60204  0.71852  1.0000
  C   C1020     1.0  0.91482  0.61673  0.72353  1.0000
  C   C1021     1.0  0.94144  0.59963  0.72762  1.0000
  C   C1022     1.0  0.94213  0.56818  0.72686  1.0000
  S   S239      1.0  0.49529  0.67409  0.84461  1.0000
  H   H1821     1.0  0.86834  0.61478  0.71498  1.0000
  H   H1822     1.0  0.96162  0.61076  0.73153  1.0000
  S   S240      1.0  0.50483  0.99557  0.96860  1.0000
  C   C1023     1.0  0.69246  0.63895  0.92613  1.0000
  C   C1024     1.0  0.70135  0.65891  0.90678  1.0000
  C   C1025     1.0  0.68203  0.66753  0.88581  1.0000
  C   C1026     1.0  0.65367  0.65623  0.88374  1.0000
  C   C1027     1.0  0.64450  0.63688  0.90349  1.0000
  C   C1028     1.0  0.66383  0.62823  0.92447  1.0000
  H   H1823     1.0  0.72317  0.66758  0.90791  1.0000
  H   H1824     1.0  0.68924  0.68301  0.87110  1.0000
  H   H1825     1.0  0.62283  0.62790  0.90219  1.0000
  H   H1826     1.0  0.65673  0.61273  0.93926  1.0000
  C   C1029     1.0  0.86497  0.85549  0.80137  1.0000
  C   C1030     1.0  0.87381  0.82487  0.80038  1.0000
  C   C1031     1.0  0.86728  0.80722  0.77817  1.0000
  C   C1032     1.0  0.85235  0.82012  0.75633  1.0000
  C   C1033     1.0  0.84412  0.85094  0.75703  1.0000
  C   C1034     1.0  0.85022  0.86849  0.77947  1.0000
  H   H1827     1.0  0.88601  0.81476  0.81680  1.0000
  H   H1828     1.0  0.87425  0.78371  0.77778  1.0000
  H   H1829     1.0  0.83286  0.86135  0.74022  1.0000
  H   H1830     1.0  0.84364  0.89209  0.77980  1.0000
  H   H1831     1.0  0.76415  0.86689  0.66990  1.0000
  C   C1035     1.0  0.81232  0.97577  0.94598  1.0000
  H   H1832     1.0  0.52445  0.81663  0.72614  1.0000
  H   H1833     1.0  0.56530  0.99499  0.85536  1.0000
  H   H1834     1.0  0.85011  0.94539  0.93894  1.0000
  C   C1036     1.0  0.80985  0.98674  0.74855  1.0000
  C   C1037     1.0  0.82878  0.96126  0.74508  1.0000
  C   C1038     1.0  0.83276  0.94855  0.71973  1.0000
  C   C1039     1.0  0.81799  0.96137  0.69770  1.0000
  C   C1040     1.0  0.79922  0.98697  0.70123  1.0000
  C   C1041     1.0  0.79532  0.99973  0.72651  1.0000
  H   H1835     1.0  0.83974  0.95078  0.76200  1.0000
  H   H1836     1.0  0.84718  0.92864  0.71734  1.0000
  H   H1837     1.0  0.90296  0.55341  0.88037  1.0000
  S   S241      1.0  0.50483  0.95074  0.65171  1.0000
  H   H1838     1.0  0.94317  0.00121  0.75278  1.0000
  C   C1042     1.0  0.54488  0.80435  0.95969  1.0000
  H   H1839     1.0  0.80125  0.82337  0.67585  1.0000
  S   S242      1.0  0.55586  0.64304  0.81707  1.0000
  H   H1840     1.0  0.66283  0.71515  0.79585  1.0000
  C   C1043     1.0  0.89874  0.88005  0.70126  1.0000
  H   H1841     1.0  0.66094  0.94480  0.70450  1.0000
  S   S243      1.0  0.50416  0.71575  0.91081  1.0000
  C   C1044     1.0  0.69445  0.01726  0.65692  1.0000
  C   C1045     1.0  0.52420  0.95252  0.81494  1.0000
  C   C1046     1.0  0.54423  0.97358  0.82255  1.0000
  C   C1047     1.0  0.54912  0.97928  0.84967  1.0000
  C   C1048     1.0  0.53372  0.96442  0.86946  1.0000
  H   H1842     1.0  0.72330  0.57574  0.82042  1.0000
  C   C1049     1.0  0.79422  0.98970  0.96566  1.0000
  H   H1843     1.0  0.55666  0.98481  0.80760  1.0000
  H   H1844     1.0  0.87191  0.64477  0.66601  1.0000
  H   H1845     1.0  0.51620  0.60700  0.92422  1.0000
  N   N58       1.0  0.80031  0.80027  0.87511  1.0000
  C   C1050     1.0  0.80098  0.83359  0.87070  1.0000
  C   C1051     1.0  0.79136  0.78540  0.84961  1.0000
  C   C1052     1.0  0.77640  0.79519  0.89536  1.0000
  C   C1053     1.0  0.82943  0.78649  0.88542  1.0000
  C   C1054     1.0  0.85815  0.80052  0.87582  1.0000
  C   C1055     1.0  0.80403  0.85269  0.89623  1.0000
  C   C1056     1.0  0.76916  0.76212  0.90009  1.0000
  C   C1057     1.0  0.81146  0.78894  0.82509  1.0000
  C   C1058     1.0  0.79691  0.77706  0.80006  1.0000
  C   C1059     1.0  0.88572  0.78124  0.88370  1.0000
  C   C1060     1.0  0.81224  0.88448  0.88975  1.0000
  C   C1061     1.0  0.74964  0.75894  0.92455  1.0000
  H   H1846     1.0  0.78034  0.84217  0.86046  1.0000
  H   H1847     1.0  0.81911  0.83906  0.85699  1.0000
  H   H1848     1.0  0.79073  0.76079  0.85234  1.0000
  H   H1849     1.0  0.76843  0.79358  0.84405  1.0000
  H   H1850     1.0  0.75530  0.80769  0.88968  1.0000
  H   H1851     1.0  0.78269  0.80420  0.91505  1.0000
  H   H1852     1.0  0.83022  0.78735  0.90752  1.0000
  H   H1853     1.0  0.83137  0.76223  0.88065  1.0000
  H   H1854     1.0  0.86016  0.82295  0.88481  1.0000
  H   H1855     1.0  0.85848  0.80339  0.85412  1.0000
  H   H1856     1.0  0.78259  0.85448  0.90705  1.0000
  H   H1857     1.0  0.82108  0.84250  0.90982  1.0000
  H   H1858     1.0  0.78967  0.74785  0.90310  1.0000
  H   H1859     1.0  0.75694  0.75334  0.88290  1.0000
  H   H1860     1.0  0.81593  0.81259  0.82126  1.0000
  H   H1861     1.0  0.83272  0.77563  0.82787  1.0000
  H   H1862     1.0  0.77666  0.79111  0.79499  1.0000
  H   H1863     1.0  0.81250  0.77765  0.78308  1.0000
  H   H1864     1.0  0.79091  0.75357  0.80281  1.0000
  H   H1865     1.0  0.88570  0.75895  0.87403  1.0000
  H   H1866     1.0  0.90587  0.79231  0.87723  1.0000
  H   H1867     1.0  0.88666  0.77825  0.90557  1.0000
  H   H1868     1.0  0.79527  0.89561  0.87661  1.0000
  H   H1869     1.0  0.81343  0.89781  0.90831  1.0000
  H   H1870     1.0  0.83422  0.88423  0.87986  1.0000
  H   H1871     1.0  0.72866  0.77292  0.92256  1.0000
  H   H1872     1.0  0.64862  0.70215  0.94685  1.0000
  C   C1062     1.0  0.56088  0.88361  0.91203  1.0000
  N   N59       1.0  0.71100  0.95454  0.73792  1.0000
  C   C1063     1.0  0.68855  0.93084  0.73925  1.0000
  C   C1064     1.0  0.73805  0.94537  0.75442  1.0000
  C   C1065     1.0  0.69668  0.98292  0.74963  1.0000
  C   C1066     1.0  0.71960  0.96105  0.70969  1.0000
  C   C1067     1.0  0.73557  0.93524  0.69408  1.0000
  C   C1068     1.0  0.65823  0.93827  0.72552  1.0000
  H   H1873     1.0  0.94366  0.01583  0.94983  1.0000
  C   C1069     1.0  0.74703  0.91138  0.75616  1.0000
  C   C1070     1.0  0.77750  0.90577  0.76890  1.0000
  C   C1071     1.0  0.73912  0.94354  0.66488  1.0000
  C   C1072     1.0  0.63902  0.91129  0.72587  1.0000
  H   H1874     1.0  0.68370  0.92586  0.76043  1.0000
  H   H1875     1.0  0.69754  0.90945  0.73061  1.0000
  H   H1876     1.0  0.75757  0.95711  0.74734  1.0000
  H   H1877     1.0  0.73485  0.95263  0.77546  1.0000
  H   H1878     1.0  0.48951  0.81070  0.94398  1.0000
  H   H1879     1.0  0.51474  0.84815  0.92276  1.0000
  H   H1880     1.0  0.69999  0.96927  0.69812  1.0000
  H   H1881     1.0  0.73488  0.97955  0.70903  1.0000
  H   H1882     1.0  0.72332  0.91456  0.69472  1.0000
  H   H1883     1.0  0.75812  0.93088  0.70240  1.0000
  H   H1884     1.0  0.86007  0.74917  0.64180  1.0000
  H   H1885     1.0  0.78761  0.88931  0.69016  1.0000
  H   H1886     1.0  0.82273  0.88239  0.65394  1.0000
  C   C1073     1.0  0.49896  0.71949  0.72800  1.0000
  H   H1887     1.0  0.73081  0.90008  0.76866  1.0000
  H   H1888     1.0  0.74772  0.90042  0.73648  1.0000
  H   H1889     1.0  0.78192  0.88145  0.77245  1.0000
  H   H1890     1.0  0.79495  0.91335  0.75545  1.0000
  H   H1891     1.0  0.77879  0.91771  0.78818  1.0000
  H   H1892     1.0  0.92125  0.97844  0.67039  1.0000
  C   C1074     1.0  0.88935  0.53381  0.88301  1.0000
  H   H1893     1.0  0.77580  0.00474  0.95980  1.0000
  C   C1075     1.0  0.88595  0.01202  0.66097  1.0000
  H   H1894     1.0  0.65010  0.89216  0.71499  1.0000
  H   H1895     1.0  0.63449  0.90452  0.74660  1.0000
  H   H1896     1.0  0.62022  0.61618  0.78755  1.0000
  H   H1897     1.0  0.89787  0.01512  0.70204  1.0000
  H   H1898     1.0  0.52778  0.88185  0.80698  1.0000
  H   H1899     1.0  0.95075  0.98125  0.96750  1.0000
  Fe  Fe121     1.0  0.88618  0.98900  0.84491  1.0000
  C   C1076     1.0  0.73755  0.65761  0.71669  1.0000
  N   N60       1.0  0.89152  0.61120  0.80825  1.0000
  C   C1077     1.0  0.86154  0.61799  0.79565  1.0000
  C   C1078     1.0  0.91179  0.63545  0.80075  1.0000
  C   C1079     1.0  0.90433  0.58218  0.79639  1.0000
  C   C1080     1.0  0.89007  0.60778  0.83808  1.0000
  C   C1081     1.0  0.86540  0.62663  0.85302  1.0000
  C   C1082     1.0  0.83984  0.59241  0.79715  1.0000
  C   C1083     1.0  0.93691  0.57293  0.80399  1.0000
  C   C1084     1.0  0.90267  0.66750  0.81037  1.0000
  C   C1085     1.0  0.92350  0.69013  0.79932  1.0000
  C   C1086     1.0  0.87207  0.62821  0.88273  1.0000
  C   C1087     1.0  0.80784  0.60389  0.79215  1.0000
  H   H1900     1.0  0.52473  0.86916  0.85416  1.0000
  H   H1901     1.0  0.86421  0.62341  0.77419  1.0000
  H   H1902     1.0  0.85021  0.63843  0.80416  1.0000
  H   H1903     1.0  0.93444  0.63057  0.80882  1.0000
  H   H1904     1.0  0.91437  0.63608  0.77880  1.0000
  H   H1905     1.0  0.90324  0.58310  0.77432  1.0000
  H   H1906     1.0  0.89077  0.56328  0.80220  1.0000
  H   H1907     1.0  0.88668  0.58418  0.84352  1.0000
  H   H1908     1.0  0.91177  0.61270  0.84711  1.0000
  H   H1909     1.0  0.84374  0.61645  0.85055  1.0000
  H   H1910     1.0  0.86265  0.64980  0.84567  1.0000
  H   H1911     1.0  0.84579  0.57535  0.78170  1.0000
  H   H1912     1.0  0.84089  0.58121  0.81677  1.0000
  H   H1913     1.0  0.71983  0.58732  0.85462  1.0000
  H   H1914     1.0  0.55464  0.76080  0.66356  1.0000
  H   H1915     1.0  0.87998  0.67466  0.80387  1.0000
  H   H1916     1.0  0.90405  0.66876  0.83231  1.0000
  H   H1917     1.0  0.91643  0.71291  0.80647  1.0000
  H   H1918     1.0  0.94662  0.68475  0.80599  1.0000
  H   H1919     1.0  0.92287  0.69025  0.77728  1.0000
  H   H1920     1.0  0.87724  0.60569  0.89118  1.0000
  H   H1921     1.0  0.89104  0.64237  0.88639  1.0000
  H   H1922     1.0  0.85249  0.63837  0.89334  1.0000
  H   H1923     1.0  0.80596  0.61590  0.77288  1.0000
  H   H1924     1.0  0.79321  0.58482  0.79159  1.0000
  H   H1925     1.0  0.80010  0.61927  0.80835  1.0000
  H   H1926     1.0  0.65502  0.67304  0.77500  1.0000
  H   H1927     1.0  0.89059  0.86635  0.71781  1.0000
  H   H1928     1.0  0.87041  0.83306  0.68408  1.0000
  H   H1929     1.0  0.68336  0.73442  0.83794  1.0000
  H   H1930     1.0  0.59470  0.89079  0.64374  1.0000
  H   H1931     1.0  0.51691  0.86296  0.71176  1.0000
  H   H1932     1.0  0.55739  0.82780  0.74188  1.0000
  H   H1933     1.0  0.57125  0.92122  0.65679  1.0000
  H   H1934     1.0  0.86109  0.00534  0.69694  1.0000
  S   S244      1.0  0.77802  0.68535  0.96528  1.0000
  C   C1088     1.0  0.72675  0.59432  0.83451  1.0000
  H   H1935     1.0  0.97535  0.53313  0.92024  1.0000
  S   S245      1.0  0.55713  0.70757  0.84843  1.0000
  H   H1936     1.0  0.89944  0.61538  0.95609  1.0000
  C   C1089     1.0  0.70147  0.68544  0.80675  1.0000
  C   C1090     1.0  0.71281  0.66963  0.76109  1.0000
  C   C1091     1.0  0.69290  0.74031  0.81843  1.0000
  C   C1092     1.0  0.93537  0.00141  0.96577  1.0000
  H   H1937     1.0  0.57613  0.88687  0.67526  1.0000
  H   H1938     1.0  0.55248  0.76913  0.71175  1.0000
  C   C1093     1.0  0.51287  0.94414  0.86183  1.0000
  C   C1094     1.0  0.89747  0.56957  0.96844  1.0000
  C   C1095     1.0  0.87365  0.65784  0.64740  1.0000
  H   H1939     1.0  0.89496  0.66900  0.64775  1.0000
  H   H1940     1.0  0.69004  0.68018  0.82551  1.0000
  H   H1941     1.0  0.65699  0.65076  0.80375  1.0000
  C   C1096     1.0  0.54118  0.68486  0.94606  1.0000
  H   H1942     1.0  0.89607  0.55193  0.66363  1.0000
  Fe  Fe122     1.0  0.53018  0.68764  0.81603  1.0000
  H   H1943     1.0  0.58256  0.84383  0.92840  1.0000
  H   H1944     1.0  0.84821  0.56073  0.87751  1.0000
  C   C1097     1.0  0.53594  0.83477  0.91888  1.0000
  H   H1945     1.0  0.55535  0.86232  0.94962  1.0000
  H   H1946     1.0  0.96850  0.53446  0.80211  1.0000
  C   C1098     1.0  0.62740  0.70487  0.95798  1.0000
  H   H1947     1.0  0.49900  0.88078  0.76860  1.0000
  H   H1948     1.0  0.61447  0.64103  0.75949  1.0000
  C   C1099     1.0  0.91215  0.59510  0.96148  1.0000
  H   H1949     1.0  0.75067  0.59875  0.83521  1.0000
  C   C1100     1.0  0.80823  0.84659  0.67815  1.0000
  H   H1950     1.0  0.53787  0.81413  0.80061  1.0000
  N   N61       1.0  0.85238  0.84386  0.64515  1.0000
  H   H1951     1.0  0.62625  0.75723  0.90123  1.0000
  H   H1952     1.0  0.90033  0.90333  0.70854  1.0000
  C   C1101     1.0  0.64659  0.01163  0.67877  1.0000
  C   C1102     1.0  0.56352  0.76861  0.73145  1.0000
  H   H1953     1.0  0.66691  0.63045  0.74575  1.0000
  H   H1954     1.0  0.72505  0.68865  0.81202  1.0000
  C   C1103     1.0  0.71785  0.63353  0.79857  1.0000
  H   H1955     1.0  0.56038  0.66109  0.70576  1.0000
  C   C1104     1.0  0.66756  0.65354  0.78404  1.0000
  C   C1105     1.0  0.55276  0.78084  0.91492  1.0000
  H   H1956     1.0  0.67259  0.60552  0.77382  1.0000
  H   H1957     1.0  0.50096  0.77265  0.93854  1.0000
  C   C1106     1.0  0.68720  0.71618  0.79785  1.0000
  C   C1107     1.0  0.87485  0.84778  0.66691  1.0000
  H   H1958     1.0  0.71709  0.74284  0.82072  1.0000
  H   H1959     1.0  0.50291  0.78166  0.79137  1.0000
  H   H1960     1.0  0.78722  0.99672  0.68465  1.0000
  H   H1961     1.0  0.49725  0.85890  0.81298  1.0000
  H   H1962     1.0  0.69627  0.72352  0.77864  1.0000
  S   S246      1.0  0.49356  0.98711  0.72051  1.0000
  S   S247      1.0  0.53192  0.68393  0.65859  1.0000
  C   C1108     1.0  0.53497  0.83647  0.79123  1.0000
  S   S248      1.0  0.51943  0.94257  0.78115  1.0000
  H   H1963     1.0  0.75215  0.67655  0.71923  1.0000
  H   H1964     1.0  0.72981  0.68627  0.76453  1.0000
  S   S249      1.0  0.54973  0.64510  0.88209  1.0000
  H   H1965     1.0  0.89741  0.84003  0.66009  1.0000
  H   H1966     1.0  0.76153  0.76557  0.94275  1.0000
  C   C1109     1.0  0.49131  0.90317  0.72090  1.0000
  H   H1967     1.0  0.71751  0.66538  0.70534  1.0000
  H   H1968     1.0  0.52254  0.77180  0.75231  1.0000
  H   H1969     1.0  0.82403  0.84733  0.69483  1.0000
  H   H1970     1.0  0.75195  0.92526  0.65435  1.0000
  H   H1971     1.0  0.94258  0.55547  0.91098  1.0000
  H   H1972     1.0  0.72525  0.01750  0.73440  1.0000
  H   H1973     1.0  0.71203  0.63957  0.84171  1.0000
  C   C1110     1.0  0.87743  0.87986  0.67771  1.0000
  H   H1974     1.0  0.48847  0.72395  0.68617  1.0000
  H   H1975     1.0  0.90420  0.97405  0.63838  1.0000
  H   H1976     1.0  0.56718  0.87804  0.89123  1.0000
  C   C1111     1.0  0.50260  0.71270  0.70082  1.0000
  H   H1977     1.0  0.71525  0.62585  0.74018  1.0000
  H   H1978     1.0  0.59327  0.80322  0.90559  1.0000
  H   H1979     1.0  0.61755  0.91726  0.71597  1.0000
  C   C1112     1.0  0.51586  0.70389  0.94256  1.0000
  H   H1980     1.0  0.84192  0.55151  0.66217  1.0000
  H   H1981     1.0  0.96272  0.55536  0.73028  1.0000
  H   H1982     1.0  0.54758  0.75792  0.92116  1.0000
  C   C1113     1.0  0.53907  0.68368  0.73914  1.0000
  Fe  Fe123     1.0  0.53199  0.97190  0.74630  1.0000
  C   C1114     1.0  0.54307  0.67731  0.71193  1.0000
  H   H1983     1.0  0.86940  0.55949  0.71390  1.0000
  H   H1984     1.0  0.78061  0.01945  0.72908  1.0000
  H   H1985     1.0  0.85508  0.67514  0.64689  1.0000
  H   H1986     1.0  0.55333  0.67251  0.75372  1.0000
  H   H1987     1.0  0.56786  0.81151  0.96144  1.0000
  H   H1988     1.0  0.73649  0.00296  0.76631  1.0000
  C   C1115     1.0  0.71709  0.00935  0.75365  1.0000
  H   H1989     1.0  0.84208  0.80021  0.66028  1.0000
  H   H1990     1.0  0.55440  0.67764  0.92919  1.0000
  H   H1991     1.0  0.59560  0.78158  0.93595  1.0000
  C   C1116     1.0  0.58681  0.78248  0.91543  1.0000
  C   C1117     1.0  0.91618  0.55352  0.72192  1.0000
  H   H1992     1.0  0.68230  0.76204  0.81190  1.0000
  H   H1993     1.0  0.95450  0.61422  0.95591  1.0000
  C   C1118     1.0  0.50829  0.93812  0.83470  1.0000
  H   H1994     1.0  0.77106  0.85733  0.70428  1.0000
  N   N62       1.0  0.53495  0.80390  0.93105  1.0000
  H   H1995     1.0  0.74987  0.63995  0.70495  1.0000
  C   C1119     1.0  0.95436  0.01163  0.76978  1.0000
  H   H1996     1.0  0.64567  0.95668  0.73611  1.0000
  Fe  Fe124     1.0  0.57612  0.00388  0.71097  1.0000
  C   C1120     1.0  0.63521  0.00155  0.65478  1.0000
  H   H1997     1.0  0.94109  0.57653  0.82540  1.0000
  H   H1998     1.0  0.71713  0.94707  0.65515  1.0000
  N   N63       1.0  0.69978  0.65995  0.78724  1.0000
  Fe  Fe125     1.0  0.51531  0.95847  0.93935  1.0000
  H   H1999     1.0  0.61942  0.72876  0.95735  1.0000
  H   H2000     1.0  0.59503  0.75676  0.87901  1.0000
  C   C1121     1.0  0.50303  0.79554  0.93068  1.0000
  H   H2001     1.0  0.75126  0.96428  0.66292  1.0000
  H   H2002     1.0  0.57738  0.89855  0.92030  1.0000
  C   C1122     1.0  0.51715  0.70503  0.74730  1.0000
  C   C1123     1.0  0.89989  0.98015  0.65946  1.0000
  C   C1124     1.0  0.56021  0.85522  0.92884  1.0000
  S   S250      1.0  0.71596  0.62720  0.95296  1.0000
  Fe  Fe126     1.0  0.52185  0.63066  0.84772  1.0000
  H   H2003     1.0  0.59580  0.73449  0.90890  1.0000
  C   C1125     1.0  0.62761  0.62108  0.76706  1.0000
  C   C1126     1.0  0.72899  0.64512  0.74367  1.0000
  H   H2004     1.0  0.52772  0.89009  0.65361  1.0000
  H   H2005     1.0  0.53527  0.87781  0.75503  1.0000
  C   C1127     1.0  0.60179  0.75614  0.90021  1.0000
  C   C1128     1.0  0.49197  0.60465  0.92608  1.0000
  H   H2006     1.0  0.88622  0.89445  0.66224  1.0000
  H   H2007     1.0  0.49847  0.85336  0.66655  1.0000
  C   C1129     1.0  0.78097  0.86629  0.68599  1.0000
  H   H2008     1.0  0.85579  0.88952  0.68482  1.0000
  C   C1130     1.0  0.82218  0.85777  0.65216  1.0000
  H   H2009     1.0  0.61246  0.99533  0.65377  1.0000
  H   H2010     1.0  0.74986  0.63677  0.75353  1.0000
  Fe  Fe127     1.0  0.76438  0.63832  0.95896  1.0000
  H   H2011     1.0  0.74415  0.73519  0.92673  1.0000
  H   H2012     1.0  0.74149  0.63911  0.80019  1.0000
  C   C1131     1.0  0.48749  0.79614  0.90315  1.0000
  H   H2013     1.0  0.62309  0.60169  0.75421  1.0000
  S   S251      1.0  0.62520  0.01313  0.70838  1.0000
  H   H2014     1.0  0.71793  0.61397  0.78506  1.0000
  H   H2015     1.0  0.69545  0.68151  0.74869  1.0000
  C   C1132     1.0  0.53609  0.81711  0.74556  1.0000
  H   H2016     1.0  0.67819  0.99181  0.73681  1.0000
  C   C1133     1.0  0.83609  0.95638  0.95384  1.0000
  C   C1134     1.0  0.52177  0.85890  0.81222  1.0000
  H   H2017     1.0  0.68661  0.97809  0.76926  1.0000
  H   H2018     1.0  0.56829  0.74480  0.73696  1.0000
  H   H2019     1.0  0.61069  0.69141  0.94805  1.0000
  H   H2020     1.0  0.86045  0.55783  0.91144  1.0000
  S   S252      1.0  0.92687  0.01649  0.84831  1.0000
  C   C1135     1.0  0.53396  0.85204  0.83997  1.0000
  S   S253      1.0  0.85827  0.56894  0.96800  1.0000
  S   S254      1.0  0.55058  0.01714  0.74815  1.0000
  H   H2021     1.0  0.55443  0.78090  0.77181  1.0000
  H   H2022     1.0  0.52022  0.80435  0.65136  1.0000
  H   H2023     1.0  0.91305  0.99446  0.95994  1.0000
  C   C1136     1.0  0.96026  0.56817  0.96822  1.0000
  S   S255      1.0  0.49706  0.58790  0.85162  1.0000
  C   C1137     1.0  0.67613  0.01996  0.67957  1.0000
  C   C1138     1.0  0.96248  0.54273  0.90322  1.0000
  H   H2024     1.0  0.86591  0.01282  0.64825  1.0000
  H   H2025     1.0  0.51070  0.91709  0.72294  1.0000
  C   C1139     1.0  0.95333  0.53613  0.64660  1.0000
  H   H2026     1.0  0.94387  0.53885  0.66692  1.0000
  H   H2027     1.0  0.93751  0.01730  0.78532  1.0000
  H   H2028     1.0  0.88474  0.96401  0.66796  1.0000
  N   N64       1.0  0.51777  0.83522  0.76560  1.0000
  C   C1140     1.0  0.94339  0.59437  0.96136  1.0000
  H   H2029     1.0  0.95126  0.55887  0.63771  1.0000
  H   H2030     1.0  0.94585  0.52777  0.86507  1.0000
  S   S256      1.0  0.54039  0.02277  0.68355  1.0000
  H   H2031     1.0  0.59066  0.01481  0.96152  1.0000
  H   H2032     1.0  0.87212  0.01596  0.74377  1.0000
  C   C1141     1.0  0.84919  0.81069  0.64147  1.0000
  C   C1142     1.0  0.55148  0.75515  0.64235  1.0000
  H   H2033     1.0  0.55318  0.84041  0.65600  1.0000
  C   C1143     1.0  0.57405  0.89648  0.65499  1.0000
  C   C1144     1.0  0.48760  0.82267  0.76906  1.0000
  H   H2034     1.0  0.96988  0.57608  0.87279  1.0000
  H   H2035     1.0  0.50081  0.93262  0.87685  1.0000
  H   H2036     1.0  0.49250  0.92202  0.82901  1.0000
  H   H2037     1.0  0.49811  0.77916  0.88962  1.0000
  H   H2038     1.0  0.94065  0.53505  0.77657  1.0000
  H   H2039     1.0  0.71717  0.02355  0.65790  1.0000
  C   C1145     1.0  0.88616  0.53474  0.65112  1.0000
  Fe  Fe128     1.0  0.82841  0.61172  0.96641  1.0000
  H   H2040     1.0  0.97114  0.99504  0.77799  1.0000
  C   C1146     1.0  0.94467  0.53994  0.79784  1.0000
  C   C1147     1.0  0.50023  0.87044  0.72690  1.0000
  H   H2041     1.0  0.55647  0.75593  0.96473  1.0000
  H   H2042     1.0  0.59560  0.97794  0.94727  1.0000
  C   C1148     1.0  0.49963  0.71401  0.96475  1.0000
  C   C1149     1.0  0.59390  0.99062  0.96623  1.0000
  C   C1150     1.0  0.54718  0.88478  0.64075  1.0000
  H   H2043     1.0  0.48811  0.81840  0.89362  1.0000
  C   C1151     1.0  0.98194  0.56487  0.88957  1.0000
  H   H2044     1.0  0.52978  0.74502  0.64010  1.0000
  H   H2045     1.0  0.48684  0.60014  0.94719  1.0000
  H   H2046     1.0  0.84402  0.52659  0.89557  1.0000
  C   C1152     1.0  0.55107  0.85058  0.63587  1.0000
  H   H2047     1.0  0.56926  0.73832  0.63638  1.0000
  H   H2048     1.0  0.80625  0.85405  0.63574  1.0000
