data_image0
_chemical_formula_structural       HSHSH3SH3SH2FeS2FeS2FeSFeS3C6FeH5C2H5CHCH3C3H2C7H3C6H6CHCH4NH2CH3CH3CHCHC2HCH2CH3SCSCHCHNH2CH2CH4CHCH2CH2FeSHCHC2NH4C3HCHC2H3CH5C5H2C3NH2CH5NCHC2HSCH2SH6CH3CFeHCH13C3H8CH2CHC3H5C2NFeC5HCH4CHCH3C2H2SH2CH2CH2FeS2FeS2HFeSHSFeS2FeSHFe2SCSFeS2FeSFeSFeS3H2FeS2FeSFeHS2C2HC4HCHC6HC2HC6H4C6H4C4HCH2CHC2HCH2C2H4C2NC8HC3H17SH10NC12H32CH3NSCH2NHCH4CSH3CH4CH3CH7CHC3HC2H5CH3CH2CH4CH3CH2CHCH3CH6CH3FeCHSHCH2C2HSHFeHSFeS2FeCFeHS2FeS2FeS2FeCFeHS2CH4C2SH2C2HNH5CHC2H7C6H4C6H4NC2HC5HC2H3CHSCH8CHCHCH11CHCHFeH2SH3CHCHC3H4C4HCHSH11CH2C2H3C4H3C2H4CH8CHCH5C2H2CH2CHCH2CHCHCH6CH2CNC2HC3HC2HC2H4CNH6CH7CH2C2HCHCH3CHCH3SH3CH2NC2HCHS2H3C2SHCHSH2FeS2FeS2FeSFeS3C6H3FeC4H4CH7CNH2C2HC3H4C6H4CH2CHCHC3H3CH5CH7CH2CHCH3CH2CHC2HCH2CFeSH3C2H4NCHFeH2CH8CH2SH2CHSC2H4CH4CNC10HC2FeH15CH3CH7FeS2H2NC8HC3H14CH15CH2CHSHCHC3H2C3H3CH3CH4CH6FeH3SNC2SHC2HCH9C3H3FeS2FeS2Fe2SCSFeS2FeS2Fe2S3FeS2H2CHFeCHSH2FeS2FeH3SHFeH5SH3C5H3CSC6H4C6H4C6H3SC6H2C2HC6H5CH2CNCH6C2H4C3H2CHCH18CHCH2CH8CH8CH2CH2CH3CH8SCH2CH6CNC12H3CFeSHSC2H2CHCH3CHCH3SH2C3HFeS2FeS2FeHFeCS2FeHSFeHSHCHCS2C3H2C3H2CH4CHC2H3CHCHCH3C6H4C6H4C2H2CH5CH2CHC2HSH2CH4CHCH3CHCH2CHCHC2HCH6C3H4C2HNC2HC2HC2FeCH2CH3CSH5CNH3C2H6CH2CH3NHCH2NC2NHNCHCH2CH5SH2CH4C7SH5CHCHC2H6CHCH3FeCH3CH3CH4CHC2H3SH6CH5CHCH4C2HC3HCHNCH2CHCH6NSH9SH9CH6CHCH2CHCHCS2CH2CHCHSFeHSFeCSCSHCS2FeS2FeS2FeSFeS3C4HCH2CHCSC2H2CHCHCH2CH2CH3C6H4C6H5CHSH2CH2C2H10C2HFeHCHCNC4H2C3H2CH6CH2NH4CH13CHC2H4CH2CSCHCH11CHCHC2H3C2FeHCHCH10C2H3C2HCHCHCHCH3CH5CSCH2CHNHCHCH3NHCH4C2H2CH7CH2NH5C2H4CH3NH6CSHCH2CH3CH2FeH2CHCHCH2CH2FeS2FeH3FeSHSFeS2FeS2Fe2S3FeS2HCFeHFeS4HFeS2FeHFeHSHC2HCH4SC7H4C6H4C6H5C3HSCHSHCH2C2H2CNCH2CHCHCHC2HC2H2CH2C2HC2H7CH3SH3C2H5FeCH5C5HNC12H28CH3C2HCH3NH9CSCH2CH5NH4C2H2CHCH2CH4CH2CH3CHCSCHSCH2C2H3CHC2H5CH3C2H2CH2SCFeS2FeS2FeSFeCS2FeHSFeHSH4S2C3H4C2HC3HC2H3CH3NH6C6H4C6H5CHC3HC2HC2NH6C2H3CH8NH3FeHCH4CNCHCH2C2H3C2HC2H5NH5C2SH5CH9C3H2CH4CHSC2HC2H4CHCHC2H4FeCH6CH2CH2C2HCH7CHC3H3CHCHCH2CH2CH3CH3C4H3CH3SCNH2C2H2CH4CH2CHCFeH2C2H2C3H4NH3SCHC2HCH2C4HC2HSHCH2SH2SH2SCH2FeS2FeS2FeSFeS3C2HC3HSHC2HC2H7C3HC3HC2H2C3H4C6H6CH2CH2C2H2C3H2CH4CH6CH2C4H9C2SHCNCH3SCHFe2SHCHCSH5C2H2C3H2C3NH2CH3NH3CSH8CNC6HCHC3H2NH13CHCH8CH3CH2FeH3C4H4C2FeHCH8C3HCHC2H3SH5CHCH4CNHCH3CH2C3HFeS2FeSH2FeSHSFeS2FeSC2FeSCSFeS2CHFeHFeS3NHFeS2FeHFeHS2HCH2CSCH3C6H2CHC6H4C6H6C2HCH4C4HCH3CNC5H18CH3CHSFeHCSHFeCH3CH2CH3C2HC2H2C2H3CNHC2H2C2H2NC12H30C2HNC3HCHC2H2CHCH4FeCH3SH5CNH6CHC3H2CFeH5CH2CH2C5H2C2H8SHCHSCSH3SC2HCH5CH2CH7S2FeS2FeS2FeHFeCS2FeHSFeCSH2CHS2C2HCH3CHC2H2CH2CHCH3FeC2H5C6H4C6H10CH6CH2NC6HNHC3H14C2H4CH4CH2CHC2HCH4SHC6SC2HC2HC3HCH2CSH7NC2HC3HC3HNCH4FeH5CH11CH2CH3SCH2C2HCH6C2H5CH5SH3CHC3HCNSH4C3HC3H7CH3CH5SH9CH2CH5CSCHSH4CHC
_chemical_formula_sum              "H2048 S256 Fe128 C1152 N64"
_cell_length_a       47.6955
_cell_length_b       47.464
_cell_length_c       48.8572
_cell_angle_alpha    90.077
_cell_angle_beta     90.0357
_cell_angle_gamma    90.1853

_space_group_name_H-M_alt    "P 1"
_space_group_IT_number       1

loop_
  _space_group_symop_operation_xyz
  'x, y, z'

loop_
  _atom_site_type_symbol
  _atom_site_label
  _atom_site_symmetry_multiplicity
  _atom_site_fract_x
  _atom_site_fract_y
  _atom_site_fract_z
  _atom_site_occupancy
  H   H1        1.0  0.24504  0.27585  0.22703  1.0000
  S   S1        1.0  0.02608  0.15452  0.31480  1.0000
  H   H2        1.0  0.45991  0.30972  0.33227  1.0000
  S   S2        1.0  0.00941  0.07254  0.14157  1.0000
  H   H3        1.0  0.33767  0.28846  0.01244  1.0000
  H   H4        1.0  0.35148  0.28172  0.05543  1.0000
  H   H5        1.0  0.41037  0.44671  0.17747  1.0000
  S   S3        1.0  0.04781  0.12723  0.18849  1.0000
  H   H6        1.0  0.46498  0.30708  0.26840  1.0000
  H   H7        1.0  0.45116  0.34986  0.24475  1.0000
  H   H8        1.0  0.28390  0.45888  0.05803  1.0000
  S   S4        1.0  0.44384  0.16745  0.09815  1.0000
  H   H9        1.0  0.37089  0.20227  0.29680  1.0000
  H   H10       1.0  0.45035  0.03617  0.04126  1.0000
  Fe  Fe1       1.0  0.38110  0.36997  0.11579  1.0000
  S   S5        1.0  0.42759  0.37238  0.11050  1.0000
  S   S6        1.0  0.35260  0.39320  0.08575  1.0000
  Fe  Fe2       1.0  0.38629  0.33779  0.17063  1.0000
  S   S7        1.0  0.43344  0.33855  0.16893  1.0000
  S   S8        1.0  0.36506  0.31005  0.20303  1.0000
  Fe  Fe3       1.0  0.42894  0.38344  0.15504  1.0000
  S   S9        1.0  0.46163  0.41582  0.16705  1.0000
  Fe  Fe4       1.0  0.42831  0.32746  0.12470  1.0000
  S   S10       1.0  0.45968  0.29914  0.10377  1.0000
  S   S11       1.0  0.38206  0.38399  0.16016  1.0000
  S   S12       1.0  0.38140  0.32378  0.12648  1.0000
  C   C1        1.0  0.45059  0.20343  0.10346  1.0000
  C   C2        1.0  0.47425  0.21622  0.09205  1.0000
  C   C3        1.0  0.47682  0.24568  0.09235  1.0000
  C   C4        1.0  0.45652  0.26233  0.10531  1.0000
  C   C5        1.0  0.43382  0.24942  0.11831  1.0000
  C   C6        1.0  0.43051  0.22004  0.11679  1.0000
  Fe  Fe5       1.0  0.01436  0.11718  0.15641  1.0000
  H   H11       1.0  0.24760  0.23517  0.31583  1.0000
  H   H12       1.0  0.41844  0.26211  0.12889  1.0000
  H   H13       1.0  0.21236  0.31558  0.25947  1.0000
  H   H14       1.0  0.41414  0.33653  0.32587  1.0000
  H   H15       1.0  0.41223  0.21015  0.12578  1.0000
  C   C7        1.0  0.47357  0.47086  0.15523  1.0000
  C   C8        1.0  0.45294  0.45162  0.16367  1.0000
  H   H16       1.0  0.48743  0.03476  0.03476  1.0000
  H   H17       1.0  0.39997  0.49796  0.17548  1.0000
  H   H18       1.0  0.41732  0.34971  0.26096  1.0000
  H   H19       1.0  0.40419  0.30800  0.29047  1.0000
  H   H20       1.0  0.29843  0.30780  0.20938  1.0000
  C   C9        1.0  0.02531  0.21002  0.22312  1.0000
  H   H21       1.0  0.01698  0.49718  0.22061  1.0000
  C   C10       1.0  0.03405  0.07209  0.03185  1.0000
  H   H22       1.0  0.47602  0.27614  0.30056  1.0000
  H   H23       1.0  0.36246  0.47034  0.14351  1.0000
  H   H24       1.0  0.03552  0.11677  0.03915  1.0000
  C   C11       1.0  0.37115  0.37238  0.03571  1.0000
  C   C12       1.0  0.35557  0.39282  0.04956  1.0000
  C   C13       1.0  0.34111  0.41321  0.03427  1.0000
  H   H25       1.0  0.38259  0.35683  0.04730  1.0000
  H   H26       1.0  0.32930  0.42927  0.04483  1.0000
  C   C14       1.0  0.03258  0.14849  0.27947  1.0000
  C   C15       1.0  0.00999  0.14107  0.26235  1.0000
  C   C16       1.0  0.01421  0.13512  0.23438  1.0000
  C   C17       1.0  0.04124  0.13581  0.22332  1.0000
  C   C18       1.0  0.06383  0.14328  0.24042  1.0000
  C   C19       1.0  0.05954  0.14981  0.26829  1.0000
  C   C20       1.0  0.37511  0.22045  0.31055  1.0000
  H   H27       1.0  0.37856  0.21238  0.33166  1.0000
  H   H28       1.0  0.08481  0.14406  0.23204  1.0000
  H   H29       1.0  0.07714  0.15541  0.28120  1.0000
  C   C21       1.0  0.34723  0.32871  0.29403  1.0000
  C   C22       1.0  0.35407  0.35073  0.27599  1.0000
  C   C23       1.0  0.35990  0.34535  0.24819  1.0000
  C   C24       1.0  0.35882  0.31782  0.23807  1.0000
  C   C25       1.0  0.35186  0.29574  0.25610  1.0000
  C   C26       1.0  0.34626  0.30111  0.28399  1.0000
  H   H30       1.0  0.35486  0.37216  0.28356  1.0000
  H   H31       1.0  0.36505  0.36254  0.23455  1.0000
  H   H32       1.0  0.35088  0.27436  0.24844  1.0000
  H   H33       1.0  0.34120  0.28401  0.29771  1.0000
  H   H34       1.0  0.42623  0.32254  0.23642  1.0000
  H   H35       1.0  0.29738  0.26229  0.28449  1.0000
  C   C27       1.0  0.40454  0.23537  0.04067  1.0000
  H   H36       1.0  0.33237  0.27659  0.10244  1.0000
  C   C28       1.0  0.39893  0.46202  0.09886  1.0000
  H   H37       1.0  0.46449  0.17481  0.19490  1.0000
  H   H38       1.0  0.01237  0.23573  0.18963  1.0000
  H   H39       1.0  0.33084  0.46047  0.12553  1.0000
  H   H40       1.0  0.45577  0.09750  0.19799  1.0000
  N   N1        1.0  0.25845  0.28558  0.28358  1.0000
  H   H41       1.0  0.34758  0.24497  0.04868  1.0000
  H   H42       1.0  0.99790  0.25208  0.12117  1.0000
  C   C29       1.0  0.17703  0.29211  0.27428  1.0000
  H   H43       1.0  0.25064  0.29778  0.32565  1.0000
  H   H44       1.0  0.26875  0.24340  0.26978  1.0000
  H   H45       1.0  0.47415  0.22511  0.20425  1.0000
  C   C30       1.0  0.27638  0.30066  0.20656  1.0000
  H   H46       1.0  0.45772  0.20816  0.03804  1.0000
  H   H47       1.0  0.27505  0.42207  0.05950  1.0000
  H   H48       1.0  0.22066  0.26800  0.30123  1.0000
  C   C31       1.0  0.40535  0.28771  0.04429  1.0000
  H   H49       1.0  0.32749  0.23917  0.09631  1.0000
  C   C32       1.0  0.02159  0.31323  0.16972  1.0000
  H   H50       1.0  0.46185  0.32722  0.01921  1.0000
  C   C33       1.0  0.03735  0.07105  0.30495  1.0000
  C   C34       1.0  0.40775  0.26156  0.32001  1.0000
  H   H51       1.0  0.43895  0.09476  0.23076  1.0000
  C   C35       1.0  0.47378  0.21803  0.18265  1.0000
  H   H52       1.0  0.17034  0.27981  0.29254  1.0000
  H   H53       1.0  0.04210  0.02661  0.27202  1.0000
  C   C36       1.0  0.34248  0.25555  0.10350  1.0000
  H   H54       1.0  0.02764  0.03302  0.17917  1.0000
  H   H55       1.0  0.49451  0.46820  0.20889  1.0000
  H   H56       1.0  0.40598  0.43221  0.05480  1.0000
  S   S13       1.0  0.48324  0.12478  0.15087  1.0000
  C   C37       1.0  0.43247  0.99888  0.23303  1.0000
  S   S14       1.0  0.34006  0.33689  0.32876  1.0000
  C   C38       1.0  0.00104  0.48464  0.00869  1.0000
  H   H57       1.0  0.04241  0.22444  0.22972  1.0000
  C   C39       1.0  0.36923  0.25508  0.08630  1.0000
  H   H58       1.0  0.46295  0.05098  0.21888  1.0000
  N   N2        1.0  0.38789  0.26222  0.03676  1.0000
  H   H59       1.0  0.24598  0.39985  0.01196  1.0000
  H   H60       1.0  0.03446  0.19391  0.20926  1.0000
  C   C40       1.0  0.20705  0.30299  0.27784  1.0000
  H   H61       1.0  0.22375  0.26237  0.26568  1.0000
  H   H62       1.0  0.41908  0.23755  0.05843  1.0000
  C   C41       1.0  0.45961  0.09556  0.22031  1.0000
  H   H63       1.0  0.43889  0.00190  0.21138  1.0000
  H   H64       1.0  0.45307  0.33277  0.29294  1.0000
  H   H65       1.0  0.38838  0.27448  0.32154  1.0000
  H   H66       1.0  0.41420  0.28533  0.06519  1.0000
  C   C42       1.0  0.46696  0.02454  0.03006  1.0000
  H   H67       1.0  0.23702  0.43249  0.09285  1.0000
  C   C43       1.0  0.99671  0.05541  0.22465  1.0000
  H   H68       1.0  0.38354  0.27116  0.09488  1.0000
  H   H69       1.0  0.37889  0.23403  0.08890  1.0000
  C   C44       1.0  0.01070  0.29816  0.19525  1.0000
  H   H70       1.0  0.03548  0.02892  0.01812  1.0000
  H   H71       1.0  0.39033  0.21749  0.04601  1.0000
  Fe  Fe6       1.0  0.00412  0.09068  0.09925  1.0000
  S   S15       1.0  0.47491  0.09162  0.09208  1.0000
  H   H72       1.0  0.44795  0.27919  0.03024  1.0000
  C   C45       1.0  0.26302  0.33630  0.30445  1.0000
  H   H73       1.0  0.24590  0.46963  0.09134  1.0000
  C   C46       1.0  0.42628  0.46140  0.17065  1.0000
  C   C47       1.0  0.24357  0.44793  0.03795  1.0000
  N   N3        1.0  0.41448  0.47270  0.07406  1.0000
  H   H74       1.0  0.49429  0.46335  0.15008  1.0000
  H   H75       1.0  0.45416  0.25007  0.28583  1.0000
  H   H76       1.0  0.00472  0.07740  0.22596  1.0000
  H   H77       1.0  0.00668  0.32988  0.16319  1.0000
  C   C48       1.0  0.48107  0.00588  0.12634  1.0000
  C   C49       1.0  0.27448  0.49550  0.01037  1.0000
  C   C50       1.0  0.26979  0.24168  0.31349  1.0000
  H   H78       1.0  0.28128  0.40994  0.01639  1.0000
  C   C51       1.0  0.42048  0.49039  0.16960  1.0000
  H   H79       1.0  0.07226  0.03368  0.15371  1.0000
  C   C52       1.0  0.43084  0.29432  0.02574  1.0000
  C   C53       1.0  0.47596  0.06867  0.22646  1.0000
  H   H80       1.0  0.46333  0.23449  0.17020  1.0000
  H   H81       1.0  0.40808  0.47105  0.11782  1.0000
  H   H82       1.0  0.09175  0.03824  0.18512  1.0000
  C   C54       1.0  0.03995  0.10002  0.02476  1.0000
  H   H83       1.0  0.42403  0.48166  0.01699  1.0000
  H   H84       1.0  0.49448  0.25563  0.08231  1.0000
  H   H85       1.0  0.20701  0.31667  0.29626  1.0000
  H   H86       1.0  0.45437  0.18328  0.16019  1.0000
  H   H87       1.0  0.38365  0.45948  0.04417  1.0000
  C   C55       1.0  0.26463  0.30379  0.30839  1.0000
  C   C56       1.0  0.36685  0.46733  0.09917  1.0000
  C   C57       1.0  0.28715  0.21467  0.31378  1.0000
  C   C58       1.0  0.43445  0.33606  0.25323  1.0000
  C   C59       1.0  0.45673  0.44048  0.08485  1.0000
  H   H88       1.0  0.45058  0.22817  0.33525  1.0000
  H   H89       1.0  0.26047  0.37490  0.32813  1.0000
  C   C60       1.0  0.07147  0.04251  0.17477  1.0000
  C   C61       1.0  0.02846  0.06981  0.27492  1.0000
  C   C62       1.0  0.26887  0.30001  0.25795  1.0000
  N   N4        1.0  0.25339  0.44493  0.00875  1.0000
  H   H90       1.0  0.39203  0.30681  0.04580  1.0000
  H   H91       1.0  0.04506  0.08015  0.26257  1.0000
  C   C63       1.0  0.40585  0.45509  0.04968  1.0000
  H   H92       1.0  0.06378  0.03163  0.23149  1.0000
  H   H93       1.0  0.00888  0.08220  0.27292  1.0000
  H   H94       1.0  0.44718  0.32698  0.05313  1.0000
  H   H95       1.0  0.26267  0.31936  0.20403  1.0000
  H   H96       1.0  0.04985  0.06364  0.21945  1.0000
  N   N5        1.0  0.01835  0.03499  0.23525  1.0000
  C   C64       1.0  0.02347  0.03899  0.26549  1.0000
  H   H97       1.0  0.42684  0.34008  0.02469  1.0000
  C   C65       1.0  0.42360  0.45926  0.02335  1.0000
  C   C66       1.0  0.48875  0.44012  0.08540  1.0000
  H   H98       1.0  0.42126  0.99882  0.16349  1.0000
  S   S16       1.0  0.01857  0.06282  0.06368  1.0000
  C   C67       1.0  0.35393  0.45771  0.12623  1.0000
  H   H99       1.0  0.35842  0.43512  0.12997  1.0000
  H   H100      1.0  0.49519  0.26925  0.16494  1.0000
  S   S17       1.0  0.45684  0.04743  0.15742  1.0000
  H   H101      1.0  0.40177  0.43883  0.10109  1.0000
  H   H102      1.0  0.35652  0.23439  0.31044  1.0000
  H   H103      1.0  0.48433  0.20978  0.30024  1.0000
  H   H104      1.0  0.27082  0.44457  0.10450  1.0000
  H   H105      1.0  0.00851  0.31416  0.21167  1.0000
  H   H106      1.0  0.30981  0.21964  0.31234  1.0000
  C   C68       1.0  0.36286  0.26127  0.05575  1.0000
  H   H107      1.0  0.44939  0.00697  0.24656  1.0000
  H   H108      1.0  0.43408  0.19636  0.18849  1.0000
  H   H109      1.0  0.02686  0.28270  0.20150  1.0000
  C   C69       1.0  0.43948  0.29888  0.33562  1.0000
  Fe  Fe7       1.0  0.48333  0.08012  0.13569  1.0000
  H   H110      1.0  0.28348  0.20315  0.33324  1.0000
  C   C70       1.0  0.26635  0.44371  0.06033  1.0000
  H   H111      1.0  0.39613  0.24424  0.27954  1.0000
  H   H112      1.0  0.48971  0.20352  0.08158  1.0000
  H   H113      1.0  0.45775  0.48036  0.06253  1.0000
  H   H114      1.0  0.28105  0.20065  0.29655  1.0000
  H   H115      1.0  0.34778  0.25121  0.12524  1.0000
  H   H116      1.0  0.25769  0.32007  0.25428  1.0000
  H   H117      1.0  0.44920  0.43287  0.10503  1.0000
  H   H118      1.0  0.02086  0.06181  0.31827  1.0000
  H   H119      1.0  0.47787  0.06708  0.24902  1.0000
  H   H120      1.0  0.36175  0.48995  0.09687  1.0000
  H   H121      1.0  0.19258  0.43730  0.01155  1.0000
  H   H122      1.0  0.23349  0.46880  0.04118  1.0000
  H   H123      1.0  0.41323  0.01137  0.23701  1.0000
  C   C71       1.0  0.22764  0.27830  0.28198  1.0000
  C   C72       1.0  0.25414  0.44790  0.08895  1.0000
  C   C73       1.0  0.45565  0.19145  0.18146  1.0000
  H   H124      1.0  0.28081  0.26422  0.23159  1.0000
  H   H125      1.0  0.27529  0.28786  0.18754  1.0000
  H   H126      1.0  0.29129  0.30612  0.26065  1.0000
  H   H127      1.0  0.06848  0.06568  0.17314  1.0000
  H   H128      1.0  0.04215  0.32328  0.17419  1.0000
  H   H129      1.0  0.04062  0.09334  0.31113  1.0000
  H   H130      1.0  0.41970  0.28239  0.26932  1.0000
  H   H131      1.0  0.46728  0.00249  0.03767  1.0000
  C   C74       1.0  0.49136  0.22303  0.31772  1.0000
  H   H132      1.0  0.17532  0.27854  0.25581  1.0000
  H   H133      1.0  0.44550  0.45215  0.02661  1.0000
  C   C75       1.0  0.04722  0.02907  0.19054  1.0000
  H   H134      1.0  0.28193  0.34377  0.29324  1.0000
  C   C76       1.0  0.44108  0.20035  0.02406  1.0000
  C   C77       1.0  0.04554  0.04053  0.22026  1.0000
  C   C78       1.0  0.26688  0.28289  0.23095  1.0000
  H   H135      1.0  0.22683  0.43219  0.04239  1.0000
  H   H136      1.0  0.00592  0.03014  0.27780  1.0000
  H   H137      1.0  0.35650  0.45559  0.08231  1.0000
  H   H138      1.0  0.45127  0.48317  0.09791  1.0000
  H   H139      1.0  0.16249  0.31017  0.27189  1.0000
  C   C79       1.0  0.03992  0.05060  0.01283  1.0000
  C   C80       1.0  0.27444  0.25830  0.28650  1.0000
  N   N6        1.0  0.43233  0.27983  0.31184  1.0000
  Fe  Fe8       1.0  0.47857  0.13645  0.10673  1.0000
  C   C81       1.0  0.26204  0.35187  0.33181  1.0000
  C   C82       1.0  0.42418  0.29663  0.28688  1.0000
  C   C83       1.0  0.45771  0.26231  0.30498  1.0000
  C   C84       1.0  0.40079  0.23666  0.30050  1.0000
  C   C85       1.0  0.44628  0.31817  0.27649  1.0000
  H   H140      1.0  0.44982  0.42530  0.06897  1.0000
  C   C86       1.0  0.44229  0.32395  0.03112  1.0000
  H   H141      1.0  0.41836  0.22147  0.29937  1.0000
  H   H142      1.0  0.42917  0.18327  0.03444  1.0000
  H   H143      1.0  0.27588  0.25443  0.33158  1.0000
  H   H144      1.0  0.28638  0.29999  0.31596  1.0000
  C   C87       1.0  0.46769  0.24199  0.32778  1.0000
  H   H145      1.0  0.05737  0.05961  0.30809  1.0000
  C   C88       1.0  0.42170  0.22447  0.01583  1.0000
  H   H146      1.0  0.02436  0.29803  0.15261  1.0000
  H   H147      1.0  0.29710  0.45621  0.01387  1.0000
  H   H148      1.0  0.48892  0.01459  0.21475  1.0000
  C   C89       1.0  0.44553  0.47061  0.07948  1.0000
  C   C90       1.0  0.45888  0.01330  0.14351  1.0000
  H   H149      1.0  0.99662  0.12977  0.22141  1.0000
  H   H150      1.0  0.47112  0.11442  0.22773  1.0000
  S   S18       1.0  0.01305  0.13523  0.11338  1.0000
  H   H151      1.0  0.24447  0.34289  0.29255  1.0000
  H   H152      1.0  0.00583  0.26055  0.23742  1.0000
  C   C91       1.0  0.00247  0.22619  0.20793  1.0000
  H   H153      1.0  0.01652  0.19920  0.24135  1.0000
  H   H154      1.0  0.05054  0.00594  0.19061  1.0000
  C   C92       1.0  0.00781  0.00543  0.23043  1.0000
  H   H155      1.0  0.00277  0.00220  0.20847  1.0000
  H   H156      1.0  0.41073  0.25281  0.34099  1.0000
  Fe  Fe9       1.0  0.25115  0.40584  0.64972  1.0000
  S   S19       1.0  0.29638  0.39343  0.65404  1.0000
  S   S20       1.0  0.24353  0.45271  0.65437  1.0000
  Fe  Fe10      1.0  0.23178  0.34466  0.64762  1.0000
  S   S21       1.0  0.27549  0.32826  0.65231  1.0000
  S   S22       1.0  0.19340  0.31682  0.64155  1.0000
  H   H157      1.0  0.34681  0.41751  0.61257  1.0000
  Fe  Fe11      1.0  0.28712  0.36125  0.62128  1.0000
  S   S23       1.0  0.31922  0.35140  0.58791  1.0000
  H   H158      1.0  0.24360  0.34505  0.34403  1.0000
  S   S24       1.0  0.24297  0.37611  0.61471  1.0000
  Fe  Fe12      1.0  0.17532  0.08970  0.61542  1.0000
  S   S25       1.0  0.12837  0.08727  0.61430  1.0000
  S   S26       1.0  0.20831  0.05656  0.60806  1.0000
  Fe  Fe13      1.0  0.17571  0.15111  0.63293  1.0000
  S   S27       1.0  0.12877  0.15371  0.63409  1.0000
  H   H159      1.0  0.24086  0.48334  0.54242  1.0000
  Fe  Fe14      1.0  0.13017  0.11105  0.65426  1.0000
  Fe  Fe15      1.0  0.13033  0.12991  0.59406  1.0000
  S   S28       1.0  0.09970  0.14399  0.56097  1.0000
  C   C93       1.0  0.12826  0.05446  0.48781  1.0000
  S   S29       1.0  0.17727  0.13022  0.59172  1.0000
  Fe  Fe16      1.0  0.31679  0.30699  0.42611  1.0000
  S   S30       1.0  0.31757  0.25969  0.42787  1.0000
  S   S31       1.0  0.29782  0.33469  0.45988  1.0000
  Fe  Fe17      1.0  0.33092  0.30710  0.36433  1.0000
  S   S32       1.0  0.33188  0.26007  0.36181  1.0000
  Fe  Fe18      1.0  0.29355  0.26061  0.38847  1.0000
  S   S33       1.0  0.25997  0.22702  0.38467  1.0000
  Fe  Fe19      1.0  0.35594  0.26243  0.40120  1.0000
  S   S34       1.0  0.38927  0.22870  0.40367  1.0000
  S   S35       1.0  0.29018  0.30762  0.38780  1.0000
  S   S36       1.0  0.35757  0.30992  0.40247  1.0000
  H   H160      1.0  0.21402  0.18971  0.37601  1.0000
  H   H161      1.0  0.40969  0.35435  0.37279  1.0000
  Fe  Fe20      1.0  0.08793  0.17119  0.40080  1.0000
  S   S37       1.0  0.09232  0.21810  0.40449  1.0000
  S   S38       1.0  0.11141  0.14296  0.43099  1.0000
  Fe  Fe21      1.0  0.04731  0.21989  0.39118  1.0000
  S   S39       1.0  0.01877  0.25358  0.40836  1.0000
  Fe  Fe22      1.0  0.10253  0.21719  0.35972  1.0000
  H   H162      1.0  0.24510  0.48475  0.57856  1.0000
  S   S40       1.0  0.04176  0.17289  0.39087  1.0000
  S   S41       1.0  0.10097  0.16992  0.35621  1.0000
  C   C94       1.0  0.22590  0.23335  0.37231  1.0000
  C   C95       1.0  0.21701  0.26028  0.36474  1.0000
  H   H163      1.0  0.08360  0.05780  0.52032  1.0000
  C   C96       1.0  0.18946  0.26429  0.35519  1.0000
  C   C97       1.0  0.17936  0.21480  0.36197  1.0000
  C   C98       1.0  0.20713  0.21063  0.37053  1.0000
  C   C99       1.0  0.29236  0.42292  0.51942  1.0000
  H   H164      1.0  0.24389  0.22897  0.66089  1.0000
  C   C100      1.0  0.08030  0.05947  0.56387  1.0000
  H   H165      1.0  0.30287  0.40941  0.53465  1.0000
  C   C101      1.0  0.42537  0.23603  0.40179  1.0000
  C   C102      1.0  0.44385  0.21420  0.39484  1.0000
  C   C103      1.0  0.47291  0.21902  0.39391  1.0000
  C   C104      1.0  0.46364  0.19774  0.46252  1.0000
  C   C105      1.0  0.46517  0.26743  0.40746  1.0000
  C   C106      1.0  0.43606  0.26270  0.40802  1.0000
  H   H166      1.0  0.43563  0.19347  0.39015  1.0000
  C   C107      1.0  0.28717  0.45333  0.53022  1.0000
  C   C108      1.0  0.14879  0.00572  0.66449  1.0000
  H   H167      1.0  0.42194  0.27948  0.41377  1.0000
  C   C109      1.0  0.10416  0.14526  0.52497  1.0000
  C   C110      1.0  0.12920  0.13724  0.51239  1.0000
  C   C111      1.0  0.13123  0.13687  0.48359  1.0000
  C   C112      1.0  0.10866  0.14565  0.46713  1.0000
  C   C113      1.0  0.08411  0.15499  0.47979  1.0000
  C   C114      1.0  0.08178  0.15446  0.50854  1.0000
  H   H168      1.0  0.14684  0.13132  0.52497  1.0000
  H   H169      1.0  0.15042  0.12995  0.47400  1.0000
  H   H170      1.0  0.06656  0.16175  0.46740  1.0000
  H   H171      1.0  0.06240  0.16100  0.51811  1.0000
  C   C115      1.0  0.31265  0.34569  0.55256  1.0000
  C   C116      1.0  0.28673  0.35190  0.54076  1.0000
  C   C117      1.0  0.28245  0.34791  0.51247  1.0000
  C   C118      1.0  0.30397  0.33739  0.49565  1.0000
  C   C119      1.0  0.32990  0.33100  0.50747  1.0000
  C   C120      1.0  0.33422  0.33529  0.53577  1.0000
  H   H172      1.0  0.27032  0.36053  0.55336  1.0000
  H   H173      1.0  0.26247  0.35336  0.50346  1.0000
  H   H174      1.0  0.34680  0.32337  0.49474  1.0000
  H   H175      1.0  0.35446  0.33064  0.54466  1.0000
  C   C121      1.0  0.19758  0.27983  0.64206  1.0000
  C   C122      1.0  0.17597  0.26229  0.63228  1.0000
  C   C123      1.0  0.17893  0.23275  0.63252  1.0000
  C   C124      1.0  0.20346  0.22066  0.64285  1.0000
  H   H176      1.0  0.11312  0.03684  0.48456  1.0000
  C   C125      1.0  0.22203  0.26761  0.65232  1.0000
  H   H177      1.0  0.15666  0.07906  0.46159  1.0000
  H   H178      1.0  0.16223  0.21938  0.62492  1.0000
  C   C126      1.0  0.33476  0.43711  0.60867  1.0000
  H   H179      1.0  0.13310  0.44130  0.66620  1.0000
  C   C127      1.0  0.22208  0.47484  0.63454  1.0000
  C   C128      1.0  0.09558  0.04968  0.53810  1.0000
  H   H180      1.0  0.47684  0.16626  0.49099  1.0000
  C   C129      1.0  0.20090  0.02111  0.60036  1.0000
  H   H181      1.0  0.47962  0.20088  0.50399  1.0000
  H   H182      1.0  0.20317  0.44201  0.61028  1.0000
  C   C130      1.0  0.17045  0.24162  0.35424  1.0000
  C   C131      1.0  0.21240  0.40228  0.54899  1.0000
  H   H183      1.0  0.15607  0.02575  0.59836  1.0000
  H   H184      1.0  0.26467  0.41168  0.56339  1.0000
  H   H185      1.0  0.32733  0.28994  0.62617  1.0000
  H   H186      1.0  0.21177  0.44705  0.55397  1.0000
  C   C132      1.0  0.17099  0.06745  0.51382  1.0000
  C   C133      1.0  0.14682  0.20851  0.52367  1.0000
  N   N7        1.0  0.17926  0.23354  0.45422  1.0000
  C   C134      1.0  0.20119  0.25339  0.46560  1.0000
  C   C135      1.0  0.15796  0.22747  0.47631  1.0000
  C   C136      1.0  0.19379  0.20697  0.44499  1.0000
  C   C137      1.0  0.16437  0.24641  0.43008  1.0000
  C   C138      1.0  0.14859  0.27432  0.43600  1.0000
  C   C139      1.0  0.22065  0.26754  0.44415  1.0000
  C   C140      1.0  0.17444  0.18307  0.43428  1.0000
  C   C141      1.0  0.16849  0.20938  0.50064  1.0000
  H   H187      1.0  0.42900  0.20822  0.48984  1.0000
  C   C142      1.0  0.13837  0.28805  0.40958  1.0000
  C   C143      1.0  0.24509  0.28283  0.45779  1.0000
  C   C144      1.0  0.19075  0.15574  0.43015  1.0000
  H   H188      1.0  0.21498  0.24210  0.48029  1.0000
  H   H189      1.0  0.19140  0.27056  0.47781  1.0000
  H   H190      1.0  0.15000  0.24756  0.48511  1.0000
  H   H191      1.0  0.13899  0.21698  0.46759  1.0000
  H   H192      1.0  0.20705  0.19833  0.46173  1.0000
  H   H193      1.0  0.20871  0.21153  0.42813  1.0000
  H   H194      1.0  0.17917  0.24972  0.41282  1.0000
  H   H195      1.0  0.14841  0.23162  0.42182  1.0000
  H   H196      1.0  0.16204  0.28984  0.44677  1.0000
  H   H197      1.0  0.12987  0.27008  0.44889  1.0000
  H   H198      1.0  0.22970  0.25188  0.42997  1.0000
  H   H199      1.0  0.20896  0.28324  0.43182  1.0000
  H   H200      1.0  0.16503  0.18886  0.41431  1.0000
  H   H201      1.0  0.15724  0.17861  0.44874  1.0000
  H   H202      1.0  0.17232  0.18735  0.49400  1.0000
  H   H203      1.0  0.18822  0.21797  0.50929  1.0000
  H   H204      1.0  0.30756  0.46485  0.52978  1.0000
  S   S42       1.0  0.17698  0.11048  0.65660  1.0000
  H   H205      1.0  0.13581  0.05473  0.55765  1.0000
  H   H206      1.0  0.12652  0.30752  0.41445  1.0000
  H   H207      1.0  0.15637  0.29379  0.39630  1.0000
  H   H208      1.0  0.12422  0.27357  0.39820  1.0000
  H   H209      1.0  0.25888  0.26759  0.46845  1.0000
  H   H210      1.0  0.25769  0.29348  0.44175  1.0000
  H   H211      1.0  0.23755  0.29901  0.47246  1.0000
  H   H212      1.0  0.19898  0.14794  0.45000  1.0000
  H   H213      1.0  0.17657  0.13941  0.42144  1.0000
  H   H214      1.0  0.20847  0.15901  0.41575  1.0000
  N   N8        1.0  0.26043  0.25314  0.56343  1.0000
  C   C145      1.0  0.24770  0.28144  0.55692  1.0000
  C   C146      1.0  0.28007  0.24404  0.54064  1.0000
  C   C147      1.0  0.23685  0.23186  0.56504  1.0000
  C   C148      1.0  0.27525  0.25316  0.59070  1.0000
  C   C149      1.0  0.29842  0.27556  0.59477  1.0000
  C   C150      1.0  0.22607  0.29306  0.57772  1.0000
  C   C151      1.0  0.24581  0.20073  0.56927  1.0000
  C   C152      1.0  0.29531  0.26745  0.52409  1.0000
  C   C153      1.0  0.31667  0.25485  0.50427  1.0000
  C   C154      1.0  0.31254  0.27214  0.62267  1.0000
  C   C155      1.0  0.21394  0.32103  0.56787  1.0000
  C   C156      1.0  0.22094  0.18087  0.56530  1.0000
  H   H215      1.0  0.23722  0.28048  0.53653  1.0000
  H   H216      1.0  0.26416  0.29791  0.55510  1.0000
  H   H217      1.0  0.29637  0.22944  0.54870  1.0000
  H   H218      1.0  0.26845  0.23174  0.52478  1.0000
  H   H219      1.0  0.22364  0.23308  0.54625  1.0000
  H   H220      1.0  0.22270  0.23645  0.58258  1.0000
  H   H221      1.0  0.25987  0.25572  0.60764  1.0000
  H   H222      1.0  0.28531  0.23239  0.59440  1.0000
  H   H223      1.0  0.28952  0.29708  0.59376  1.0000
  H   H224      1.0  0.31514  0.27324  0.57929  1.0000
  H   H225      1.0  0.20800  0.27864  0.58040  1.0000
  H   H226      1.0  0.23617  0.29671  0.59790  1.0000
  H   H227      1.0  0.25367  0.19764  0.59048  1.0000
  H   H228      1.0  0.26243  0.19406  0.55484  1.0000
  H   H229      1.0  0.28001  0.27961  0.51175  1.0000
  H   H230      1.0  0.30646  0.28250  0.53747  1.0000
  H   H231      1.0  0.30636  0.23978  0.49002  1.0000
  H   H232      1.0  0.32637  0.27191  0.49191  1.0000
  H   H233      1.0  0.33357  0.24389  0.51567  1.0000
  H   H234      1.0  0.28538  0.46340  0.60037  1.0000
  H   H235      1.0  0.14867  0.49670  0.64793  1.0000
  H   H236      1.0  0.24461  0.00985  0.60049  1.0000
  H   H237      1.0  0.19799  0.32863  0.58266  1.0000
  H   H238      1.0  0.23065  0.33716  0.56643  1.0000
  H   H239      1.0  0.20371  0.31851  0.54759  1.0000
  H   H240      1.0  0.20379  0.18639  0.57973  1.0000
  H   H241      1.0  0.21295  0.18194  0.54397  1.0000
  H   H242      1.0  0.22770  0.15892  0.56947  1.0000
  H   H243      1.0  0.22805  0.08388  0.55596  1.0000
  H   H244      1.0  0.11496  0.03868  0.43370  1.0000
  H   H245      1.0  0.14424  0.22972  0.53295  1.0000
  H   H246      1.0  0.23160  0.43514  0.52508  1.0000
  C   C157      1.0  0.18921  0.06643  0.54002  1.0000
  H   H247      1.0  0.31050  0.47585  0.57613  1.0000
  H   H248      1.0  0.08098  0.08281  0.56562  1.0000
  H   H249      1.0  0.31305  0.40109  0.48607  1.0000
  N   N9        1.0  0.27371  0.45624  0.55815  1.0000
  S   S43       1.0  0.05773  0.22278  0.34657  1.0000
  C   C158      1.0  0.48382  0.18779  0.48547  1.0000
  H   H250      1.0  0.42841  0.32448  0.38612  1.0000
  H   H251      1.0  0.19034  0.01631  0.49642  1.0000
  N   N10       1.0  0.14442  0.05011  0.51417  1.0000
  H   H252      1.0  0.16016  0.00120  0.47924  1.0000
  C   C159      1.0  0.43305  0.19504  0.47147  1.0000
  H   H253      1.0  0.05798  0.05279  0.56293  1.0000
  H   H254      1.0  0.42771  0.17274  0.47602  1.0000
  H   H255      1.0  0.48697  0.20214  0.38835  1.0000
  H   H256      1.0  0.16111  0.04177  0.45800  1.0000
  C   C160      1.0  0.31042  0.42304  0.49361  1.0000
  S   S44       1.0  0.20833  0.18391  0.64433  1.0000
  H   H257      1.0  0.20935  0.10723  0.53347  1.0000
  H   H258      1.0  0.41911  0.20240  0.45472  1.0000
  H   H259      1.0  0.33154  0.43185  0.49807  1.0000
  C   C161      1.0  0.12619  0.05908  0.43602  1.0000
  H   H260      1.0  0.12544  0.08402  0.53754  1.0000
  H   H261      1.0  0.17457  0.47517  0.58245  1.0000
  H   H262      1.0  0.08989  0.04994  0.58237  1.0000
  H   H263      1.0  0.34979  0.45424  0.60359  1.0000
  C   C162      1.0  0.25691  0.48322  0.55896  1.0000
  H   H264      1.0  0.14263  0.39286  0.65055  1.0000
  H   H265      1.0  0.15374  0.19369  0.53990  1.0000
  H   H266      1.0  0.19317  0.40230  0.53616  1.0000
  C   C163      1.0  0.20430  0.46441  0.61413  1.0000
  H   H267      1.0  0.17414  0.40730  0.63524  1.0000
  H   H268      1.0  0.32739  0.42802  0.56669  1.0000
  H   H269      1.0  0.32330  0.44284  0.62766  1.0000
  H   H270      1.0  0.19629  0.04461  0.54422  1.0000
  H   H271      1.0  0.13884  0.06288  0.41730  1.0000
  H   H272      1.0  0.16493  0.19718  0.36099  1.0000
  H   H273      1.0  0.17616  0.37715  0.65741  1.0000
  C   C164      1.0  0.21534  0.08492  0.53693  1.0000
  H   H274      1.0  0.29678  0.27206  0.63940  1.0000
  C   C165      1.0  0.17347  0.01129  0.59679  1.0000
  C   C166      1.0  0.18808  0.48319  0.59849  1.0000
  C   C167      1.0  0.12641  0.06056  0.53760  1.0000
  H   H275      1.0  0.22849  0.07744  0.51965  1.0000
  C   C168      1.0  0.22493  0.23819  0.65270  1.0000
  C   C169      1.0  0.16522  0.39745  0.65391  1.0000
  H   H276      1.0  0.24714  0.43374  0.58651  1.0000
  H   H277      1.0  0.20617  0.39793  0.57046  1.0000
  H   H278      1.0  0.30029  0.43558  0.47719  1.0000
  H   H279      1.0  0.16624  0.01903  0.65679  1.0000
  H   H280      1.0  0.11536  0.07402  0.48925  1.0000
  C   C170      1.0  0.31435  0.43217  0.58498  1.0000
  H   H281      1.0  0.13055  0.00683  0.51856  1.0000
  H   H282      1.0  0.09458  0.02637  0.53773  1.0000
  H   H283      1.0  0.12620  0.20119  0.51577  1.0000
  C   C171      1.0  0.15027  0.01930  0.51926  1.0000
  H   H284      1.0  0.17748  0.07440  0.55798  1.0000
  H   H285      1.0  0.22640  0.38529  0.54150  1.0000
  C   C172      1.0  0.25394  0.43231  0.56475  1.0000
  H   H286      1.0  0.46719  0.22019  0.45726  1.0000
  H   H287      1.0  0.00485  0.26204  0.48177  1.0000
  H   H288      1.0  0.47341  0.28807  0.41249  1.0000
  H   H289      1.0  0.15692  0.27160  0.62441  1.0000
  C   C173      1.0  0.29564  0.45831  0.58041  1.0000
  H   H290      1.0  0.18487  0.06133  0.49665  1.0000
  H   H291      1.0  0.23858  0.28079  0.66040  1.0000
  H   H292      1.0  0.23126  0.27794  0.36648  1.0000
  C   C174      1.0  0.48363  0.24565  0.40031  1.0000
  H   H293      1.0  0.16579  0.08986  0.50984  1.0000
  H   H294      1.0  0.46623  0.18472  0.44383  1.0000
  C   C175      1.0  0.14540  0.05853  0.46107  1.0000
  H   H295      1.0  0.28149  0.34801  0.34364  1.0000
  C   C176      1.0  0.12539  0.02579  0.67310  1.0000
  H   H296      1.0  0.30167  0.41326  0.59000  1.0000
  H   H297      1.0  0.32453  0.25214  0.62345  1.0000
  H   H298      1.0  0.27222  0.41254  0.51405  1.0000
  C   C177      1.0  0.22696  0.43091  0.54693  1.0000
  H   H299      1.0  0.16604  0.45547  0.65736  1.0000
  H   H300      1.0  0.27412  0.46373  0.51425  1.0000
  H   H301      1.0  0.11064  0.07640  0.43787  1.0000
  H   H302      1.0  0.99785  0.23489  0.50669  1.0000
  H   H303      1.0  0.49158  0.13705  0.45974  1.0000
  H   H304      1.0  0.11886  0.03877  0.65533  1.0000
  C   C178      1.0  0.42605  0.33846  0.36805  1.0000
  H   H305      1.0  0.18259  0.28510  0.34923  1.0000
  H   H306      1.0  0.39671  0.31146  0.34768  1.0000
  H   H307      1.0  0.44268  0.28616  0.35446  1.0000
  Fe  Fe23      1.0  0.05503  0.17556  0.34638  1.0000
  C   C179      1.0  0.22332  0.00224  0.59825  1.0000
  H   H308      1.0  0.08071  0.17995  0.66277  1.0000
  S   S45       1.0  0.13570  0.24725  0.34349  1.0000
  H   H309      1.0  0.15843  0.01627  0.54039  1.0000
  C   C180      1.0  0.17058  0.00439  0.49931  1.0000
  H   H310      1.0  0.44617  0.34960  0.36420  1.0000
  H   H311      1.0  0.47599  0.25433  0.34528  1.0000
  C   C181      1.0  0.41718  0.32143  0.34292  1.0000
  C   C182      1.0  0.15451  0.44527  0.67445  1.0000
  H   H312      1.0  0.99597  0.13486  0.36692  1.0000
  S   S46       1.0  0.30269  0.35275  0.72504  1.0000
  H   H313      1.0  0.33068  0.42855  0.99375  1.0000
  Fe  Fe24      1.0  0.32054  0.44054  0.86962  1.0000
  H   H314      1.0  0.19003  0.43751  0.94882  1.0000
  S   S47       1.0  0.30707  0.43967  0.82476  1.0000
  Fe  Fe25      1.0  0.33919  0.42417  0.92779  1.0000
  S   S48       1.0  0.33851  0.46862  0.94341  1.0000
  S   S49       1.0  0.35490  0.38882  0.95537  1.0000
  Fe  Fe26      1.0  0.29793  0.47188  0.92019  1.0000
  C   C183      1.0  0.26922  0.40646  0.97427  1.0000
  Fe  Fe27      1.0  0.35942  0.47914  0.90361  1.0000
  H   H315      1.0  0.39370  0.26378  0.99256  1.0000
  S   S50       1.0  0.29660  0.42646  0.90715  1.0000
  S   S51       1.0  0.36305  0.43459  0.88896  1.0000
  Fe  Fe28      1.0  0.09303  0.06948  0.84798  1.0000
  S   S52       1.0  0.07660  0.02605  0.83977  1.0000
  S   S53       1.0  0.11913  0.09387  0.81665  1.0000
  Fe  Fe29      1.0  0.07575  0.06609  0.90958  1.0000
  S   S54       1.0  0.05956  0.02176  0.90523  1.0000
  S   S55       1.0  0.07197  0.09396  0.94759  1.0000
  Fe  Fe30      1.0  0.09823  0.01454  0.87919  1.0000
  C   C184      1.0  0.48367  0.00891  0.98321  1.0000
  Fe  Fe31      1.0  0.03984  0.03762  0.86634  1.0000
  H   H316      1.0  0.11050  0.15771  0.69933  1.0000
  S   S56       1.0  0.11589  0.05766  0.88661  1.0000
  S   S57       1.0  0.05467  0.08234  0.87156  1.0000
  C   C185      1.0  0.05759  0.08481  0.97995  1.0000
  H   H317      1.0  0.45133  0.19142  0.00560  1.0000
  H   H318      1.0  0.34017  0.27267  0.96375  1.0000
  H   H319      1.0  0.05600  0.04017  0.97260  1.0000
  H   H320      1.0  0.32124  0.01740  0.78694  1.0000
  C   C186      1.0  0.35618  0.39165  0.99156  1.0000
  C   C187      1.0  0.46068  0.47009  0.87814  1.0000
  S   S58       1.0  0.31892  0.48609  0.88201  1.0000
  H   H321      1.0  0.18845  0.45915  0.74849  1.0000
  H   H322      1.0  0.28387  0.37050  0.95090  1.0000
  C   C188      1.0  0.15247  0.45984  0.81997  1.0000
  C   C189      1.0  0.22195  0.46995  0.90871  1.0000
  H   H323      1.0  0.46753  0.44838  0.87800  1.0000
  N   N11       1.0  0.48243  0.01045  0.95234  1.0000
  H   H324      1.0  0.38563  0.01183  0.92737  1.0000
  H   H325      1.0  0.23681  0.45285  0.90734  1.0000
  H   H326      1.0  0.39008  0.44911  0.99448  1.0000
  H   H327      1.0  0.41993  0.46039  0.89487  1.0000
  H   H328      1.0  0.09413  0.45745  0.71398  1.0000
  C   C190      1.0  0.43368  0.47683  0.88747  1.0000
  H   H329      1.0  0.28684  0.41937  0.96641  1.0000
  C   C191      1.0  0.00674  0.12640  0.92546  1.0000
  C   C192      1.0  0.41271  0.43623  0.81960  1.0000
  H   H330      1.0  0.41146  0.41936  0.00453  1.0000
  H   H331      1.0  0.17877  0.23389  0.72312  1.0000
  H   H332      1.0  0.35709  0.43661  0.78258  1.0000
  H   H333      1.0  0.11039  0.47683  0.95006  1.0000
  H   H334      1.0  0.45543  0.45666  0.77581  1.0000
  H   H335      1.0  0.15334  0.48722  0.78496  1.0000
  H   H336      1.0  0.06123  0.15865  0.68656  1.0000
  C   C193      1.0  0.10679  0.09404  0.72324  1.0000
  C   C194      1.0  0.13211  0.10300  0.73482  1.0000
  C   C195      1.0  0.13585  0.10216  0.76344  1.0000
  C   C196      1.0  0.11444  0.09211  0.78070  1.0000
  C   C197      1.0  0.08957  0.08212  0.76902  1.0000
  C   C198      1.0  0.08573  0.08327  0.74044  1.0000
  H   H337      1.0  0.14864  0.11080  0.72174  1.0000
  H   H338      1.0  0.15523  0.10976  0.77233  1.0000
  H   H339      1.0  0.07294  0.07434  0.78207  1.0000
  H   H340      1.0  0.06608  0.07620  0.73167  1.0000
  C   C199      1.0  0.30317  0.37676  0.75295  1.0000
  C   C200      1.0  0.31585  0.36879  0.77779  1.0000
  C   C201      1.0  0.31683  0.38747  0.80029  1.0000
  C   C202      1.0  0.30529  0.41441  0.79801  1.0000
  C   C203      1.0  0.29279  0.42242  0.77314  1.0000
  C   C204      1.0  0.29154  0.40368  0.75078  1.0000
  H   H341      1.0  0.32492  0.34802  0.77962  1.0000
  H   H342      1.0  0.32665  0.38109  0.81923  1.0000
  H   H343      1.0  0.28419  0.44335  0.77110  1.0000
  H   H344      1.0  0.28190  0.41015  0.73176  1.0000
  N   N12       1.0  0.14426  0.20460  0.71739  1.0000
  C   C205      1.0  0.16289  0.18057  0.70865  1.0000
  C   C206      1.0  0.11766  0.20376  0.70059  1.0000
  H   H345      1.0  0.13158  0.46669  0.82731  1.0000
  C   C207      1.0  0.13778  0.20434  0.74774  1.0000
  C   C208      1.0  0.13628  0.17514  0.76206  1.0000
  C   C209      1.0  0.19326  0.18149  0.72013  1.0000
  C   C210      1.0  0.49071  0.04568  0.91278  1.0000
  C   C211      1.0  0.47899  0.49140  0.86939  1.0000
  H   H346      1.0  0.43413  0.03395  0.84736  1.0000
  C   C212      1.0  0.12482  0.17769  0.79115  1.0000
  C   C213      1.0  0.20761  0.15284  0.71801  1.0000
  H   H347      1.0  0.06007  0.19654  0.68931  1.0000
  H   H348      1.0  0.19580  0.47701  0.68813  1.0000
  H   H349      1.0  0.15349  0.15996  0.71401  1.0000
  C   C214      1.0  0.10883  0.44000  0.71850  1.0000
  H   H350      1.0  0.07603  0.41768  0.74049  1.0000
  S   S59       1.0  0.10013  0.09656  0.68761  1.0000
  C   C215      1.0  0.05151  0.05690  0.98698  1.0000
  H   H351      1.0  0.15380  0.21662  0.75939  1.0000
  H   H352      1.0  0.11761  0.21540  0.75170  1.0000
  H   H353      1.0  0.15745  0.16565  0.76356  1.0000
  H   H354      1.0  0.12282  0.16006  0.75090  1.0000
  H   H355      1.0  0.38559  0.40493  0.79968  1.0000
  H   H356      1.0  0.19366  0.18828  0.74185  1.0000
  H   H357      1.0  0.24348  0.01625  0.79270  1.0000
  H   H358      1.0  0.20890  0.14611  0.69628  1.0000
  C   C216      1.0  0.13600  0.49013  0.69088  1.0000
  H   H359      1.0  0.09011  0.17634  0.72481  1.0000
  C   C217      1.0  0.22978  0.49539  0.92092  1.0000
  H   H360      1.0  0.47700  0.03189  0.90035  1.0000
  C   C218      1.0  0.18236  0.47503  0.70667  1.0000
  H   H361      1.0  0.13812  0.19203  0.80363  1.0000
  H   H362      1.0  0.10294  0.18564  0.79084  1.0000
  H   H363      1.0  0.12470  0.15661  0.80103  1.0000
  H   H364      1.0  0.16671  0.23140  0.68886  1.0000
  H   H365      1.0  0.18702  0.47489  0.79606  1.0000
  H   H366      1.0  0.20769  0.41197  0.98839  1.0000
  H   H367      1.0  0.16556  0.00186  0.70525  1.0000
  H   H368      1.0  0.15891  0.01925  0.90511  1.0000
  H   H369      1.0  0.99603  0.03752  0.97445  1.0000
  H   H370      1.0  0.16703  0.05686  0.72919  1.0000
  H   H371      1.0  0.00064  0.14719  0.91698  1.0000
  C   C219      1.0  0.35798  0.28988  0.00144  1.0000
  H   H372      1.0  0.13105  0.25923  0.73434  1.0000
  C   C220      1.0  0.17470  0.48793  0.90145  1.0000
  H   H373      1.0  0.43474  0.24118  0.00649  1.0000
  Fe  Fe32      1.0  0.28075  0.36195  0.68458  1.0000
  H   H374      1.0  0.19993  0.43497  0.72270  1.0000
  H   H375      1.0  0.16464  0.17998  0.68590  1.0000
  S   S60       1.0  0.13994  0.48121  0.89132  1.0000
  H   H376      1.0  0.42563  0.29332  0.00370  1.0000
  H   H377      1.0  0.00533  0.08078  0.95589  1.0000
  H   H378      1.0  0.26829  0.48542  0.82369  1.0000
  C   C221      1.0  0.22980  0.45309  0.98977  1.0000
  H   H379      1.0  0.37101  0.29456  0.95886  1.0000
  C   C222      1.0  0.36300  0.44089  0.73942  1.0000
  H   H380      1.0  0.46699  0.05345  0.94973  1.0000
  C   C223      1.0  0.07374  0.17832  0.68438  1.0000
  C   C224      1.0  0.48552  0.04085  0.94373  1.0000
  C   C225      1.0  0.09780  0.42520  0.74414  1.0000
  H   H381      1.0  0.28895  0.00625  0.98586  1.0000
  H   H382      1.0  0.12181  0.47878  0.98520  1.0000
  H   H383      1.0  0.41928  0.44100  0.84102  1.0000
  H   H384      1.0  0.40295  0.39537  0.85952  1.0000
  C   C226      1.0  0.36672  0.45204  0.76857  1.0000
  C   C227      1.0  0.27808  0.37559  0.97237  1.0000
  C   C228      1.0  0.15943  0.23173  0.71052  1.0000
  C   C229      1.0  0.48088  0.49172  0.78866  1.0000
  H   H385      1.0  0.43554  0.48918  0.82706  1.0000
  C   C230      1.0  0.14249  0.25930  0.71458  1.0000
  H   H386      1.0  0.19598  0.13672  0.72998  1.0000
  S   S61       1.0  0.23596  0.37590  0.68216  1.0000
  H   H387      1.0  0.16114  0.40525  0.69683  1.0000
  H   H388      1.0  0.44017  0.01555  0.99602  1.0000
  H   H389      1.0  0.17357  0.28614  0.69468  1.0000
  H   H390      1.0  0.15132  0.43304  0.73090  1.0000
  H   H391      1.0  0.24064  0.46653  0.71235  1.0000
  H   H392      1.0  0.19213  0.42023  0.68105  1.0000
  H   H393      1.0  0.11101  0.40670  0.74926  1.0000
  H   H394      1.0  0.12710  0.26181  0.69768  1.0000
  H   H395      1.0  0.09753  0.43995  0.76183  1.0000
  H   H396      1.0  0.35290  0.01670  0.80694  1.0000
  H   H397      1.0  0.16182  0.43139  0.97241  1.0000
  C   C231      1.0  0.38272  0.47821  0.82040  1.0000
  H   H398      1.0  0.22927  0.15442  0.72621  1.0000
  H   H399      1.0  0.16560  0.45421  0.83794  1.0000
  C   C232      1.0  0.38948  0.41340  0.82053  1.0000
  C   C233      1.0  0.10885  0.48924  0.96932  1.0000
  H   H400      1.0  0.14966  0.44072  0.80712  1.0000
  H   H401      1.0  0.35382  0.02906  0.77192  1.0000
  H   H402      1.0  0.26027  0.47529  0.85838  1.0000
  C   C234      1.0  0.41171  0.44217  0.99947  1.0000
  C   C235      1.0  0.45902  0.46895  0.79482  1.0000
  C   C236      1.0  0.43138  0.48199  0.80573  1.0000
  C   C237      1.0  0.19881  0.45753  0.72823  1.0000
  H   H403      1.0  0.38116  0.37264  0.83891  1.0000
  H   H404      1.0  0.34032  0.43844  0.73481  1.0000
  H   H405      1.0  0.42568  0.02911  0.95540  1.0000
  C   C238      1.0  0.22659  0.49708  0.83763  1.0000
  C   C239      1.0  0.44187  0.01286  0.85091  1.0000
  H   H406      1.0  0.17669  0.28462  0.73153  1.0000
  H   H407      1.0  0.29371  0.00932  0.94939  1.0000
  H   H408      1.0  0.29667  0.37156  0.98550  1.0000
  H   H409      1.0  0.33789  0.31049  0.96703  1.0000
  C   C240      1.0  0.09885  0.17731  0.70382  1.0000
  H   H410      1.0  0.20601  0.19679  0.70816  1.0000
  H   H411      1.0  0.13276  0.04025  0.68952  1.0000
  H   H412      1.0  0.23968  0.45547  0.74749  1.0000
  H   H413      1.0  0.42497  0.44524  0.98102  1.0000
  H   H414      1.0  0.49072  0.07915  0.88264  1.0000
  H   H415      1.0  0.99908  0.06804  0.92278  1.0000
  H   H416      1.0  0.18130  0.49667  0.71547  1.0000
  H   H417      1.0  0.99592  0.47573  0.96592  1.0000
  C   C241      1.0  0.25768  0.49213  0.84282  1.0000
  H   H418      1.0  0.43088  0.42561  0.80984  1.0000
  C   C242      1.0  0.18181  0.44304  0.96936  1.0000
  H   H419      1.0  0.10678  0.01392  0.68050  1.0000
  H   H420      1.0  0.37222  0.45574  0.72432  1.0000
  H   H421      1.0  0.18824  0.44617  0.89036  1.0000
  H   H422      1.0  0.20992  0.02450  0.91311  1.0000
  H   H423      1.0  0.36279  0.46619  0.81973  1.0000
  C   C243      1.0  0.16165  0.28518  0.71416  1.0000
  C   C244      1.0  0.37660  0.26395  0.00789  1.0000
  H   H424      1.0  0.41045  0.43936  0.76740  1.0000
  H   H425      1.0  0.49454  0.48844  0.93041  1.0000
  C   C245      1.0  0.22419  0.00302  0.79447  1.0000
  H   H426      1.0  0.12285  0.20608  0.67842  1.0000
  H   H427      1.0  0.19492  0.04761  0.70615  1.0000
  C   C246      1.0  0.34171  0.41283  0.00543  1.0000
  H   H428      1.0  0.46813  0.45478  0.81058  1.0000
  C   C247      1.0  0.22879  0.46835  0.73181  1.0000
  H   H429      1.0  0.10386  0.22179  0.70585  1.0000
  H   H430      1.0  0.11480  0.48360  0.68376  1.0000
  C   C248      1.0  0.20296  0.43461  0.99139  1.0000
  H   H431      1.0  0.43288  0.02966  0.91949  1.0000
  C   C249      1.0  0.35141  0.29186  0.97088  1.0000
  H   H432      1.0  0.40447  0.47561  0.76198  1.0000
  C   C250      1.0  0.17311  0.00327  0.89776  1.0000
  H   H433      1.0  0.20021  0.07549  0.73069  1.0000
  H   H434      1.0  0.18881  0.01318  0.74520  1.0000
  H   H435      1.0  0.13824  0.46647  0.74046  1.0000
  H   H436      1.0  0.22893  0.49065  0.73864  1.0000
  H   H437      1.0  0.36964  0.42170  0.82901  1.0000
  H   H438      1.0  0.23714  0.45353  0.96815  1.0000
  C   C251      1.0  0.46104  0.02536  0.99928  1.0000
  H   H439      1.0  0.08655  0.48942  0.97591  1.0000
  H   H440      1.0  0.22291  0.47502  0.99397  1.0000
  C   C252      1.0  0.39839  0.38844  0.83825  1.0000
  N   N13       1.0  0.19882  0.02129  0.79969  1.0000
  C   C253      1.0  0.19823  0.04383  0.77786  1.0000
  C   C254      1.0  0.20291  0.03519  0.82725  1.0000
  H   H441      1.0  0.25089  0.40922  0.96055  1.0000
  C   C255      1.0  0.34417  0.01352  0.78607  1.0000
  C   C256      1.0  0.14500  0.01607  0.78976  1.0000
  C   C257      1.0  0.20077  0.03302  0.74798  1.0000
  H   H442      1.0  0.99993  0.02246  0.92292  1.0000
  C   C258      1.0  0.17990  0.05618  0.83626  1.0000
  C   C259      1.0  0.18889  0.07306  0.86145  1.0000
  H   H443      1.0  0.05639  0.12795  0.99375  1.0000
  C   C260      1.0  0.19010  0.05464  0.72732  1.0000
  C   C261      1.0  0.27816  0.46389  0.00304  1.0000
  H   H444      1.0  0.21570  0.05915  0.78113  1.0000
  H   H445      1.0  0.17895  0.05677  0.77928  1.0000
  H   H446      1.0  0.20388  0.01917  0.84382  1.0000
  H   H447      1.0  0.22349  0.04640  0.82780  1.0000
  C   C262      1.0  0.37124  0.37168  0.00682  1.0000
  N   N14       1.0  0.40566  0.46326  0.80486  1.0000
  H   H448      1.0  0.37304  0.41991  0.73723  1.0000
  H   H449      1.0  0.17182  0.08775  0.86733  1.0000
  H   H450      1.0  0.14634  0.02251  0.76799  1.0000
  H   H451      1.0  0.13940  0.03486  0.80200  1.0000
  H   H452      1.0  0.22314  0.02872  0.74317  1.0000
  H   H453      1.0  0.21679  0.47630  0.83337  1.0000
  C   C263      1.0  0.39815  0.45759  0.77523  1.0000
  H   H454      1.0  0.28366  0.46317  0.98092  1.0000
  H   H455      1.0  0.17517  0.07179  0.82018  1.0000
  H   H456      1.0  0.16046  0.04450  0.84164  1.0000
  H   H457      1.0  0.19304  0.05893  0.87899  1.0000
  H   H458      1.0  0.20800  0.08568  0.85701  1.0000
  H   H459      1.0  0.41733  0.37821  0.82958  1.0000
  H   H460      1.0  0.26065  0.36148  0.97871  1.0000
  C   C264      1.0  0.19442  0.46620  0.89915  1.0000
  H   H461      1.0  0.38306  0.35568  0.99614  1.0000
  H   H462      1.0  0.35441  0.47175  0.77031  1.0000
  C   C265      1.0  0.16656  0.48307  0.80324  1.0000
  C   C266      1.0  0.16927  0.41669  0.67875  1.0000
  H   H463      1.0  0.17738  0.46600  0.97010  1.0000
  C   C267      1.0  0.13907  0.45117  0.72315  1.0000
  H   H464      1.0  0.10110  0.00500  0.78508  1.0000
  C   C268      1.0  0.17289  0.00277  0.79970  1.0000
  H   H465      1.0  0.46287  0.08162  0.90746  1.0000
  H   H466      1.0  0.21195  0.99851  0.68750  1.0000
  H   H467      1.0  0.46033  0.04786  0.99330  1.0000
  C   C269      1.0  0.48531  0.07623  0.90457  1.0000
  H   H468      1.0  0.38803  0.47933  0.84262  1.0000
  C   C270      1.0  0.20205  0.00610  0.90245  1.0000
  H   H469      1.0  0.49037  0.47154  0.96316  1.0000
  H   H470      1.0  0.01800  0.12994  0.94510  1.0000
  H   H471      1.0  0.10814  0.42455  0.70145  1.0000
  S   S62       1.0  0.01622  0.48166  0.84868  1.0000
  H   H472      1.0  0.14889  0.30462  0.71590  1.0000
  H   H473      1.0  0.36395  0.24473  0.00322  1.0000
  H   H474      1.0  0.36854  0.30972  0.00740  1.0000
  C   C271      1.0  0.26219  0.41475  0.00420  1.0000
  H   H475      1.0  0.02118  0.11606  0.91079  1.0000
  H   H476      1.0  0.48547  0.02505  0.84736  1.0000
  N   N15       1.0  0.15327  0.46476  0.69885  1.0000
  C   C272      1.0  0.05176  0.10629  0.99899  1.0000
  C   C273      1.0  0.47094  0.00789  0.85096  1.0000
  H   H477      1.0  0.40721  0.21622  0.99986  1.0000
  C   C274      1.0  0.42988  0.01561  0.93742  1.0000
  H   H478      1.0  0.02422  0.48335  0.00706  1.0000
  S   S63       1.0  0.30022  0.82904  0.28419  1.0000
  S   S64       1.0  0.02082  0.65265  0.30013  1.0000
  H   H479      1.0  0.34676  0.95402  0.20491  1.0000
  H   H480      1.0  0.99635  0.62726  0.20579  1.0000
  H   H481      1.0  0.42108  0.51136  0.05143  1.0000
  C   C275      1.0  0.34409  0.91547  0.01022  1.0000
  C   C276      1.0  0.00734  0.63964  0.24708  1.0000
  S   S65       1.0  0.04815  0.63064  0.17426  1.0000
  H   H482      1.0  0.48812  0.53921  0.28327  1.0000
  C   C277      1.0  0.03922  0.57127  0.25968  1.0000
  H   H483      1.0  0.46042  0.86954  0.02808  1.0000
  S   S66       1.0  0.43252  0.66857  0.11316  1.0000
  H   H484      1.0  0.02258  0.72089  0.14120  1.0000
  H   H485      1.0  0.40184  0.79268  0.02179  1.0000
  Fe  Fe33      1.0  0.37780  0.87261  0.08989  1.0000
  S   S67       1.0  0.42186  0.87134  0.07452  1.0000
  S   S68       1.0  0.34521  0.89313  0.06226  1.0000
  Fe  Fe34      1.0  0.39456  0.85131  0.14681  1.0000
  S   S69       1.0  0.43996  0.84928  0.13451  1.0000
  S   S70       1.0  0.39316  0.83669  0.19126  1.0000
  Fe  Fe35      1.0  0.43339  0.89094  0.11453  1.0000
  S   S71       1.0  0.46863  0.92267  0.11330  1.0000
  Fe  Fe36      1.0  0.42469  0.82963  0.09574  1.0000
  S   S72       1.0  0.45144  0.79556  0.07664  1.0000
  S   S73       1.0  0.38915  0.89500  0.12934  1.0000
  S   S74       1.0  0.37942  0.82889  0.10862  1.0000
  C   C278      1.0  0.43854  0.70354  0.10244  1.0000
  C   C279      1.0  0.41591  0.72238  0.10237  1.0000
  C   C280      1.0  0.41978  0.75072  0.09489  1.0000
  C   C281      1.0  0.44620  0.76024  0.08670  1.0000
  C   C282      1.0  0.46871  0.74124  0.08603  1.0000
  C   C283      1.0  0.46503  0.71305  0.09431  1.0000
  H   H486      1.0  0.39531  0.71504  0.10834  1.0000
  H   H487      1.0  0.40222  0.76508  0.09500  1.0000
  H   H488      1.0  0.39954  0.93913  0.03320  1.0000
  Fe  Fe37      1.0  0.00660  0.59517  0.08393  1.0000
  C   C284      1.0  0.02359  0.55159  0.20198  1.0000
  C   C285      1.0  0.48356  0.97805  0.11694  1.0000
  C   C286      1.0  0.44093  0.96520  0.14077  1.0000
  C   C287      1.0  0.46361  0.95763  0.12421  1.0000
  H   H489      1.0  0.04184  0.78351  0.33533  1.0000
  H   H490      1.0  0.42482  0.90351  0.17839  1.0000
  H   H491      1.0  0.48918  0.74845  0.07948  1.0000
  H   H492      1.0  0.42531  0.94962  0.14615  1.0000
  C   C288      1.0  0.44105  0.50959  0.16096  1.0000
  H   H493      1.0  0.00039  0.73583  0.22817  1.0000
  H   H494      1.0  0.12353  0.60662  0.01097  1.0000
  H   H495      1.0  0.47775  0.89577  0.21340  1.0000
  H   H496      1.0  0.08667  0.53884  0.16736  1.0000
  H   H497      1.0  0.41415  0.72687  0.28781  1.0000
  H   H498      1.0  0.40993  0.56212  0.06763  1.0000
  H   H499      1.0  0.00135  0.69037  0.13245  1.0000
  C   C289      1.0  0.34800  0.89114  0.02615  1.0000
  N   N16       1.0  0.39546  0.92543  0.22574  1.0000
  H   H500      1.0  0.34099  0.90777  0.29149  1.0000
  H   H501      1.0  0.45672  0.86784  0.19830  1.0000
  C   C290      1.0  0.02877  0.64847  0.26494  1.0000
  C   C291      1.0  0.45817  0.60055  0.02900  1.0000
  H   H502      1.0  0.29826  0.53458  0.00990  1.0000
  C   C292      1.0  0.04000  0.63811  0.20891  1.0000
  C   C293      1.0  0.06135  0.64735  0.22667  1.0000
  C   C294      1.0  0.05578  0.65262  0.25456  1.0000
  H   H503      1.0  0.44596  0.65463  0.20987  1.0000
  H   H504      1.0  0.05206  0.53773  0.15273  1.0000
  H   H505      1.0  0.08240  0.65018  0.21887  1.0000
  H   H506      1.0  0.07248  0.65931  0.26811  1.0000
  C   C295      1.0  0.32540  0.82851  0.25758  1.0000
  C   C296      1.0  0.31819  0.83872  0.23149  1.0000
  C   C297      1.0  0.33836  0.84032  0.21044  1.0000
  C   C298      1.0  0.36602  0.83223  0.21557  1.0000
  C   C299      1.0  0.37301  0.82136  0.24142  1.0000
  C   C300      1.0  0.35279  0.81930  0.26227  1.0000
  H   H507      1.0  0.29703  0.84588  0.22772  1.0000
  H   H508      1.0  0.33269  0.84838  0.19051  1.0000
  H   H509      1.0  0.39437  0.81521  0.24566  1.0000
  H   H510      1.0  0.35863  0.81149  0.28230  1.0000
  C   C301      1.0  0.44915  0.65754  0.29000  1.0000
  H   H511      1.0  0.01903  0.95263  0.20638  1.0000
  H   H512      1.0  0.42922  0.57074  0.22678  1.0000
  C   C302      1.0  0.32614  0.92107  0.18275  1.0000
  H   H513      1.0  0.44994  0.69318  0.17547  1.0000
  C   C303      1.0  0.25950  0.91800  0.03584  1.0000
  H   H514      1.0  0.44554  0.93135  0.19312  1.0000
  C   C304      1.0  0.11287  0.58589  0.00842  1.0000
  C   C305      1.0  0.42180  0.69284  0.31719  1.0000
  C   C306      1.0  0.38356  0.92239  0.25421  1.0000
  H   H515      1.0  0.45660  0.79639  0.17754  1.0000
  H   H516      1.0  0.08917  0.58828  0.07628  1.0000
  H   H517      1.0  0.47908  0.56638  0.24347  1.0000
  C   C307      1.0  0.40304  0.95596  0.22118  1.0000
  H   H518      1.0  0.38843  0.87685  0.26131  1.0000
  H   H519      1.0  0.02246  0.58511  0.26783  1.0000
  H   H520      1.0  0.06802  0.54631  0.21310  1.0000
  H   H521      1.0  0.38465  0.96963  0.22541  1.0000
  H   H522      1.0  0.44932  0.60333  0.26861  1.0000
  C   C308      1.0  0.35157  0.86526  0.01295  1.0000
  H   H523      1.0  0.05242  0.51536  0.19813  1.0000
  H   H524      1.0  0.31918  0.50366  0.01633  1.0000
  H   H525      1.0  0.36690  0.93833  0.25791  1.0000
  H   H526      1.0  0.01497  0.53492  0.27043  1.0000
  H   H527      1.0  0.46856  0.72277  0.31322  1.0000
  H   H528      1.0  0.23885  0.92863  0.03718  1.0000
  H   H529      1.0  0.47393  0.51027  0.24738  1.0000
  C   C309      1.0  0.21491  0.84462  0.32625  1.0000
  H   H530      1.0  0.46315  0.77058  0.27216  1.0000
  H   H531      1.0  0.41477  0.88960  0.02033  1.0000
  C   C310      1.0  0.47049  0.55164  0.22802  1.0000
  H   H532      1.0  0.07668  0.60738  0.04697  1.0000
  C   C311      1.0  0.46779  0.70466  0.29872  1.0000
  H   H533      1.0  0.48350  0.51440  0.14677  1.0000
  H   H534      1.0  0.30536  0.93141  0.18450  1.0000
  H   H535      1.0  0.46700  0.74186  0.18193  1.0000
  C   C312      1.0  0.35894  0.89296  0.29035  1.0000
  H   H536      1.0  0.41449  0.88415  0.22453  1.0000
  H   H537      1.0  0.20341  0.79012  0.32156  1.0000
  C   C313      1.0  0.34509  0.93077  0.20620  1.0000
  H   H538      1.0  0.37138  0.89353  0.20417  1.0000
  C   C314      1.0  0.42901  0.63286  0.29644  1.0000
  C   C315      1.0  0.09547  0.59751  0.05631  1.0000
  H   H539      1.0  0.48848  0.96480  0.19772  1.0000
  C   C316      1.0  0.42084  0.90669  0.22322  1.0000
  H   H540      1.0  0.40824  0.95988  0.19928  1.0000
  H   H541      1.0  0.45461  0.70497  0.20993  1.0000
  C   C317      1.0  0.40757  0.50311  0.06816  1.0000
  Fe  Fe38      1.0  0.46501  0.57662  0.14403  1.0000
  S   S75       1.0  0.46015  0.59262  0.10132  1.0000
  H   H542      1.0  0.16065  0.55705  0.02025  1.0000
  H   H543      1.0  0.33443  0.92523  0.22564  1.0000
  H   H544      1.0  0.04419  0.52656  0.24988  1.0000
  C   C318      1.0  0.01720  0.69887  0.14686  1.0000
  C   C319      1.0  0.43876  0.55018  0.23219  1.0000
  H   H545      1.0  0.24393  0.88050  0.05683  1.0000
  H   H546      1.0  0.03637  0.68577  0.14510  1.0000
  H   H547      1.0  0.48071  0.65474  0.33197  1.0000
  H   H548      1.0  0.35381  0.84626  0.02497  1.0000
  N   N17       1.0  0.45045  0.68106  0.31076  1.0000
  C   C320      1.0  0.43888  0.69713  0.19516  1.0000
  H   H549      1.0  0.03161  0.81997  0.33530  1.0000
  Fe  Fe39      1.0  0.04715  0.67313  0.33389  1.0000
  H   H550      1.0  0.42921  0.53376  0.21887  1.0000
  H   H551      1.0  0.40639  0.69233  0.27431  1.0000
  C   C321      1.0  0.42799  0.66879  0.20558  1.0000
  H   H552      1.0  0.22874  0.86350  0.32669  1.0000
  H   H553      1.0  0.38254  0.92186  0.18352  1.0000
  H   H554      1.0  0.02363  0.70165  0.18998  1.0000
  H   H555      1.0  0.43393  0.52698  0.09715  1.0000
  H   H556      1.0  0.21227  0.54695  0.01434  1.0000
  H   H557      1.0  0.33545  0.92681  0.16265  1.0000
  H   H558      1.0  0.44727  0.95637  0.23489  1.0000
  H   H559      1.0  0.36394  0.68914  0.30275  1.0000
  C   C322      1.0  0.99736  0.79019  0.32831  1.0000
  H   H560      1.0  0.44307  0.73561  0.24046  1.0000
  H   H561      1.0  0.02744  0.98043  0.26286  1.0000
  S   S76       1.0  0.01570  0.63907  0.09977  1.0000
  H   H562      1.0  0.49367  0.80238  0.14235  1.0000
  H   H563      1.0  0.32294  0.89792  0.18352  1.0000
  C   C323      1.0  0.40541  0.70578  0.29280  1.0000
  H   H564      1.0  0.02600  0.57494  0.20214  1.0000
  S   S77       1.0  0.32356  0.76366  0.32565  1.0000
  C   C324      1.0  0.03135  0.57633  0.01519  1.0000
  C   C325      1.0  0.99864  0.51148  0.22204  1.0000
  H   H565      1.0  0.35108  0.87154  0.29543  1.0000
  H   H566      1.0  0.24524  0.82044  0.30452  1.0000
  H   H567      1.0  0.48258  0.69865  0.09415  1.0000
  H   H568      1.0  0.43537  0.90999  0.24077  1.0000
  C   C326      1.0  0.46336  0.89022  0.19633  1.0000
  H   H569      1.0  0.12632  0.56616  0.04754  1.0000
  H   H570      1.0  0.47022  0.64790  0.28753  1.0000
  H   H571      1.0  0.41395  0.59405  0.27798  1.0000
  H   H572      1.0  0.45766  0.62239  0.03722  1.0000
  C   C327      1.0  0.06498  0.54696  0.16943  1.0000
  N   N18       1.0  0.42210  0.74882  0.18576  1.0000
  C   C328      1.0  0.44934  0.75084  0.17011  1.0000
  C   C329      1.0  0.41443  0.71821  0.19049  1.0000
  C   C330      1.0  0.39944  0.76178  0.16823  1.0000
  C   C331      1.0  0.42310  0.76497  0.21239  1.0000
  C   C332      1.0  0.44664  0.75719  0.23271  1.0000
  C   C333      1.0  0.45828  0.78076  0.16077  1.0000
  C   C334      1.0  0.36897  0.75952  0.17932  1.0000
  C   C335      1.0  0.37162  0.89294  0.26161  1.0000
  C   C336      1.0  0.41021  0.94748  0.01466  1.0000
  C   C337      1.0  0.44643  0.77684  0.25757  1.0000
  H   H573      1.0  0.02393  0.62088  0.01857  1.0000
  C   C338      1.0  0.34819  0.77291  0.15943  1.0000
  C   C339      1.0  0.42809  0.61187  0.27271  1.0000
  Fe  Fe40      1.0  0.01537  0.61940  0.14196  1.0000
  H   H574      1.0  0.39950  0.71639  0.20793  1.0000
  H   H575      1.0  0.40303  0.70951  0.17234  1.0000
  H   H576      1.0  0.39960  0.75206  0.14756  1.0000
  H   H577      1.0  0.40352  0.78458  0.16491  1.0000
  H   H578      1.0  0.42437  0.78800  0.20847  1.0000
  H   H579      1.0  0.40323  0.76207  0.22393  1.0000
  H   H580      1.0  0.47492  0.89262  0.17671  1.0000
  H   H581      1.0  0.07958  0.55621  0.27458  1.0000
  H   H582      1.0  0.44484  0.78763  0.14347  1.0000
  H   H583      1.0  0.45036  0.79896  0.25116  1.0000
  H   H584      1.0  0.36671  0.77077  0.19908  1.0000
  H   H585      1.0  0.36262  0.73722  0.18222  1.0000
  H   H586      1.0  0.41445  0.65865  0.18984  1.0000
  H   H587      1.0  0.47931  0.89428  0.00852  1.0000
  H   H588      1.0  0.09140  0.55711  0.03702  1.0000
  C   C340      1.0  0.48373  0.52194  0.23007  1.0000
  H   H589      1.0  0.45808  0.71278  0.27972  1.0000
  H   H590      1.0  0.36375  0.72130  0.28309  1.0000
  H   H591      1.0  0.42595  0.77572  0.26838  1.0000
  C   C341      1.0  0.37439  0.91678  0.20424  1.0000
  H   H592      1.0  0.47579  0.58923  0.03891  1.0000
  H   H593      1.0  0.41585  0.67151  0.22478  1.0000
  H   H594      1.0  0.37493  0.89895  0.30586  1.0000
  H   H595      1.0  0.34931  0.76256  0.13904  1.0000
  H   H596      1.0  0.32654  0.77058  0.16749  1.0000
  H   H597      1.0  0.35273  0.79576  0.15714  1.0000
  H   H598      1.0  0.40601  0.84415  0.02270  1.0000
  Fe  Fe41      1.0  0.46631  0.63569  0.11967  1.0000
  S   S78       1.0  0.43305  0.54570  0.16026  1.0000
  S   S79       1.0  0.46773  0.61963  0.16284  1.0000
  H   H599      1.0  0.34107  0.93555  0.02029  1.0000
  H   H600      1.0  0.28165  0.88499  0.05801  1.0000
  N   N19       1.0  0.21216  0.77686  0.28026  1.0000
  C   C342      1.0  0.24062  0.76524  0.28768  1.0000
  C   C343      1.0  0.20416  0.79935  0.30070  1.0000
  C   C344      1.0  0.19121  0.75301  0.28310  1.0000
  C   C345      1.0  0.21091  0.78809  0.25132  1.0000
  C   C346      1.0  0.23820  0.80148  0.23961  1.0000
  C   C347      1.0  0.24930  0.73823  0.27183  1.0000
  C   C348      1.0  0.15979  0.76102  0.28055  1.0000
  C   C349      1.0  0.22293  0.82591  0.30200  1.0000
  H   H601      1.0  0.99845  0.67541  0.17924  1.0000
  C   C350      1.0  0.23273  0.81589  0.21218  1.0000
  C   C351      1.0  0.28054  0.73208  0.27476  1.0000
  C   C352      1.0  0.14135  0.73481  0.27723  1.0000
  H   H602      1.0  0.24142  0.75996  0.30988  1.0000
  H   H603      1.0  0.25737  0.78125  0.28503  1.0000
  H   H604      1.0  0.18277  0.80748  0.29649  1.0000
  H   H605      1.0  0.06558  0.57025  0.16719  1.0000
  H   H606      1.0  0.19386  0.74229  0.30322  1.0000
  H   H607      1.0  0.19513  0.73654  0.26735  1.0000
  H   H608      1.0  0.20503  0.77105  0.23667  1.0000
  H   H609      1.0  0.19384  0.80394  0.24952  1.0000
  H   H610      1.0  0.25439  0.78514  0.23610  1.0000
  H   H611      1.0  0.24743  0.81732  0.25355  1.0000
  H   H612      1.0  0.23782  0.71969  0.28015  1.0000
  H   H613      1.0  0.24428  0.73996  0.24974  1.0000
  H   H614      1.0  0.15613  0.77498  0.26272  1.0000
  H   H615      1.0  0.15271  0.77197  0.29943  1.0000
  C   C353      1.0  0.06153  0.56884  0.28197  1.0000
  H   H616      1.0  0.22021  0.83867  0.28318  1.0000
  H   H617      1.0  0.44806  0.73763  0.15126  1.0000
  H   H618      1.0  0.43815  0.58994  0.03437  1.0000
  H   H619      1.0  0.44397  0.66588  0.26936  1.0000
  H   H620      1.0  0.21773  0.83355  0.21478  1.0000
  H   H621      1.0  0.25270  0.82456  0.20402  1.0000
  H   H622      1.0  0.22418  0.80058  0.19709  1.0000
  H   H623      1.0  0.28613  0.71353  0.26206  1.0000
  H   H624      1.0  0.29334  0.75039  0.26796  1.0000
  H   H625      1.0  0.28546  0.72705  0.29641  1.0000
  H   H626      1.0  0.11891  0.74100  0.27730  1.0000
  H   H627      1.0  0.14599  0.72393  0.25762  1.0000
  H   H628      1.0  0.14481  0.71995  0.29447  1.0000
  H   H629      1.0  0.42252  0.96587  0.26108  1.0000
  H   H630      1.0  0.46768  0.75877  0.22323  1.0000
  C   C354      1.0  0.00204  0.98650  0.08933  1.0000
  H   H631      1.0  0.19280  0.85167  0.32446  1.0000
  H   H632      1.0  0.27634  0.93374  0.03976  1.0000
  C   C355      1.0  0.05308  0.53868  0.19730  1.0000
  H   H633      1.0  0.43379  0.54522  0.25386  1.0000
  S   S80       1.0  0.02677  0.56842  0.05035  1.0000
  H   H634      1.0  0.06924  0.59024  0.28749  1.0000
  C   C356      1.0  0.42740  0.96769  0.23898  1.0000
  H   H635      1.0  0.11154  0.61405  0.06007  1.0000
  C   C357      1.0  0.02756  0.98157  0.24015  1.0000
  C   C358      1.0  0.43873  0.99296  0.15063  1.0000
  C   C359      1.0  0.02680  0.54198  0.25206  1.0000
  H   H636      1.0  0.42001  0.62209  0.25385  1.0000
  H   H637      1.0  0.35491  0.88635  0.24721  1.0000
  C   C360      1.0  0.10713  0.57440  0.03770  1.0000
  C   C361      1.0  0.43783  0.90956  0.19625  1.0000
  C   C362      1.0  0.01290  0.63450  0.21921  1.0000
  H   H638      1.0  0.39997  0.92686  0.26979  1.0000
  H   H639      1.0  0.04895  0.58192  0.24187  1.0000
  H   H640      1.0  0.47657  0.51061  0.21139  1.0000
  C   C363      1.0  0.37448  0.70983  0.29988  1.0000
  H   H641      1.0  0.01098  0.54711  0.18326  1.0000
  H   H642      1.0  0.40174  0.56716  0.10333  1.0000
  H   H643      1.0  0.05261  0.55893  0.30064  1.0000
  C   C364      1.0  0.39904  0.55279  0.08554  1.0000
  H   H644      1.0  0.00047  0.79164  0.30592  1.0000
  H   H645      1.0  0.25941  0.90678  0.07890  1.0000
  H   H646      1.0  0.00301  0.98967  0.11184  1.0000
  H   H647      1.0  0.45541  0.76434  0.33969  1.0000
  C   C365      1.0  0.26120  0.89614  0.05871  1.0000
  H   H648      1.0  0.40726  0.64020  0.29982  1.0000
  H   H649      1.0  0.43966  0.82744  0.02198  1.0000
  H   H650      1.0  0.40807  0.67672  0.32669  1.0000
  H   H651      1.0  0.00305  0.96362  0.08468  1.0000
  H   H652      1.0  0.00339  0.74634  0.27829  1.0000
  H   H653      1.0  0.47453  0.56066  0.20740  1.0000
  Fe  Fe42      1.0  0.30903  0.80824  0.32538  1.0000
  H   H654      1.0  0.37230  0.72234  0.31898  1.0000
  H   H655      1.0  0.41907  0.96853  0.01968  1.0000
  H   H656      1.0  0.02055  0.99704  0.08001  1.0000
  S   S81       1.0  0.01009  0.57532  0.12579  1.0000
  N   N20       1.0  0.00815  0.54142  0.22712  1.0000
  C   C366      1.0  0.42078  0.83228  0.00964  1.0000
  C   C367      1.0  0.00580  0.69726  0.17596  1.0000
  S   S82       1.0  0.05166  0.72021  0.33670  1.0000
  H   H657      1.0  0.03155  0.93606  0.23716  1.0000
  C   C368      1.0  0.46756  0.49976  0.15353  1.0000
  C   C369      1.0  0.41133  0.52398  0.09243  1.0000
  H   H658      1.0  0.43649  0.62125  0.31469  1.0000
  C   C370      1.0  0.48857  0.78117  0.15061  1.0000
  H   H659      1.0  0.40074  0.51663  0.11128  1.0000
  H   H660      1.0  0.00102  0.69835  0.22924  1.0000
  H   H661      1.0  0.04948  0.98503  0.23344  1.0000
  H   H662      1.0  0.37626  0.55102  0.08112  1.0000
  H   H663      1.0  0.01548  0.71034  0.27852  1.0000
  H   H664      1.0  0.44948  0.92744  0.02242  1.0000
  H   H665      1.0  0.38578  0.50501  0.06020  1.0000
  H   H666      1.0  0.42369  0.70963  0.33301  1.0000
  H   H667      1.0  0.49156  0.76551  0.13399  1.0000
  C   C371      1.0  0.01786  0.95301  0.22910  1.0000
  C   C372      1.0  0.46490  0.67123  0.33673  1.0000
  C   C373      1.0  0.99679  0.72405  0.28080  1.0000
  H   H668      1.0  0.26959  0.49847  0.03235  1.0000
  H   H669      1.0  0.99590  0.94852  0.23538  1.0000
  H   H670      1.0  0.99575  0.50133  0.02382  1.0000
  Fe  Fe43      1.0  0.21788  0.89595  0.59897  1.0000
  S   S83       1.0  0.26432  0.90287  0.60158  1.0000
  S   S84       1.0  0.18426  0.92722  0.58646  1.0000
  Fe  Fe44      1.0  0.22240  0.83530  0.61953  1.0000
  S   S85       1.0  0.26933  0.83795  0.62464  1.0000
  S   S86       1.0  0.19132  0.79951  0.62603  1.0000
  Fe  Fe45      1.0  0.26159  0.88125  0.64271  1.0000
  Fe  Fe46      1.0  0.26824  0.85944  0.58332  1.0000
  S   S87       1.0  0.30091  0.84726  0.55130  1.0000
  C   C374      1.0  0.15448  0.71562  0.49034  1.0000
  S   S88       1.0  0.22192  0.85429  0.57746  1.0000
  Fe  Fe47      1.0  0.15941  0.57939  0.59773  1.0000
  S   S89       1.0  0.11344  0.58990  0.60005  1.0000
  S   S90       1.0  0.16982  0.53539  0.58265  1.0000
  Fe  Fe48      1.0  0.17680  0.63793  0.61676  1.0000
  S   S91       1.0  0.13233  0.65174  0.62109  1.0000
  S   S92       1.0  0.21287  0.66762  0.62630  1.0000
  Fe  Fe49      1.0  0.12462  0.60967  0.64058  1.0000
  Fe  Fe50      1.0  0.12553  0.63093  0.58026  1.0000
  S   S93       1.0  0.10203  0.65859  0.54988  1.0000
  S   S94       1.0  0.16992  0.59695  0.63930  1.0000
  S   S95       1.0  0.17076  0.61917  0.57492  1.0000
  Fe  Fe51      1.0  0.30353  0.80866  0.38916  1.0000
  S   S96       1.0  0.31928  0.76400  0.39254  1.0000
  S   S97       1.0  0.27912  0.83107  0.42310  1.0000
  H   H671      1.0  0.32558  0.74583  0.48048  1.0000
  H   H672      1.0  0.20714  0.75905  0.56398  1.0000
  C   C375      1.0  0.25895  0.98162  0.66425  1.0000
  H   H673      1.0  0.47729  0.68866  0.34622  1.0000
  Fe  Fe52      1.0  0.35124  0.77719  0.36058  1.0000
  C   C376      1.0  0.12962  0.53439  0.66251  1.0000
  H   H674      1.0  0.15344  0.89614  0.63534  1.0000
  S   S98       1.0  0.33733  0.82269  0.35947  1.0000
  H   H675      1.0  0.43044  0.64440  0.35290  1.0000
  H   H676      1.0  0.25553  0.99718  0.64767  1.0000
  Fe  Fe53      1.0  0.07013  0.66500  0.39224  1.0000
  S   S99       1.0  0.07532  0.71126  0.39931  1.0000
  S   S100      1.0  0.08239  0.63207  0.42363  1.0000
  Fe  Fe54      1.0  0.03346  0.71590  0.37871  1.0000
  H   H677      1.0  0.04704  0.74657  0.44269  1.0000
  H   H678      1.0  0.00588  0.67098  0.55119  1.0000
  H   H679      1.0  0.13098  0.92482  0.62497  1.0000
  S   S101      1.0  0.02651  0.66940  0.37531  1.0000
  H   H680      1.0  0.02964  0.65739  0.49421  1.0000
  Fe  Fe55      1.0  0.29018  0.75542  0.35709  1.0000
  H   H681      1.0  0.19235  0.96443  0.49506  1.0000
  H   H682      1.0  0.28636  0.51523  0.57459  1.0000
  H   H683      1.0  0.44953  0.63870  0.39937  1.0000
  H   H684      1.0  0.26663  0.77335  0.57686  1.0000
  H   H685      1.0  0.22383  0.75867  0.51342  1.0000
  S   S102      1.0  0.09061  0.66478  0.35060  1.0000
  H   H686      1.0  0.24137  0.53391  0.53338  1.0000
  H   H687      1.0  0.22678  0.76795  0.36718  1.0000
  H   H688      1.0  0.20769  0.54502  0.62820  1.0000
  C   C377      1.0  0.42442  0.75443  0.37026  1.0000
  C   C378      1.0  0.41974  0.74198  0.39577  1.0000
  C   C379      1.0  0.44220  0.72950  0.41005  1.0000
  C   C380      1.0  0.46929  0.72899  0.39871  1.0000
  C   C381      1.0  0.47389  0.74146  0.37321  1.0000
  H   H689      1.0  0.00718  0.62952  0.46698  1.0000
  H   H690      1.0  0.39888  0.74193  0.40445  1.0000
  H   H691      1.0  0.43853  0.72004  0.42986  1.0000
  C   C382      1.0  0.14536  0.92725  0.66735  1.0000
  S   S103      1.0  0.25993  0.71820  0.35435  1.0000
  C   C383      1.0  0.09837  0.65107  0.51459  1.0000
  C   C384      1.0  0.10370  0.62431  0.50387  1.0000
  C   C385      1.0  0.09889  0.61883  0.47590  1.0000
  C   C386      1.0  0.08926  0.64015  0.45836  1.0000
  C   C387      1.0  0.08494  0.66718  0.46889  1.0000
  C   C388      1.0  0.08907  0.67248  0.49697  1.0000
  H   H692      1.0  0.11082  0.60764  0.51725  1.0000
  H   H693      1.0  0.10243  0.59788  0.46788  1.0000
  H   H694      1.0  0.07811  0.68383  0.45546  1.0000
  H   H695      1.0  0.08488  0.69321  0.50519  1.0000
  C   C389      1.0  0.29458  0.84351  0.51562  1.0000
  C   C390      1.0  0.26772  0.84623  0.50444  1.0000
  C   C391      1.0  0.26348  0.84238  0.47611  1.0000
  C   C392      1.0  0.28589  0.83542  0.45865  1.0000
  C   C393      1.0  0.31276  0.83269  0.46983  1.0000
  C   C394      1.0  0.31706  0.83682  0.49815  1.0000
  H   H696      1.0  0.25027  0.85153  0.51757  1.0000
  H   H697      1.0  0.24268  0.84487  0.46763  1.0000
  H   H698      1.0  0.33026  0.82770  0.45663  1.0000
  H   H699      1.0  0.33793  0.83474  0.50657  1.0000
  C   C395      1.0  0.19897  0.76324  0.62364  1.0000
  C   C396      1.0  0.17739  0.74463  0.61606  1.0000
  C   C397      1.0  0.18187  0.71540  0.61573  1.0000
  C   C398      1.0  0.20762  0.70440  0.62402  1.0000
  C   C399      1.0  0.22944  0.72300  0.63112  1.0000
  C   C400      1.0  0.22526  0.75239  0.63062  1.0000
  H   H700      1.0  0.15707  0.75289  0.61043  1.0000
  H   H701      1.0  0.16526  0.70137  0.60936  1.0000
  H   H702      1.0  0.12861  0.70724  0.64196  1.0000
  S   S104      1.0  0.12913  0.74254  0.35152  1.0000
  C   C401      1.0  0.19109  0.96344  0.59062  1.0000
  C   C402      1.0  0.21844  0.97342  0.59386  1.0000
  C   C403      1.0  0.16803  0.69568  0.51186  1.0000
  C   C404      1.0  0.18925  0.51233  0.60348  1.0000
  C   C405      1.0  0.16217  0.68075  0.45396  1.0000
  C   C406      1.0  0.20436  0.70197  0.35141  1.0000
  H   H703      1.0  0.23589  0.95897  0.59289  1.0000
  H   H704      1.0  0.11765  0.89743  0.64699  1.0000
  C   C407      1.0  0.08425  0.70956  0.63397  1.0000
  C   C408      1.0  0.22293  0.50392  0.63973  1.0000
  H   H705      1.0  0.15856  0.73757  0.49737  1.0000
  C   C409      1.0  0.14804  0.50864  0.66745  1.0000
  C   C410      1.0  0.25403  0.53618  0.55237  1.0000
  C   C411      1.0  0.22330  0.72416  0.35640  1.0000
  C   C412      1.0  0.14283  0.76058  0.44869  1.0000
  C   C413      1.0  0.16079  0.64130  0.41863  1.0000
  C   C414      1.0  0.01769  0.67133  0.50802  1.0000
  H   H706      1.0  0.15500  0.63603  0.39719  1.0000
  H   H707      1.0  0.22563  0.79172  0.56816  1.0000
  H   H708      1.0  0.22806  0.71976  0.54445  1.0000
  H   H709      1.0  0.13862  0.70756  0.54411  1.0000
  H   H710      1.0  0.23657  0.51209  0.65559  1.0000
  C   C415      1.0  0.23303  0.96304  0.66816  1.0000
  H   H711      1.0  0.17176  0.72600  0.54536  1.0000
  H   H712      1.0  0.14727  0.62868  0.43253  1.0000
  C   C416      1.0  0.14427  0.72847  0.44302  1.0000
  N   N21       1.0  0.16395  0.71182  0.46100  1.0000
  C   C417      1.0  0.16158  0.70542  0.54103  1.0000
  H   H713      1.0  0.19398  0.73743  0.41652  1.0000
  H   H714      1.0  0.25002  0.72521  0.44509  1.0000
  H   H715      1.0  0.02351  0.79785  0.36435  1.0000
  H   H716      1.0  0.16079  0.68979  0.34649  1.0000
  H   H717      1.0  0.08775  0.71688  0.61264  1.0000
  H   H718      1.0  0.27130  0.78024  0.48593  1.0000
  C   C418      1.0  0.20654  0.52261  0.62432  1.0000
  C   C419      1.0  0.01007  0.70328  0.45765  1.0000
  H   H719      1.0  0.16957  0.68968  0.55592  1.0000
  H   H720      1.0  0.08058  0.68644  0.63343  1.0000
  H   H721      1.0  0.23479  0.75980  0.43987  1.0000
  H   H722      1.0  0.10221  0.76635  0.42881  1.0000
  C   C420      1.0  0.17864  0.97526  0.51011  1.0000
  C   C421      1.0  0.20690  0.72439  0.43036  1.0000
  C   C422      1.0  0.04366  0.74447  0.46509  1.0000
  H   H723      1.0  0.28318  0.78961  0.54884  1.0000
  H   H724      1.0  0.13138  0.71266  0.49193  1.0000
  C   C423      1.0  0.15652  0.67278  0.42356  1.0000
  H   H725      1.0  0.23287  0.67138  0.56621  1.0000
  C   C424      1.0  0.45161  0.75434  0.35922  1.0000
  H   H726      1.0  0.31404  0.77442  0.45919  1.0000
  H   H727      1.0  0.19111  0.69473  0.50984  1.0000
  H   H728      1.0  0.47886  0.66103  0.39117  1.0000
  H   H729      1.0  0.19710  0.81312  0.53081  1.0000
  H   H730      1.0  0.05997  0.73052  0.47391  1.0000
  H   H731      1.0  0.06527  0.72010  0.64220  1.0000
  H   H732      1.0  0.16389  0.77044  0.44715  1.0000
  H   H733      1.0  0.17019  0.68435  0.40916  1.0000
  H   H734      1.0  0.32960  0.79448  0.57176  1.0000
  H   H735      1.0  0.24350  0.78975  0.52089  1.0000
  H   H736      1.0  0.14459  0.67058  0.46532  1.0000
  H   H737      1.0  0.23960  0.53794  0.57016  1.0000
  H   H738      1.0  0.15964  0.67393  0.50959  1.0000
  H   H739      1.0  0.12258  0.71984  0.44495  1.0000
  H   H740      1.0  0.11243  0.74004  0.65103  1.0000
  H   H741      1.0  0.02423  0.65027  0.44067  1.0000
  H   H742      1.0  0.26644  0.55596  0.55095  1.0000
  H   H743      1.0  0.04582  0.76567  0.47451  1.0000
  C   C425      1.0  0.23603  0.73791  0.43186  1.0000
  H   H744      1.0  0.01111  0.73211  0.49326  1.0000
  C   C426      1.0  0.18368  0.75580  0.36181  1.0000
  H   H745      1.0  0.12275  0.79808  0.43257  1.0000
  H   H746      1.0  0.28898  0.70109  0.55433  1.0000
  C   C427      1.0  0.16484  0.73397  0.35579  1.0000
  H   H747      1.0  0.43451  0.67777  0.36983  1.0000
  H   H748      1.0  0.14060  0.99254  0.64750  1.0000
  H   H749      1.0  0.02961  0.69115  0.46038  1.0000
  H   H750      1.0  0.17585  0.77681  0.36569  1.0000
  H   H751      1.0  0.21231  0.68111  0.34705  1.0000
  H   H752      1.0  0.13440  0.67771  0.41819  1.0000
  H   H753      1.0  0.25972  0.68131  0.59072  1.0000
  H   H754      1.0  0.24551  0.73879  0.41115  1.0000
  C   C428      1.0  0.16862  0.98253  0.59151  1.0000
  H   H755      1.0  0.18308  0.63550  0.42195  1.0000
  H   H756      1.0  0.20213  0.99148  0.65304  1.0000
  H   H757      1.0  0.26463  0.68946  0.52861  1.0000
  H   H758      1.0  0.31945  0.74868  0.54973  1.0000
  H   H759      1.0  0.18142  0.66959  0.46090  1.0000
  H   H760      1.0  0.13215  0.77260  0.40686  1.0000
  H   H761      1.0  0.13409  0.76483  0.46932  1.0000
  H   H762      1.0  0.24197  0.76657  0.63664  1.0000
  C   C429      1.0  0.19379  0.72240  0.45920  1.0000
  H   H763      1.0  0.14961  0.72610  0.42101  1.0000
  H   H764      1.0  0.19570  0.74357  0.46888  1.0000
  C   C430      1.0  0.12379  0.77519  0.42794  1.0000
  H   H765      1.0  0.20803  0.70865  0.47118  1.0000
  H   H766      1.0  0.14740  0.97486  0.58897  1.0000
  C   C431      1.0  0.99747  0.61721  0.42619  1.0000
  H   H767      1.0  0.24951  0.71466  0.63743  1.0000
  H   H768      1.0  0.01558  0.60262  0.42450  1.0000
  H   H769      1.0  0.19036  0.97718  0.52971  1.0000
  C   C432      1.0  0.01681  0.65732  0.53615  1.0000
  H   H770      1.0  0.13700  0.54558  0.64393  1.0000
  H   H771      1.0  0.00859  0.70652  0.43511  1.0000
  H   H772      1.0  0.31118  0.78343  0.60230  1.0000
  H   H773      1.0  0.03855  0.65375  0.54355  1.0000
  H   H774      1.0  0.20963  0.70309  0.42147  1.0000
  H   H775      1.0  0.34278  0.76563  0.59186  1.0000
  H   H776      1.0  0.02982  0.69118  0.51022  1.0000
  H   H777      1.0  0.23050  0.94999  0.64943  1.0000
  S   S105      1.0  0.21472  0.87673  0.64077  1.0000
  C   C433      1.0  0.01435  0.73278  0.47079  1.0000
  H   H778      1.0  0.12733  0.94052  0.67336  1.0000
  H   H779      1.0  0.16869  0.95617  0.64164  1.0000
  C   C434      1.0  0.46345  0.64588  0.38254  1.0000
  H   H780      1.0  0.26688  0.65492  0.56526  1.0000
  H   H781      1.0  0.17608  0.79990  0.55863  1.0000
  H   H782      1.0  0.17806  0.78020  0.52709  1.0000
  H   H783      1.0  0.29497  0.74179  0.45888  1.0000
  H   H784      1.0  0.30179  0.73668  0.58048  1.0000
  H   H785      1.0  0.30163  0.78177  0.50809  1.0000
  C   C435      1.0  0.10989  0.71676  0.65146  1.0000
  N   N22       1.0  0.26059  0.75142  0.53838  1.0000
  C   C436      1.0  0.27629  0.74326  0.51270  1.0000
  C   C437      1.0  0.24920  0.72537  0.55256  1.0000
  C   C438      1.0  0.23606  0.76947  0.52983  1.0000
  C   C439      1.0  0.27842  0.76860  0.55777  1.0000
  C   C440      1.0  0.30623  0.75514  0.56727  1.0000
  C   C441      1.0  0.28838  0.76775  0.49537  1.0000
  C   C442      1.0  0.21529  0.77774  0.55298  1.0000
  C   C443      1.0  0.26648  0.69780  0.54982  1.0000
  C   C444      1.0  0.25571  0.67501  0.56917  1.0000
  C   C445      1.0  0.32342  0.77598  0.58435  1.0000
  C   C446      1.0  0.30680  0.75663  0.47213  1.0000
  C   C447      1.0  0.19012  0.79368  0.54151  1.0000
  H   H786      1.0  0.26232  0.73066  0.49905  1.0000
  H   H787      1.0  0.29424  0.72934  0.51742  1.0000
  H   H788      1.0  0.24588  0.72963  0.57477  1.0000
  C   C448      1.0  0.13637  0.91043  0.64210  1.0000
  Fe  Fe56      1.0  0.09326  0.71172  0.35694  1.0000
  S   S106      1.0  0.00254  0.74867  0.39361  1.0000
  H   H789      1.0  0.99905  0.74790  0.46198  1.0000
  S   S107      1.0  0.27379  0.79921  0.35448  1.0000
  C   C449      1.0  0.00427  0.64026  0.44707  1.0000
  C   C450      1.0  0.44602  0.65997  0.36021  1.0000
  H   H790      1.0  0.28794  0.51024  0.53795  1.0000
  H   H791      1.0  0.15970  0.96202  0.51350  1.0000
  C   C451      1.0  0.17182  0.94510  0.66133  1.0000
  H   H792      1.0  0.47484  0.62738  0.37420  1.0000
  C   C452      1.0  0.27373  0.51107  0.55591  1.0000
  H   H793      1.0  0.21767  0.83311  0.34586  1.0000
  H   H794      1.0  0.16510  0.69102  0.67128  1.0000
  H   H795      1.0  0.49473  0.74166  0.36451  1.0000
  C   C453      1.0  0.21269  0.75089  0.36232  1.0000
  H   H796      1.0  0.18883  0.92978  0.65709  1.0000
  C   C454      1.0  0.17517  0.70680  0.35121  1.0000
  H   H797      1.0  0.27715  0.96828  0.65860  1.0000
  H   H798      1.0  0.00604  0.63657  0.53495  1.0000
  H   H799      1.0  0.10743  0.52817  0.65902  1.0000
  S   S108      1.0  0.39712  0.76889  0.35030  1.0000
  H   H800      1.0  0.15249  0.73890  0.67468  1.0000
  H   H801      1.0  0.16950  0.51629  0.67220  1.0000
  C   C455      1.0  0.20638  0.98120  0.67302  1.0000
  C   C456      1.0  0.02520  0.79845  0.34169  1.0000
  C   C457      1.0  0.40692  0.80414  0.00258  1.0000
  H   H802      1.0  0.14337  0.64091  0.92515  1.0000
  Fe  Fe57      1.0  0.31308  0.92115  0.84066  1.0000
  S   S109      1.0  0.31178  0.96842  0.84216  1.0000
  S   S110      1.0  0.29982  0.89192  0.80565  1.0000
  Fe  Fe58      1.0  0.33316  0.91720  0.90073  1.0000
  S   S111      1.0  0.33314  0.96410  0.90625  1.0000
  S   S112      1.0  0.34709  0.88459  0.93213  1.0000
  Fe  Fe59      1.0  0.29200  0.96293  0.88343  1.0000
  H   H803      1.0  0.08266  0.67977  0.72669  1.0000
  Fe  Fe60      1.0  0.35294  0.96554  0.86456  1.0000
  C   C458      1.0  0.18788  0.53568  0.77981  1.0000
  S   S113      1.0  0.29050  0.91583  0.88091  1.0000
  S   S114      1.0  0.35586  0.91860  0.86027  1.0000
  Fe  Fe61      1.0  0.09254  0.55737  0.83603  1.0000
  H   H804      1.0  0.12455  0.62471  0.96921  1.0000
  S   S115      1.0  0.11846  0.57824  0.80212  1.0000
  Fe  Fe62      1.0  0.06831  0.56286  0.89428  1.0000
  H   H805      1.0  0.34991  0.90212  0.70309  1.0000
  S   S116      1.0  0.05528  0.59559  0.92590  1.0000
  H   H806      1.0  0.00450  0.97935  0.87765  1.0000
  C   C459      1.0  0.11927  0.51924  0.96419  1.0000
  H   H807      1.0  0.21591  0.57551  0.72591  1.0000
  C   C460      1.0  0.02969  0.60380  0.00502  1.0000
  S   S117      1.0  0.11249  0.56130  0.87786  1.0000
  S   S118      1.0  0.04843  0.56259  0.85224  1.0000
  C   C461      1.0  0.04457  0.58741  0.95972  1.0000
  C   C462      1.0  0.03643  0.60930  0.97742  1.0000
  C   C463      1.0  0.04540  0.55986  0.96972  1.0000
  H   H808      1.0  0.14991  0.91184  0.68381  1.0000
  H   H809      1.0  0.05159  0.54282  0.95636  1.0000
  C   C464      1.0  0.34729  0.88798  0.96824  1.0000
  C   C465      1.0  0.35106  0.86370  0.98418  1.0000
  C   C466      1.0  0.34417  0.91399  0.98136  1.0000
  H   H810      1.0  0.35323  0.84348  0.97420  1.0000
  H   H811      1.0  0.34163  0.93289  0.96926  1.0000
  C   C467      1.0  0.18319  0.94607  0.95638  1.0000
  H   H812      1.0  0.14642  0.93633  0.72249  1.0000
  H   H813      1.0  0.39139  0.99354  0.76204  1.0000
  H   H814      1.0  0.47694  0.51675  0.98444  1.0000
  H   H815      1.0  0.17339  0.94005  0.86517  1.0000
  C   C468      1.0  0.44279  0.52600  0.87785  1.0000
  H   H816      1.0  0.10609  0.52821  0.94762  1.0000
  C   C469      1.0  0.18443  0.76953  0.70957  1.0000
  C   C470      1.0  0.21046  0.96154  0.88002  1.0000
  H   H817      1.0  0.16859  0.59507  0.86300  1.0000
  H   H818      1.0  0.47402  0.50498  0.77119  1.0000
  H   H819      1.0  0.00514  0.54267  0.92494  1.0000
  C   C471      1.0  0.18138  0.95858  0.87550  1.0000
  H   H820      1.0  0.18158  0.55991  0.72894  1.0000
  C   C472      1.0  0.46202  0.60127  0.99799  1.0000
  H   H821      1.0  0.26781  0.51167  0.85061  1.0000
  C   C473      1.0  0.18881  0.95023  0.70926  1.0000
  H   H822      1.0  0.18834  0.77468  0.68769  1.0000
  H   H823      1.0  0.17361  0.94830  0.93577  1.0000
  H   H824      1.0  0.42608  0.91167  0.89828  1.0000
  C   C474      1.0  0.10179  0.59537  0.71071  1.0000
  C   C475      1.0  0.12877  0.59793  0.72167  1.0000
  C   C476      1.0  0.13337  0.59265  0.74970  1.0000
  C   C477      1.0  0.11135  0.58379  0.76686  1.0000
  C   C478      1.0  0.08454  0.58049  0.75573  1.0000
  C   C479      1.0  0.07976  0.58661  0.72787  1.0000
  H   H825      1.0  0.14585  0.60476  0.70871  1.0000
  H   H826      1.0  0.15405  0.59578  0.75823  1.0000
  H   H827      1.0  0.06735  0.57393  0.76871  1.0000
  H   H828      1.0  0.05878  0.58472  0.71961  1.0000
  C   C480      1.0  0.28520  0.90275  0.71280  1.0000
  C   C481      1.0  0.29358  0.92593  0.72891  1.0000
  C   C482      1.0  0.29743  0.92321  0.75742  1.0000
  C   C483      1.0  0.29343  0.89713  0.77012  1.0000
  C   C484      1.0  0.28463  0.87408  0.75408  1.0000
  C   C485      1.0  0.28036  0.87687  0.72562  1.0000
  H   H829      1.0  0.29739  0.94603  0.71917  1.0000
  H   H830      1.0  0.30386  0.94111  0.76949  1.0000
  H   H831      1.0  0.28141  0.85380  0.76369  1.0000
  H   H832      1.0  0.27407  0.85882  0.71351  1.0000
  C   C486      1.0  0.16563  0.94593  0.73119  1.0000
  C   C487      1.0  0.17587  0.92702  0.75442  1.0000
  H   H833      1.0  0.48395  0.53582  0.86204  1.0000
  H   H834      1.0  0.20593  0.96172  0.72019  1.0000
  C   C488      1.0  0.45335  0.88764  0.96053  1.0000
  H   H835      1.0  0.11378  0.61788  0.92002  1.0000
  H   H836      1.0  0.18092  0.90565  0.74654  1.0000
  H   H837      1.0  0.19484  0.93614  0.76426  1.0000
  H   H838      1.0  0.15922  0.92496  0.77019  1.0000
  H   H839      1.0  0.19774  0.92913  0.70424  1.0000
  C   C489      1.0  0.47778  0.59242  0.90963  1.0000
  H   H840      1.0  0.16972  0.93181  0.96872  1.0000
  H   H841      1.0  0.21064  0.96909  0.82256  1.0000
  C   C490      1.0  0.38146  0.97703  0.77508  1.0000
  H   H842      1.0  0.13859  0.56606  0.94580  1.0000
  C   C491      1.0  0.12723  0.57909  0.96100  1.0000
  C   C492      1.0  0.48964  0.61996  0.89824  1.0000
  H   H843      1.0  0.45368  0.50685  0.95692  1.0000
  S   S119      1.0  0.09421  0.60452  0.67628  1.0000
  H   H844      1.0  0.42663  0.96418  0.74520  1.0000
  H   H845      1.0  0.24010  0.98966  0.83450  1.0000
  C   C493      1.0  0.48132  0.54279  0.94698  1.0000
  H   H846      1.0  0.23830  0.53430  0.81434  1.0000
  H   H847      1.0  0.16884  0.78455  0.71801  1.0000
  H   H848      1.0  0.24034  0.94567  0.78803  1.0000
  H   H849      1.0  0.04054  0.53321  0.00513  1.0000
  C   C494      1.0  0.43901  0.95385  0.78672  1.0000
  H   H850      1.0  0.40306  0.89887  0.98770  1.0000
  C   C495      1.0  0.27401  0.94940  0.98621  1.0000
  H   H851      1.0  0.48162  0.98676  0.99032  1.0000
  H   H852      1.0  0.45678  0.58911  0.90041  1.0000
  H   H853      1.0  0.13903  0.97728  0.69721  1.0000
  C   C496      1.0  0.17165  0.66919  0.71010  1.0000
  H   H854      1.0  0.00863  0.92705  0.81008  1.0000
  C   C497      1.0  0.10466  0.67494  0.73254  1.0000
  H   H855      1.0  0.29623  0.94429  0.99079  1.0000
  H   H856      1.0  0.03567  0.63070  0.96984  1.0000
  C   C498      1.0  0.19488  0.65213  0.69657  1.0000
  H   H857      1.0  0.39363  0.52316  0.81842  1.0000
  C   C499      1.0  0.30129  0.51210  0.00433  1.0000
  H   H858      1.0  0.49204  0.57542  0.90272  1.0000
  C   C500      1.0  0.42237  0.89749  0.00034  1.0000
  C   C501      1.0  0.41226  0.58562  0.95187  1.0000
  H   H859      1.0  0.20961  0.66638  0.68568  1.0000
  C   C502      1.0  0.20394  0.55766  0.73489  1.0000
  H   H860      1.0  0.17126  0.73487  0.73460  1.0000
  H   H861      1.0  0.16579  0.54277  0.77673  1.0000
  H   H862      1.0  0.41923  0.60620  0.94361  1.0000
  H   H863      1.0  0.17699  0.54371  0.86500  1.0000
  H   H864      1.0  0.38641  0.57732  0.91586  1.0000
  H   H865      1.0  0.12596  0.65873  0.76874  1.0000
  C   C503      1.0  0.43369  0.92771  0.00570  1.0000
  C   C504      1.0  0.47507  0.51458  0.96191  1.0000
  C   C505      1.0  0.15829  0.98725  0.68896  1.0000
  H   H866      1.0  0.14096  0.51793  0.95646  1.0000
  H   H867      1.0  0.43561  0.54756  0.87686  1.0000
  H   H868      1.0  0.19141  0.58555  0.89096  1.0000
  H   H869      1.0  0.20164  0.57938  0.77324  1.0000
  C   C506      1.0  0.15198  0.68304  0.68852  1.0000
  C   C507      1.0  0.38411  0.57863  0.93846  1.0000
  H   H870      1.0  0.43487  0.97509  0.79526  1.0000
  N   N23       1.0  0.38952  0.94798  0.76503  1.0000
  C   C508      1.0  0.42091  0.94807  0.76085  1.0000
  C   C509      1.0  0.37453  0.94268  0.73815  1.0000
  H   H871      1.0  0.41503  0.88002  0.93611  1.0000
  C   C510      1.0  0.38048  0.92685  0.78639  1.0000
  C   C511      1.0  0.38805  0.89571  0.78068  1.0000
  H   H872      1.0  0.20443  0.77223  0.72094  1.0000
  C   C512      1.0  0.42471  0.50483  0.88733  1.0000
  C   C513      1.0  0.38848  0.92230  0.71736  1.0000
  Fe  Fe63      1.0  0.10791  0.51445  0.88056  1.0000
  C   C514      1.0  0.38265  0.87718  0.80568  1.0000
  H   H873      1.0  0.44982  0.97871  0.95474  1.0000
  H   H874      1.0  0.36866  0.59538  0.94326  1.0000
  C   C515      1.0  0.37674  0.50886  0.81098  1.0000
  H   H875      1.0  0.42834  0.92782  0.75227  1.0000
  H   H876      1.0  0.35285  0.93496  0.74208  1.0000
  H   H877      1.0  0.37870  0.90050  0.67933  1.0000
  C   C516      1.0  0.18099  0.55080  0.98186  1.0000
  S   S120      1.0  0.09064  0.51027  0.83814  1.0000
  H   H878      1.0  0.38876  0.93290  0.80689  1.0000
  H   H879      1.0  0.35730  0.92705  0.78890  1.0000
  H   H880      1.0  0.41041  0.89314  0.77519  1.0000
  H   H881      1.0  0.37461  0.88742  0.76392  1.0000
  H   H882      1.0  0.22960  0.55400  0.77094  1.0000
  C   C517      1.0  0.21074  0.55476  0.99296  1.0000
  N   N24       1.0  0.19330  0.53004  0.80983  1.0000
  H   H883      1.0  0.21454  0.54994  0.86277  1.0000
  H   H884      1.0  0.40681  0.93285  0.70769  1.0000
  H   H885      1.0  0.39602  0.90267  0.72694  1.0000
  C   C518      1.0  0.42815  0.84923  0.98340  1.0000
  C   C519      1.0  0.43036  0.89719  0.94002  1.0000
  H   H886      1.0  0.09743  0.68283  0.77600  1.0000
  H   H887      1.0  0.38781  0.85495  0.80074  1.0000
  H   H888      1.0  0.39592  0.88402  0.82318  1.0000
  H   H889      1.0  0.36021  0.87806  0.81167  1.0000
  H   H890      1.0  0.46835  0.90541  0.96328  1.0000
  H   H891      1.0  0.17653  0.52787  0.98225  1.0000
  C   C520      1.0  0.17019  0.51081  0.81982  1.0000
  H   H892      1.0  0.21691  0.57735  0.99234  1.0000
  H   H893      1.0  0.37208  0.96276  0.72655  1.0000
  C   C521      1.0  0.47007  0.51940  0.86935  1.0000
  H   H894      1.0  0.26981  0.96752  0.79772  1.0000
  H   H895      1.0  0.15984  0.61209  0.96377  1.0000
  H   H896      1.0  0.25282  0.97982  0.95975  1.0000
  N   N25       1.0  0.13265  0.70602  0.69875  1.0000
  H   H897      1.0  0.15949  0.65460  0.72330  1.0000
  C   C522      1.0  0.14652  0.73458  0.69629  1.0000
  H   H898      1.0  0.46573  0.87093  0.95009  1.0000
  H   H899      1.0  0.47581  0.96885  0.76446  1.0000
  N   N26       1.0  0.25733  0.92250  0.98281  1.0000
  C   C523      1.0  0.26733  0.90695  0.95766  1.0000
  C   C524      1.0  0.48111  0.98073  0.85547  1.0000
  N   N27       1.0  0.12955  0.56702  0.98950  1.0000
  H   H900      1.0  0.46412  0.61283  0.94652  1.0000
  N   N28       1.0  0.46370  0.56785  0.95526  1.0000
  C   C525      1.0  0.25656  0.87617  0.95484  1.0000
  H   H901      1.0  0.43320  0.55685  0.92431  1.0000
  C   C526      1.0  0.25013  0.95760  0.80512  1.0000
  H   H902      1.0  0.09007  0.72002  0.69088  1.0000
  H   H903      1.0  0.16777  0.53069  0.91430  1.0000
  C   C527      1.0  0.26127  0.86456  0.92606  1.0000
  H   H904      1.0  0.26632  0.96170  0.00408  1.0000
  H   H905      1.0  0.29065  0.90606  0.95739  1.0000
  H   H906      1.0  0.26182  0.91833  0.93862  1.0000
  H   H907      1.0  0.18185  0.68471  0.72375  1.0000
  H   H908      1.0  0.25535  0.94239  0.82162  1.0000
  S   S121      1.0  0.12631  0.97584  0.87743  1.0000
  H   H909      1.0  0.13144  0.75142  0.70226  1.0000
  H   H910      1.0  0.46976  0.93738  0.86263  1.0000
  C   C528      1.0  0.17403  0.73915  0.71248  1.0000
  H   H911      1.0  0.14156  0.70026  0.74209  1.0000
  H   H912      1.0  0.40840  0.58748  0.97419  1.0000
  H   H913      1.0  0.26815  0.86230  0.96923  1.0000
  H   H914      1.0  0.23387  0.87464  0.95965  1.0000
  C   C529      1.0  0.12342  0.70141  0.72797  1.0000
  C   C530      1.0  0.23014  0.97998  0.81617  1.0000
  C   C531      1.0  0.22215  0.51733  0.81304  1.0000
  C   C532      1.0  0.16263  0.97968  0.88397  1.0000
  C   C533      1.0  0.43392  0.56212  0.94639  1.0000
  C   C534      1.0  0.42278  0.99071  0.85523  1.0000
  C   C535      1.0  0.29451  0.99450  0.96696  1.0000
  S   S122      1.0  0.06555  0.51613  0.90055  1.0000
  H   H915      1.0  0.20600  0.60136  0.86059  1.0000
  H   H916      1.0  0.09022  0.64726  0.76491  1.0000
  H   H917      1.0  0.28392  0.86537  0.92073  1.0000
  H   H918      1.0  0.25422  0.84227  0.92509  1.0000
  H   H919      1.0  0.24908  0.87683  0.91082  1.0000
  C   C536      1.0  0.18280  0.51377  0.91275  1.0000
  H   H920      1.0  0.17611  0.98383  0.78664  1.0000
  C   C537      1.0  0.20722  0.55791  0.76606  1.0000
  H   H921      1.0  0.20683  0.64041  0.71237  1.0000
  C   C538      1.0  0.18964  0.58669  0.86832  1.0000
  C   C539      1.0  0.19166  0.55796  0.82462  1.0000
  H   H922      1.0  0.37582  0.55821  0.94615  1.0000
  H   H923      1.0  0.17182  0.56880  0.81924  1.0000
  H   H924      1.0  0.15984  0.96653  0.74035  1.0000
  H   H925      1.0  0.20881  0.57227  0.81788  1.0000
  H   H926      1.0  0.33892  0.96900  0.79049  1.0000
  H   H927      1.0  0.18383  0.96725  0.96608  1.0000
  C   C540      1.0  0.19357  0.55727  0.85618  1.0000
  H   H928      1.0  0.21663  0.53740  0.93122  1.0000
  C   C541      1.0  0.46554  0.57109  0.98605  1.0000
  H   H929      1.0  0.37594  0.51041  0.78836  1.0000
  H   H930      1.0  0.02401  0.99672  0.96070  1.0000
  H   H931      1.0  0.22478  0.94543  0.87303  1.0000
  Fe  Fe64      1.0  0.04848  0.51540  0.85778  1.0000
  C   C542      1.0  0.27388  0.97029  0.96202  1.0000
  H   H932      1.0  0.33952  0.98132  0.75579  1.0000
  H   H933      1.0  0.43490  0.93787  0.80278  1.0000
  H   H934      1.0  0.09397  0.53892  0.99419  1.0000
  C   C543      1.0  0.34957  0.98346  0.77616  1.0000
  H   H935      1.0  0.21119  0.91418  0.94186  1.0000
  H   H936      1.0  0.35997  0.93310  0.68390  1.0000
  H   H937      1.0  0.21227  0.53780  0.72614  1.0000
  C   C544      1.0  0.22621  0.92865  0.98214  1.0000
  H   H938      1.0  0.13076  0.54905  0.68020  1.0000
  H   H939      1.0  0.45480  0.88775  0.90336  1.0000
  H   H940      1.0  0.45010  0.55693  0.99626  1.0000
  H   H941      1.0  0.34486  0.54117  0.81427  1.0000
  C   C545      1.0  0.03898  0.55443  0.99734  1.0000
  H   H942      1.0  0.45750  0.92393  0.91509  1.0000
  C   C546      1.0  0.47028  0.95269  0.77999  1.0000
  C   C547      1.0  0.10465  0.66551  0.76243  1.0000
  H   H943      1.0  0.42554  0.54306  0.95677  1.0000
  H   H944      1.0  0.22135  0.94703  0.99552  1.0000
  H   H945      1.0  0.48109  0.61400  0.99361  1.0000
  S   S123      1.0  0.28283  0.90706  0.67674  1.0000
  H   H946      1.0  0.19078  0.72547  0.70404  1.0000
  H   H947      1.0  0.11129  0.71994  0.73541  1.0000
  H   H948      1.0  0.18092  0.55849  0.96048  1.0000
  H   H949      1.0  0.14895  0.60508  0.91424  1.0000
  H   H950      1.0  0.31627  0.98640  0.96873  1.0000
  H   H951      1.0  0.13260  0.50405  0.70901  1.0000
  C   C548      1.0  0.10636  0.70637  0.68134  1.0000
  H   H952      1.0  0.09692  0.68486  0.68027  1.0000
  H   H953      1.0  0.10494  0.57844  0.95426  1.0000
  H   H954      1.0  0.12483  0.97628  0.77863  1.0000
  H   H955      1.0  0.28016  0.95994  0.94268  1.0000
  H   H956      1.0  0.01059  0.97323  0.93482  1.0000
  C   C549      1.0  0.46200  0.95854  0.85962  1.0000
  H   H957      1.0  0.23750  0.94873  0.68549  1.0000
  C   C550      1.0  0.13767  0.60984  0.95728  1.0000
  H   H958      1.0  0.41834  0.94630  0.86254  1.0000
  H   H959      1.0  0.47868  0.53809  0.92484  1.0000
  H   H960      1.0  0.40811  0.85246  0.97220  1.0000
  H   H961      1.0  0.44396  0.61261  0.98918  1.0000
  C   C551      1.0  0.43293  0.96351  0.85961  1.0000
  C   C552      1.0  0.21279  0.93415  0.95363  1.0000
  H   H962      1.0  0.22514  0.94906  0.94113  1.0000
  C   C553      1.0  0.47591  0.59350  0.94132  1.0000
  C   C554      1.0  0.44315  0.90563  0.91257  1.0000
  C   C555      1.0  0.13583  0.61887  0.92732  1.0000
  H   H963      1.0  0.49106  0.61855  0.87559  1.0000
  C   C556      1.0  0.22089  0.98565  0.89307  1.0000
  H   H964      1.0  0.41880  0.91579  0.94785  1.0000
  N   N29       1.0  0.18075  0.96562  0.68324  1.0000
  C   C557      1.0  0.36798  0.91409  0.69457  1.0000
  H   H965      1.0  0.47590  0.63797  0.90366  1.0000
  H   H966      1.0  0.11152  0.65694  0.71975  1.0000
  C   C558      1.0  0.11690  0.53770  0.99041  1.0000
  H   H967      1.0  0.16729  0.58870  0.00263  1.0000
  C   C559      1.0  0.21032  0.51744  0.92250  1.0000
  H   H968      1.0  0.44350  0.93689  0.98719  1.0000
  H   H969      1.0  0.44068  0.83526  0.96980  1.0000
  H   H970      1.0  0.14970  0.52206  0.81930  1.0000
  H   H971      1.0  0.13976  0.66527  0.67950  1.0000
  H   H972      1.0  0.48652  0.56417  0.99353  1.0000
  H   H973      1.0  0.48272  0.95703  0.79878  1.0000
  N   N30       1.0  0.44291  0.87709  0.98783  1.0000
  S   S124      1.0  0.39124  0.51409  0.89916  1.0000
  H   H974      1.0  0.48431  0.50538  0.80685  1.0000
  H   H975      1.0  0.19003  0.51597  0.76768  1.0000
  H   H976      1.0  0.16901  0.99421  0.82065  1.0000
  H   H977      1.0  0.22576  0.54270  0.98017  1.0000
  H   H978      1.0  0.99746  0.51220  0.97427  1.0000
  H   H979      1.0  0.38946  0.98067  0.79620  1.0000
  H   H980      1.0  0.21400  0.91085  0.99110  1.0000
  H   H981      1.0  0.18594  0.63675  0.68184  1.0000
  H   H982      1.0  0.48986  0.95202  0.94867  1.0000
  S   S125      1.0  0.25714  0.99180  0.89755  1.0000
  H   H983      1.0  0.11829  0.98769  0.81334  1.0000
  H   H984      1.0  0.47612  0.93149  0.77224  1.0000
  H   H985      1.0  0.38719  0.80748  0.99098  1.0000
  H   H986      1.0  0.45990  0.98701  0.92087  1.0000
  H   H987      1.0  0.30640  0.51102  0.98216  1.0000
  H   H988      1.0  0.22201  0.99179  0.77458  1.0000
  H   H989      1.0  0.21739  0.50504  0.85685  1.0000
  H   H990      1.0  0.26405  0.99297  0.68351  1.0000
  H   H991      1.0  0.39461  0.95000  0.99796  1.0000
  C   C560      1.0  0.48965  0.85162  0.99852  1.0000
  H   H992      1.0  0.48001  0.83069  0.99481  1.0000
  H   H993      1.0  0.28575  0.89649  0.00652  1.0000
  H   H994      1.0  0.39831  0.98487  0.95018  1.0000
  H   H995      1.0  0.17300  0.50519  0.84165  1.0000
  H   H996      1.0  0.22806  0.50496  0.79452  1.0000
  H   H997      1.0  0.40687  0.98372  0.91410  1.0000
  C   C561      1.0  0.12090  0.99488  0.79185  1.0000
  H   H998      1.0  0.42135  0.79085  0.99030  1.0000
  C   C562      1.0  0.15946  0.56680  0.99964  1.0000
  H   H999      1.0  0.25027  0.88488  0.00708  1.0000
  H   H1000     1.0  0.25744  0.50507  0.99813  1.0000
  C   C563      1.0  0.00454  0.98825  0.95123  1.0000
  H   H1001     1.0  0.35075  0.52164  0.84523  1.0000
  C   C564      1.0  0.34918  0.51988  0.82262  1.0000
  H   H1002     1.0  0.09202  0.59072  0.99926  1.0000
  C   C565      1.0  0.46762  0.87403  0.00686  1.0000
  S   S126      1.0  0.38649  0.99783  0.85434  1.0000
  S   S127      1.0  0.26295  0.49942  0.93623  1.0000
  C   C566      1.0  0.26365  0.90415  0.00735  1.0000
  H   H1003     1.0  0.42775  0.50153  0.79369  1.0000
  H   H1004     1.0  0.33144  0.50570  0.81711  1.0000
  C   C567      1.0  0.45602  0.99664  0.94138  1.0000
  H   H1005     1.0  0.12546  0.52561  0.00805  1.0000
  C   C568      1.0  0.40364  0.99783  0.93199  1.0000
  H   H1006     1.0  0.51543  0.08877  0.21934  1.0000
  S   S128      1.0  0.53950  0.15934  0.29996  1.0000
  Fe  Fe65      1.0  0.52180  0.09333  0.08735  1.0000
  H   H1007     1.0  0.90441  0.14616  0.31830  1.0000
  S   S129      1.0  0.54302  0.06614  0.05461  1.0000
  Fe  Fe66      1.0  0.52926  0.12493  0.14240  1.0000
  C   C569      1.0  0.96741  0.05377  0.23842  1.0000
  S   S130      1.0  0.56047  0.14610  0.17146  1.0000
  C   C570      1.0  0.88084  0.39594  0.04515  1.0000
  S   S131      1.0  0.93209  0.05042  0.16663  1.0000
  H   H1008     1.0  0.95598  0.45957  0.25155  1.0000
  C   C571      1.0  0.85865  0.29653  0.05367  1.0000
  S   S132      1.0  0.53004  0.07896  0.13075  1.0000
  S   S133      1.0  0.52496  0.13957  0.09856  1.0000
  Fe  Fe67      1.0  0.87838  0.36762  0.12001  1.0000
  S   S134      1.0  0.92476  0.37351  0.11499  1.0000
  S   S135      1.0  0.84606  0.37509  0.08616  1.0000
  Fe  Fe68      1.0  0.88440  0.34447  0.17899  1.0000
  S   S136      1.0  0.93118  0.34911  0.17783  1.0000
  S   S137      1.0  0.86291  0.31882  0.21277  1.0000
  Fe  Fe69      1.0  0.92350  0.39093  0.15771  1.0000
  S   S138      1.0  0.95472  0.42516  0.16862  1.0000
  Fe  Fe70      1.0  0.92890  0.33140  0.13540  1.0000
  S   S139      1.0  0.96271  0.30083  0.12237  1.0000
  S   S140      1.0  0.87640  0.38801  0.16194  1.0000
  S   S141      1.0  0.88268  0.32384  0.13738  1.0000
  C   C572      1.0  0.94282  0.20690  0.11391  1.0000
  C   C573      1.0  0.92105  0.22670  0.11365  1.0000
  C   C574      1.0  0.92686  0.25555  0.11677  1.0000
  C   C575      1.0  0.95457  0.26478  0.11938  1.0000
  H   H1009     1.0  0.49612  0.41875  0.09117  1.0000
  C   C576      1.0  0.97051  0.21608  0.11703  1.0000
  H   H1010     1.0  0.89960  0.21966  0.11115  1.0000
  H   H1011     1.0  0.90995  0.27063  0.11672  1.0000
  C   C577      1.0  0.53620  0.28525  0.15460  1.0000
  H   H1012     1.0  0.96657  0.10004  0.04053  1.0000
  C   C578      1.0  0.94065  0.01505  0.17296  1.0000
  S   S142      1.0  0.96857  0.12317  0.16450  1.0000
  C   C579      1.0  0.91999  0.47013  0.15793  1.0000
  C   C580      1.0  0.94750  0.46014  0.15902  1.0000
  H   H1013     1.0  0.94177  0.22269  0.05216  1.0000
  H   H1014     1.0  0.74854  0.31376  0.24381  1.0000
  C   C581      1.0  0.53705  0.05727  0.29612  1.0000
  H   H1015     1.0  0.90265  0.45588  0.16159  1.0000
  C   C582      1.0  0.96987  0.47886  0.15452  1.0000
  H   H1016     1.0  0.63808  0.09208  0.03078  1.0000
  C   C583      1.0  0.94912  0.32824  0.05547  1.0000
  H   H1017     1.0  0.55225  0.21263  0.22209  1.0000
  H   H1018     1.0  0.49695  0.45543  0.10065  1.0000
  C   C584      1.0  0.78958  0.37005  0.31871  1.0000
  H   H1019     1.0  0.72761  0.27596  0.29239  1.0000
  H   H1020     1.0  0.56166  0.06657  0.26079  1.0000
  C   C585      1.0  0.85371  0.38794  0.05279  1.0000
  H   H1021     1.0  0.91929  0.29638  0.29331  1.0000
  H   H1022     1.0  0.89754  0.39545  0.06012  1.0000
  H   H1023     1.0  0.81107  0.38318  0.03886  1.0000
  C   C586      1.0  0.54611  0.15654  0.26428  1.0000
  C   C587      1.0  0.52409  0.14788  0.24704  1.0000
  C   C588      1.0  0.52816  0.14494  0.21862  1.0000
  C   C589      1.0  0.55450  0.15005  0.20713  1.0000
  C   C590      1.0  0.57657  0.15878  0.22432  1.0000
  C   C591      1.0  0.57239  0.16217  0.25276  1.0000
  H   H1024     1.0  0.95765  0.26494  0.31772  1.0000
  H   H1025     1.0  0.97576  0.02218  0.08229  1.0000
  H   H1026     1.0  0.59703  0.16292  0.21562  1.0000
  H   H1027     1.0  0.58954  0.16881  0.26578  1.0000
  C   C592      1.0  0.86063  0.33438  0.30581  1.0000
  C   C593      1.0  0.86767  0.35648  0.28790  1.0000
  C   C594      1.0  0.86942  0.35193  0.25941  1.0000
  C   C595      1.0  0.86401  0.32519  0.24854  1.0000
  C   C596      1.0  0.85772  0.30293  0.26652  1.0000
  C   C597      1.0  0.85624  0.30744  0.29502  1.0000
  H   H1028     1.0  0.87131  0.37738  0.29606  1.0000
  H   H1029     1.0  0.87426  0.36926  0.24582  1.0000
  H   H1030     1.0  0.85373  0.28213  0.25830  1.0000
  H   H1031     1.0  0.85135  0.29018  0.30863  1.0000
  H   H1032     1.0  0.98524  0.26879  0.17182  1.0000
  C   C598      1.0  0.53913  0.06338  0.26549  1.0000
  H   H1033     1.0  0.89930  0.30317  0.07271  1.0000
  S   S143      1.0  0.95750  0.09473  0.10406  1.0000
  H   H1034     1.0  0.54224  0.19796  0.13084  1.0000
  H   H1035     1.0  0.55884  0.20649  0.17788  1.0000
  C   C599      1.0  0.51516  0.26032  0.15699  1.0000
  H   H1036     1.0  0.51092  0.13875  0.20556  1.0000
  H   H1037     1.0  0.55629  0.27836  0.14539  1.0000
  C   C600      1.0  0.52428  0.49089  0.23536  1.0000
  C   C601      1.0  0.78099  0.29059  0.20479  1.0000
  H   H1038     1.0  0.50740  0.25794  0.20966  1.0000
  H   H1039     1.0  0.54609  0.07525  0.30782  1.0000
  H   H1040     1.0  0.80139  0.31197  0.23779  1.0000
  H   H1041     1.0  0.58698  0.20141  0.10667  1.0000
  H   H1042     1.0  0.56410  0.08887  0.22181  1.0000
  H   H1043     1.0  0.94077  0.33402  0.01312  1.0000
  H   H1044     1.0  0.92901  0.07796  0.24154  1.0000
  H   H1045     1.0  0.54406  0.26133  0.20604  1.0000
  H   H1046     1.0  0.54057  0.29466  0.17495  1.0000
  H   H1047     1.0  0.99300  0.05214  0.20238  1.0000
  C   C602      1.0  0.96903  0.46908  0.23515  1.0000
  C   C603      1.0  0.50530  0.06900  0.21260  1.0000
  H   H1048     1.0  0.74728  0.27699  0.24861  1.0000
  Fe  Fe71      1.0  0.96350  0.07975  0.14697  1.0000
  H   H1049     1.0  0.55332  0.44315  0.21624  1.0000
  C   C604      1.0  0.58583  0.20849  0.12832  1.0000
  H   H1050     1.0  0.98263  0.35449  0.03870  1.0000
  C   C605      1.0  0.62903  0.07058  0.03263  1.0000
  N   N31       1.0  0.96867  0.26860  0.21314  1.0000
  C   C606      1.0  0.92815  0.16662  0.28600  1.0000
  C   C607      1.0  0.95975  0.29053  0.23378  1.0000
  C   C608      1.0  0.94396  0.25193  0.20256  1.0000
  C   C609      1.0  0.98226  0.28346  0.18932  1.0000
  H   H1051     1.0  0.60206  0.09935  0.18949  1.0000
  H   H1052     1.0  0.90766  0.40984  0.01220  1.0000
  C   C610      1.0  0.91986  0.26955  0.18996  1.0000
  C   C611      1.0  0.94018  0.28012  0.25706  1.0000
  C   C612      1.0  0.93393  0.30395  0.27723  1.0000
  H   H1053     1.0  0.88270  0.33418  0.06217  1.0000
  H   H1054     1.0  0.93254  0.14428  0.24749  1.0000
  C   C613      1.0  0.89444  0.25109  0.18338  1.0000
  H   H1055     1.0  0.54890  0.03793  0.30144  1.0000
  H   H1056     1.0  0.89678  0.14829  0.25863  1.0000
  H   H1057     1.0  0.97846  0.30006  0.24381  1.0000
  H   H1058     1.0  0.94915  0.30854  0.22350  1.0000
  H   H1059     1.0  0.93516  0.23826  0.21896  1.0000
  H   H1060     1.0  0.95073  0.23715  0.18612  1.0000
  C   C614      1.0  0.68772  0.31453  0.30671  1.0000
  H   H1061     1.0  0.96808  0.30002  0.18128  1.0000
  H   H1062     1.0  0.50967  0.23594  0.31145  1.0000
  N   N32       1.0  0.52455  0.23595  0.17451  1.0000
  H   H1063     1.0  0.50367  0.14367  0.25576  1.0000
  H   H1064     1.0  0.98913  0.13974  0.27081  1.0000
  H   H1065     1.0  0.92681  0.27966  0.17069  1.0000
  H   H1066     1.0  0.91277  0.28641  0.20392  1.0000
  C   C615      1.0  0.88871  0.03864  0.07744  1.0000
  H   H1067     1.0  0.75903  0.24192  0.30394  1.0000
  H   H1068     1.0  0.92815  0.18712  0.27501  1.0000
  H   H1069     1.0  0.79551  0.32649  0.32816  1.0000
  H   H1070     1.0  0.54207  0.02071  0.25179  1.0000
  H   H1071     1.0  0.93841  0.32643  0.07543  1.0000
  H   H1072     1.0  0.51479  0.05471  0.30235  1.0000
  H   H1073     1.0  0.87211  0.02841  0.08985  1.0000
  H   H1074     1.0  0.92279  0.22330  0.30931  1.0000
  H   H1075     1.0  0.76472  0.34543  0.27568  1.0000
  H   H1076     1.0  0.52097  0.30065  0.11533  1.0000
  H   H1077     1.0  0.88534  0.24231  0.20248  1.0000
  H   H1078     1.0  0.87816  0.26402  0.17312  1.0000
  H   H1079     1.0  0.90037  0.23356  0.16949  1.0000
  C   C616      1.0  0.88722  0.31224  0.05547  1.0000
  H   H1080     1.0  0.87396  0.34272  0.01360  1.0000
  C   C617      1.0  0.91491  0.28374  0.02140  1.0000
  C   C618      1.0  0.84647  0.29038  0.08193  1.0000
  H   H1081     1.0  0.50998  0.25303  0.13602  1.0000
  H   H1082     1.0  0.79988  0.27426  0.24113  1.0000
  H   H1083     1.0  0.49814  0.20883  0.33452  1.0000
  H   H1084     1.0  0.75957  0.33808  0.32849  1.0000
  C   C619      1.0  0.83215  0.38922  0.03314  1.0000
  H   H1085     1.0  0.59301  0.19092  0.14156  1.0000
  H   H1086     1.0  0.60008  0.22683  0.13104  1.0000
  C   C620      1.0  0.53175  0.22290  0.22559  1.0000
  S   S144      1.0  0.56658  0.22774  0.33829  1.0000
  C   C621      1.0  0.55566  0.21658  0.13525  1.0000
  H   H1087     1.0  0.86659  0.07850  0.07956  1.0000
  C   C622      1.0  0.77973  0.33941  0.31730  1.0000
  H   H1088     1.0  0.98742  0.20094  0.11701  1.0000
  H   H1089     1.0  0.98132  0.01670  0.15399  1.0000
  H   H1090     1.0  0.81911  0.23170  0.28318  1.0000
  H   H1091     1.0  0.93326  0.03810  0.07092  1.0000
  H   H1092     1.0  0.91945  0.12288  0.27517  1.0000
  H   H1093     1.0  0.96070  0.09858  0.24489  1.0000
  H   H1094     1.0  0.72185  0.34083  0.29422  1.0000
  H   H1095     1.0  0.78709  0.28198  0.31722  1.0000
  H   H1096     1.0  0.93542  0.08116  0.03038  1.0000
  H   H1097     1.0  0.51200  0.24546  0.25934  1.0000
  H   H1098     1.0  0.91941  0.35501  0.03481  1.0000
  C   C623      1.0  0.98883  0.24864  0.22683  1.0000
  H   H1099     1.0  0.90264  0.25567  0.05530  1.0000
  C   C624      1.0  0.95073  0.08075  0.23381  1.0000
  H   H1100     1.0  0.98556  0.24108  0.32749  1.0000
  C   C625      1.0  0.91853  0.14410  0.26566  1.0000
  C   C626      1.0  0.54628  0.07195  0.01887  1.0000
  H   H1101     1.0  0.55143  0.08970  0.18733  1.0000
  H   H1102     1.0  0.86070  0.27631  0.04245  1.0000
  H   H1103     1.0  0.89252  0.07384  0.10599  1.0000
  C   C627      1.0  0.95240  0.09529  0.02304  1.0000
  C   C628      1.0  0.92794  0.33341  0.03210  1.0000
  Fe  Fe72      1.0  0.96645  0.13786  0.12091  1.0000
  H   H1104     1.0  0.84317  0.30981  0.04263  1.0000
  C   C629      1.0  0.78773  0.29321  0.23527  1.0000
  H   H1105     1.0  0.96148  0.30895  0.05139  1.0000
  C   C630      1.0  0.93767  0.23720  0.03477  1.0000
  H   H1106     1.0  0.50081  0.20668  0.14948  1.0000
  H   H1107     1.0  0.80086  0.28876  0.19303  1.0000
  H   H1108     1.0  0.80619  0.28254  0.28636  1.0000
  H   H1109     1.0  0.98965  0.49641  0.26379  1.0000
  H   H1110     1.0  0.97834  0.06170  0.00912  1.0000
  H   H1111     1.0  0.84236  0.31040  0.09299  1.0000
  H   H1112     1.0  0.59520  0.06737  0.17075  1.0000
  H   H1113     1.0  0.51179  0.19257  0.18106  1.0000
  H   H1114     1.0  0.53648  0.21855  0.26951  1.0000
  H   H1115     1.0  0.54715  0.48960  0.23976  1.0000
  C   C631      1.0  0.73697  0.29690  0.29727  1.0000
  C   C632      1.0  0.52740  0.03851  0.24831  1.0000
  H   H1116     1.0  0.53977  0.32634  0.13541  1.0000
  H   H1117     1.0  0.88792  0.17541  0.30271  1.0000
  H   H1118     1.0  0.86103  0.27713  0.09410  1.0000
  C   C633      1.0  0.92209  0.26317  0.04515  1.0000
  C   C634      1.0  0.76057  0.29587  0.25263  1.0000
  H   H1119     1.0  0.76802  0.27156  0.20078  1.0000
  C   C635      1.0  0.77695  0.24763  0.29050  1.0000
  H   H1120     1.0  0.67125  0.32947  0.29993  1.0000
  C   C636      1.0  0.77694  0.32941  0.28721  1.0000
  H   H1121     1.0  0.95815  0.24334  0.02570  1.0000
  C   C637      1.0  0.80156  0.22852  0.29781  1.0000
  H   H1122     1.0  0.99304  0.46403  0.01616  1.0000
  C   C638      1.0  0.97009  0.35257  0.05775  1.0000
  H   H1123     1.0  0.69194  0.31843  0.32874  1.0000
  H   H1124     1.0  0.79287  0.37619  0.34043  1.0000
  H   H1125     1.0  0.92392  0.32195  0.26652  1.0000
  C   C639      1.0  0.97638  0.24502  0.11934  1.0000
  H   H1126     1.0  0.60710  0.07258  0.04004  1.0000
  H   H1127     1.0  0.49662  0.02146  0.12066  1.0000
  H   H1128     1.0  0.97809  0.23668  0.24334  1.0000
  H   H1129     1.0  0.80980  0.37276  0.30773  1.0000
  H   H1130     1.0  0.77101  0.24289  0.26906  1.0000
  C   C640      1.0  0.88782  0.07012  0.08397  1.0000
  S   S145      1.0  0.93473  0.17105  0.10920  1.0000
  C   C641      1.0  0.71439  0.31911  0.28997  1.0000
  H   H1131     1.0  0.93525  0.27315  0.06106  1.0000
  H   H1132     1.0  0.91977  0.27264  0.24887  1.0000
  C   C642      1.0  0.55297  0.22537  0.16576  1.0000
  H   H1133     1.0  0.87999  0.21249  0.33348  1.0000
  N   N33       1.0  0.91737  0.18669  0.33505  1.0000
  H   H1134     1.0  0.50555  0.02250  0.18323  1.0000
  C   C643      1.0  0.52653  0.24600  0.20377  1.0000
  H   H1135     1.0  0.76974  0.30960  0.19745  1.0000
  C   C644      1.0  0.50365  0.21220  0.17147  1.0000
  H   H1136     1.0  0.79847  0.33070  0.27850  1.0000
  H   H1137     1.0  0.51512  0.20655  0.22530  1.0000
  H   H1138     1.0  0.95907  0.37277  0.06168  1.0000
  N   N34       1.0  0.52384  0.04383  0.21807  1.0000
  H   H1139     1.0  0.98458  0.34857  0.07513  1.0000
  C   C645      1.0  0.55211  0.04727  0.20426  1.0000
  H   H1140     1.0  0.96146  0.14483  0.33135  1.0000
  H   H1141     1.0  0.95394  0.20356  0.31423  1.0000
  H   H1142     1.0  0.99119  0.47120  0.15539  1.0000
  H   H1143     1.0  0.98654  0.21066  0.20091  1.0000
  C   C646      1.0  0.93483  0.21114  0.32486  1.0000
  C   C647      1.0  0.56423  0.07751  0.20205  1.0000
  H   H1144     1.0  0.70863  0.31756  0.26801  1.0000
  H   H1145     1.0  0.60830  0.06582  0.20562  1.0000
  C   C648      1.0  0.52456  0.30861  0.13644  1.0000
  H   H1146     1.0  0.95606  0.47036  0.21631  1.0000
  H   H1147     1.0  0.93288  0.00430  0.03708  1.0000
  H   H1148     1.0  0.66953  0.03642  0.00868  1.0000
  H   H1149     1.0  0.56814  0.03388  0.21447  1.0000
  H   H1150     1.0  0.55118  0.03963  0.18264  1.0000
  H   H1151     1.0  0.50222  0.07159  0.19013  1.0000
  H   H1152     1.0  0.98754  0.00192  0.24119  1.0000
  C   C649      1.0  0.51751  0.47112  0.21090  1.0000
  H   H1153     1.0  0.80912  0.23311  0.31884  1.0000
  H   H1154     1.0  0.54957  0.23384  0.12122  1.0000
  N   N35       1.0  0.76480  0.30029  0.28298  1.0000
  H   H1155     1.0  0.73979  0.29662  0.31990  1.0000
  H   H1156     1.0  0.94993  0.26265  0.26862  1.0000
  H   H1157     1.0  0.56009  0.02946  0.01121  1.0000
  H   H1158     1.0  0.82627  0.27890  0.07973  1.0000
  H   H1159     1.0  0.52770  0.08329  0.26176  1.0000
  C   C650      1.0  0.59431  0.07732  0.19133  1.0000
  C   C651      1.0  0.78489  0.27905  0.29470  1.0000
  H   H1160     1.0  0.56960  0.24112  0.17053  1.0000
  H   H1161     1.0  0.94998  0.16184  0.29190  1.0000
  H   H1162     1.0  0.52587  0.47948  0.19137  1.0000
  H   H1163     1.0  0.79478  0.20613  0.29692  1.0000
  C   C652      1.0  0.96682  0.25274  0.33481  1.0000
  H   H1164     1.0  0.92382  0.03183  0.10520  1.0000
  H   H1165     1.0  0.67958  0.29271  0.30408  1.0000
  H   H1166     1.0  0.89299  0.00691  0.12882  1.0000
  N   N36       1.0  0.90408  0.31259  0.02930  1.0000
  H   H1167     1.0  0.53357  0.11537  0.01957  1.0000
  H   H1168     1.0  0.64111  0.05837  0.04798  1.0000
  H   H1169     1.0  0.51398  0.48121  0.25348  1.0000
  H   H1170     1.0  0.95349  0.31142  0.28728  1.0000
  H   H1171     1.0  0.88343  0.03592  0.05548  1.0000
  H   H1172     1.0  0.90324  0.08186  0.07131  1.0000
  C   C653      1.0  0.91804  0.02617  0.08376  1.0000
  S   S146      1.0  0.85678  0.34147  0.34130  1.0000
  H   H1173     1.0  0.92493  0.22577  0.01926  1.0000
  C   C654      1.0  0.90836  0.16813  0.31124  1.0000
  H   H1174     1.0  0.77369  0.38427  0.30957  1.0000
  H   H1175     1.0  0.52180  0.43213  0.23412  1.0000
  C   C655      1.0  0.96608  0.00355  0.16426  1.0000
  H   H1176     1.0  0.98719  0.45504  0.23121  1.0000
  H   H1177     1.0  0.52426  0.42812  0.19755  1.0000
  H   H1178     1.0  0.90130  0.00668  0.19306  1.0000
  C   C656      1.0  0.50966  0.01847  0.20536  1.0000
  H   H1179     1.0  0.94325  0.11544  0.01578  1.0000
  H   H1180     1.0  0.96869  0.05051  0.26079  1.0000
  Fe  Fe73      1.0  0.56457  0.18056  0.33433  1.0000
  H   H1181     1.0  0.95528  0.03594  0.22951  1.0000
  H   H1182     1.0  0.50720  0.03144  0.25746  1.0000
  C   C657      1.0  0.88648  0.40422  0.01798  1.0000
  H   H1183     1.0  0.54946  0.25141  0.25621  1.0000
  C   C658      1.0  0.53009  0.44189  0.21510  1.0000
  H   H1184     1.0  0.94964  0.08592  0.21170  1.0000
  C   C659      1.0  0.53242  0.23551  0.25437  1.0000
  H   H1185     1.0  0.49732  0.44544  0.06491  1.0000
  H   H1186     1.0  0.50451  0.31677  0.14485  1.0000
  C   C660      1.0  0.97522  0.99929  0.07766  1.0000
  H   H1187     1.0  0.89936  0.27232  0.00842  1.0000
  H   H1188     1.0  0.93387  0.28586  0.00825  1.0000
  Fe  Fe74      1.0  0.72189  0.39652  0.63198  1.0000
  S   S147      1.0  0.76825  0.40203  0.63746  1.0000
  S   S148      1.0  0.69045  0.42783  0.61516  1.0000
  Fe  Fe75      1.0  0.72274  0.33632  0.65469  1.0000
  H   H1189     1.0  0.93397  0.18157  0.37605  1.0000
  H   H1190     1.0  0.54746  0.26685  0.45134  1.0000
  H   H1191     1.0  0.62034  0.46403  0.53258  1.0000
  Fe  Fe76      1.0  0.77183  0.35771  0.62105  1.0000
  S   S149      1.0  0.80459  0.34152  0.59078  1.0000
  H   H1192     1.0  0.58241  0.26084  0.46388  1.0000
  S   S150      1.0  0.72596  0.35391  0.61224  1.0000
  Fe  Fe77      1.0  0.67746  0.07889  0.60660  1.0000
  S   S151      1.0  0.63060  0.08221  0.60163  1.0000
  S   S152      1.0  0.70597  0.04195  0.59652  1.0000
  Fe  Fe78      1.0  0.68302  0.13901  0.62876  1.0000
  S   S153      1.0  0.63678  0.14625  0.62649  1.0000
  S   S154      1.0  0.71599  0.17087  0.64210  1.0000
  Fe  Fe79      1.0  0.63232  0.10241  0.64352  1.0000
  Fe  Fe80      1.0  0.63901  0.12579  0.58478  1.0000
  S   S155      1.0  0.61754  0.15251  0.55185  1.0000
  S   S156      1.0  0.67860  0.09668  0.64922  1.0000
  S   S157      1.0  0.68583  0.12086  0.58644  1.0000
  Fe  Fe81      1.0  0.81187  0.30412  0.42890  1.0000
  S   S158      1.0  0.81390  0.25695  0.42724  1.0000
  S   S159      1.0  0.78656  0.32695  0.46187  1.0000
  H   H1193     1.0  0.97746  0.15662  0.39115  1.0000
  C   C661      1.0  0.73084  0.22568  0.65260  1.0000
  Fe  Fe82      1.0  0.80048  0.26080  0.38355  1.0000
  H   H1194     1.0  0.69198  0.19622  0.47704  1.0000
  Fe  Fe83      1.0  0.85751  0.26276  0.41089  1.0000
  S   S160      1.0  0.88923  0.23038  0.42453  1.0000
  S   S161      1.0  0.79513  0.30767  0.38571  1.0000
  S   S162      1.0  0.85692  0.30992  0.41598  1.0000
  S   S163      1.0  0.51986  0.25257  0.39946  1.0000
  H   H1195     1.0  0.86232  0.22847  0.50292  1.0000
  Fe  Fe84      1.0  0.58937  0.17197  0.39215  1.0000
  S   S164      1.0  0.59278  0.21828  0.39991  1.0000
  S   S165      1.0  0.60256  0.13828  0.42283  1.0000
  Fe  Fe85      1.0  0.55015  0.22144  0.38080  1.0000
  H   H1196     1.0  0.52765  0.12912  0.46844  1.0000
  Fe  Fe86      1.0  0.60914  0.22087  0.35698  1.0000
  H   H1197     1.0  0.72584  0.19255  0.34888  1.0000
  S   S166      1.0  0.54518  0.17479  0.37618  1.0000
  H   H1198     1.0  0.93257  0.35757  0.40916  1.0000
  C   C662      1.0  0.73594  0.23471  0.36216  1.0000
  C   C663      1.0  0.72537  0.26155  0.36758  1.0000
  H   H1199     1.0  0.65496  0.25411  0.64968  1.0000
  C   C664      1.0  0.68493  0.13870  0.41197  1.0000
  H   H1200     1.0  0.68258  0.13381  0.36760  1.0000
  H   H1201     1.0  0.65594  0.01233  0.61625  1.0000
  H   H1202     1.0  0.51201  0.18198  0.43501  1.0000
  H   H1203     1.0  0.54015  0.12844  0.41940  1.0000
  S   S167      1.0  0.60873  0.17391  0.34992  1.0000
  C   C665      1.0  0.71981  0.47679  0.62786  1.0000
  C   C666      1.0  0.92503  0.23668  0.41873  1.0000
  C   C667      1.0  0.93451  0.26298  0.40989  1.0000
  C   C668      1.0  0.96339  0.26800  0.40697  1.0000
  C   C669      1.0  0.98277  0.24630  0.41139  1.0000
  C   C670      1.0  0.97319  0.21965  0.41927  1.0000
  C   C671      1.0  0.94439  0.21504  0.42348  1.0000
  H   H1204     1.0  0.91962  0.27945  0.40544  1.0000
  H   H1205     1.0  0.65250  0.47269  0.60549  1.0000
  H   H1206     1.0  0.68101  0.44212  0.53102  1.0000
  H   H1207     1.0  0.93712  0.19463  0.43037  1.0000
  C   C672      1.0  0.61559  0.14812  0.51583  1.0000
  C   C673      1.0  0.61656  0.12157  0.50343  1.0000
  C   C674      1.0  0.61281  0.11898  0.47489  1.0000
  C   C675      1.0  0.60791  0.14280  0.45850  1.0000
  C   C676      1.0  0.60746  0.16939  0.47082  1.0000
  C   C677      1.0  0.61118  0.17199  0.49935  1.0000
  H   H1208     1.0  0.61971  0.10301  0.51588  1.0000
  H   H1209     1.0  0.61329  0.09831  0.46553  1.0000
  H   H1210     1.0  0.60415  0.18787  0.45838  1.0000
  H   H1211     1.0  0.61038  0.19260  0.50879  1.0000
  C   C678      1.0  0.79914  0.33781  0.55498  1.0000
  C   C679      1.0  0.77478  0.34739  0.54210  1.0000
  C   C680      1.0  0.77151  0.34422  0.51356  1.0000
  C   C681      1.0  0.79239  0.33128  0.49758  1.0000
  C   C682      1.0  0.81671  0.32162  0.51049  1.0000
  C   C683      1.0  0.81995  0.32477  0.53905  1.0000
  H   H1212     1.0  0.75861  0.35752  0.55406  1.0000
  H   H1213     1.0  0.75263  0.35181  0.50379  1.0000
  H   H1214     1.0  0.83287  0.31170  0.49844  1.0000
  H   H1215     1.0  0.83854  0.31693  0.54904  1.0000
  H   H1216     1.0  0.96163  0.12443  0.37832  1.0000
  C   C684      1.0  0.67621  0.24622  0.65040  1.0000
  C   C685      1.0  0.68122  0.21729  0.64643  1.0000
  C   C686      1.0  0.70861  0.20693  0.64739  1.0000
  H   H1217     1.0  0.55717  0.13172  0.52959  1.0000
  S   S168      1.0  0.69103  0.30099  0.66098  1.0000
  C   C687      1.0  0.72585  0.25466  0.65629  1.0000
  H   H1218     1.0  0.97490  0.27818  0.52146  1.0000
  S   S169      1.0  0.77169  0.22708  0.36664  1.0000
  H   H1219     1.0  0.97077  0.30304  0.47906  1.0000
  C   C688      1.0  0.69465  0.46457  0.61896  1.0000
  H   H1220     1.0  0.74307  0.26889  0.66052  1.0000
  H   H1221     1.0  0.70648  0.12828  0.51283  1.0000
  C   C689      1.0  0.51789  0.12674  0.42588  1.0000
  C   C690      1.0  0.69008  0.17822  0.46249  1.0000
  H   H1222     1.0  0.94666  0.32328  0.52647  1.0000
  H   H1223     1.0  0.73735  0.46347  0.63322  1.0000
  C   C691      1.0  0.65784  0.25838  0.43388  1.0000
  N   N37       1.0  0.69862  0.18694  0.43387  1.0000
  C   C692      1.0  0.67148  0.12627  0.38620  1.0000
  H   H1224     1.0  0.70323  0.23049  0.44671  1.0000
  H   H1225     1.0  0.65397  0.49345  0.66887  1.0000
  C   C693      1.0  0.92748  0.31077  0.52148  1.0000
  H   H1226     1.0  0.75012  0.22329  0.43553  1.0000
  C   C694      1.0  0.69269  0.21802  0.43035  1.0000
  H   H1227     1.0  0.78756  0.18991  0.42240  1.0000
  C   C695      1.0  0.90180  0.32720  0.53258  1.0000
  H   H1228     1.0  0.66612  0.26547  0.45400  1.0000
  C   C696      1.0  0.72942  0.18263  0.42809  1.0000
  C   C697      1.0  0.54046  0.14288  0.54111  1.0000
  H   H1229     1.0  0.90900  0.36937  0.43552  1.0000
  C   C698      1.0  0.90317  0.33048  0.56368  1.0000
  C   C699      1.0  0.67840  0.24561  0.35509  1.0000
  H   H1230     1.0  0.68661  0.17944  0.39189  1.0000
  H   H1231     1.0  0.92929  0.29151  0.53411  1.0000
  C   C700      1.0  0.74140  0.00377  0.52446  1.0000
  H   H1232     1.0  0.67410  0.12932  0.42993  1.0000
  H   H1233     1.0  0.94905  0.25231  0.51213  1.0000
  C   C701      1.0  0.53190  0.17825  0.50297  1.0000
  C   C702      1.0  0.66137  0.22658  0.43051  1.0000
  H   H1234     1.0  0.55021  0.15982  0.55368  1.0000
  C   C703      1.0  0.93251  0.16962  0.35648  1.0000
  C   C704      1.0  0.70660  0.15360  0.47577  1.0000
  H   H1235     1.0  0.90082  0.34869  0.52374  1.0000
  H   H1236     1.0  0.88208  0.31593  0.52771  1.0000
  H   H1237     1.0  0.75670  0.02133  0.52238  1.0000
  H   H1238     1.0  0.65882  0.17458  0.41563  1.0000
  H   H1239     1.0  0.79371  0.20445  0.45599  1.0000
  H   H1240     1.0  0.78070  0.16900  0.45275  1.0000
  H   H1241     1.0  0.51232  0.10403  0.42699  1.0000
  C   C705      1.0  0.55982  0.25708  0.46808  1.0000
  H   H1242     1.0  0.55433  0.26740  0.48777  1.0000
  H   H1243     1.0  0.63524  0.26382  0.43271  1.0000
  H   H1244     1.0  0.97076  0.28859  0.40069  1.0000
  S   S170      1.0  0.84431  0.26330  0.36689  1.0000
  H   H1245     1.0  0.90290  0.30953  0.57381  1.0000
  H   H1246     1.0  0.92241  0.34213  0.56982  1.0000
  H   H1247     1.0  0.88462  0.34250  0.57092  1.0000
  C   C706      1.0  0.68169  0.17113  0.41264  1.0000
  C   C707      1.0  0.86491  0.25008  0.49460  1.0000
  H   H1248     1.0  0.53672  0.19590  0.51734  1.0000
  H   H1249     1.0  0.72841  0.16020  0.48048  1.0000
  H   H1250     1.0  0.66740  0.17249  0.46289  1.0000
  H   H1251     1.0  0.65795  0.44175  0.56038  1.0000
  H   H1252     1.0  0.67236  0.13475  0.49870  1.0000
  Fe  Fe87      1.0  0.84038  0.30989  0.37254  1.0000
  C   C708      1.0  0.65552  0.49465  0.53485  1.0000
  H   H1253     1.0  0.65176  0.22074  0.41059  1.0000
  H   H1254     1.0  0.73922  0.27811  0.37466  1.0000
  H   H1255     1.0  0.69062  0.16246  0.51691  1.0000
  H   H1256     1.0  0.73392  0.18649  0.40600  1.0000
  H   H1257     1.0  0.73569  0.16047  0.43152  1.0000
  C   C709      1.0  0.69317  0.14436  0.50270  1.0000
  C   C710      1.0  0.69671  0.26702  0.36382  1.0000
  C   C711      1.0  0.51876  0.15504  0.52138  1.0000
  C   C712      1.0  0.74977  0.20179  0.44458  1.0000
  C   C713      1.0  0.77973  0.19049  0.44383  1.0000
  H   H1258     1.0  0.66896  0.26978  0.41724  1.0000
  N   N38       1.0  0.73432  0.25895  0.56501  1.0000
  C   C714      1.0  0.74927  0.24652  0.54065  1.0000
  C   C715      1.0  0.71721  0.23601  0.57837  1.0000
  C   C716      1.0  0.71592  0.28281  0.55531  1.0000
  C   C717      1.0  0.75478  0.27068  0.58572  1.0000
  C   C718      1.0  0.77786  0.25015  0.59579  1.0000
  C   C719      1.0  0.77054  0.26623  0.52622  1.0000
  C   C720      1.0  0.69350  0.29326  0.57599  1.0000
  C   C721      1.0  0.69450  0.22220  0.55991  1.0000
  C   C722      1.0  0.67467  0.20374  0.57659  1.0000
  C   C723      1.0  0.79821  0.26496  0.61527  1.0000
  C   C724      1.0  0.78331  0.25197  0.50109  1.0000
  C   C725      1.0  0.67823  0.31920  0.56508  1.0000
  H   H1259     1.0  0.73382  0.24017  0.52471  1.0000
  H   H1260     1.0  0.76021  0.22670  0.54639  1.0000
  H   H1261     1.0  0.73086  0.21845  0.58527  1.0000
  H   H1262     1.0  0.70727  0.24393  0.59746  1.0000
  H   H1263     1.0  0.70485  0.27713  0.53601  1.0000
  H   H1264     1.0  0.72902  0.30145  0.54986  1.0000
  H   H1265     1.0  0.76535  0.28993  0.57768  1.0000
  H   H1266     1.0  0.74346  0.27802  0.60429  1.0000
  H   H1267     1.0  0.79040  0.24170  0.57858  1.0000
  H   H1268     1.0  0.76851  0.23217  0.60702  1.0000
  H   H1269     1.0  0.76002  0.28566  0.51913  1.0000
  H   H1270     1.0  0.78796  0.27217  0.54014  1.0000
  H   H1271     1.0  0.70313  0.29886  0.59591  1.0000
  H   H1272     1.0  0.67739  0.27682  0.57982  1.0000
  H   H1273     1.0  0.68159  0.23804  0.54910  1.0000
  H   H1274     1.0  0.70457  0.20850  0.54434  1.0000
  H   H1275     1.0  0.66225  0.21681  0.59099  1.0000
  H   H1276     1.0  0.65992  0.19285  0.56259  1.0000
  H   H1277     1.0  0.68650  0.18758  0.58822  1.0000
  H   H1278     1.0  0.78681  0.27477  0.63264  1.0000
  H   H1279     1.0  0.81335  0.24947  0.62363  1.0000
  H   H1280     1.0  0.81017  0.28152  0.60423  1.0000
  H   H1281     1.0  0.79865  0.26642  0.49132  1.0000
  H   H1282     1.0  0.79435  0.23232  0.50695  1.0000
  H   H1283     1.0  0.76677  0.24714  0.48578  1.0000
  H   H1284     1.0  0.66665  0.31396  0.54601  1.0000
  H   H1285     1.0  0.66300  0.32670  0.58065  1.0000
  H   H1286     1.0  0.69330  0.33656  0.56086  1.0000
  C   C726      1.0  0.52166  0.17204  0.45337  1.0000
  H   H1287     1.0  0.74313  0.20371  0.46625  1.0000
  H   H1288     1.0  0.51500  0.23255  0.49102  1.0000
  H   H1289     1.0  0.94360  0.34594  0.48427  1.0000
  C   C727      1.0  0.69848  0.26503  0.65523  1.0000
  C   C728      1.0  0.55416  0.22541  0.46954  1.0000
  H   H1290     1.0  0.89910  0.26118  0.52045  1.0000
  C   C729      1.0  0.92970  0.35944  0.43166  1.0000
  H   H1291     1.0  0.55858  0.18404  0.66043  1.0000
  H   H1292     1.0  0.64973  0.21594  0.44725  1.0000
  H   H1293     1.0  0.55263  0.17045  0.49583  1.0000
  N   N39       1.0  0.92696  0.30398  0.49125  1.0000
  H   H1294     1.0  0.54461  0.17267  0.44926  1.0000
  H   H1295     1.0  0.53026  0.12752  0.55508  1.0000
  H   H1296     1.0  0.94964  0.27670  0.46347  1.0000
  H   H1297     1.0  0.70170  0.22580  0.41073  1.0000
  H   H1298     1.0  0.56134  0.21603  0.45004  1.0000
  H   H1299     1.0  0.56719  0.21694  0.48639  1.0000
  H   H1300     1.0  0.64938  0.42124  0.53049  1.0000
  H   H1301     1.0  0.70712  0.13200  0.41192  1.0000
  H   H1302     1.0  0.70763  0.13495  0.46223  1.0000
  C   C730      1.0  0.90093  0.28783  0.48303  1.0000
  S   S171      1.0  0.71476  0.37873  0.67384  1.0000
  C   C731      1.0  0.58018  0.17616  0.66393  1.0000
  H   H1303     1.0  0.66393  0.20305  0.64261  1.0000
  H   H1304     1.0  0.88204  0.30141  0.48476  1.0000
  C   C732      1.0  0.52249  0.21913  0.47377  1.0000
  H   H1305     1.0  0.74460  0.03813  0.64826  1.0000
  H   H1306     1.0  0.82796  0.17303  0.37585  1.0000
  H   H1307     1.0  0.72733  0.00868  0.54198  1.0000
  H   H1308     1.0  0.58063  0.15336  0.65869  1.0000
  H   H1309     1.0  0.59464  0.18786  0.65018  1.0000
  N   N40       1.0  0.51477  0.18864  0.47886  1.0000
  H   H1310     1.0  0.68856  0.28780  0.36809  1.0000
  H   H1311     1.0  0.64289  0.46424  0.50309  1.0000
  H   H1312     1.0  0.51195  0.22719  0.45505  1.0000
  H   H1313     1.0  0.75204  0.21774  0.65381  1.0000
  C   C733      1.0  0.96528  0.26669  0.50396  1.0000
  C   C734      1.0  0.89532  0.25971  0.49817  1.0000
  H   H1314     1.0  0.64907  0.13233  0.38476  1.0000
  H   H1315     1.0  0.85892  0.24977  0.47266  1.0000
  C   C735      1.0  0.95316  0.28808  0.48310  1.0000
  H   H1316     1.0  0.67268  0.10292  0.38685  1.0000
  C   C736      1.0  0.64238  0.46620  0.52573  1.0000
  H   H1317     1.0  0.89658  0.21207  0.36604  1.0000
  H   H1318     1.0  0.95150  0.32087  0.43921  1.0000
  C   C737      1.0  0.92684  0.33178  0.47611  1.0000
  H   H1319     1.0  0.90902  0.24307  0.48944  1.0000
  H   H1320     1.0  0.90170  0.28216  0.46096  1.0000
  H   H1321     1.0  0.97909  0.23494  0.47475  1.0000
  H   H1322     1.0  0.84659  0.20427  0.38595  1.0000
  C   C738      1.0  0.67210  0.48203  0.61205  1.0000
  H   H1323     1.0  0.85059  0.26436  0.50586  1.0000
  H   H1324     1.0  0.90666  0.34301  0.47940  1.0000
  C   C739      1.0  0.93093  0.33018  0.44462  1.0000
  H   H1325     1.0  0.94660  0.37318  0.43995  1.0000
  H   H1326     1.0  0.72877  0.00249  0.50539  1.0000
  H   H1327     1.0  0.91421  0.31741  0.43506  1.0000
  C   C740      1.0  0.65873  0.44140  0.53764  1.0000
  H   H1328     1.0  0.73332  0.06989  0.66549  1.0000
  C   C741      1.0  0.70004  0.00725  0.60839  1.0000
  S   S172      1.0  0.76918  0.33789  0.66314  1.0000
  C   C742      1.0  0.98817  0.24863  0.49094  1.0000
  H   H1329     1.0  0.61307  0.49117  0.57190  1.0000
  S   S173      1.0  0.64288  0.25364  0.34960  1.0000
  C   C743      1.0  0.71771  0.21334  0.35321  1.0000
  H   H1330     1.0  0.92026  0.15038  0.36166  1.0000
  H   H1331     1.0  0.67706  0.49493  0.52614  1.0000
  C   C744      1.0  0.74595  0.05041  0.66761  1.0000
  C   C745      1.0  0.68893  0.21870  0.34989  1.0000
  H   H1332     1.0  0.87899  0.16506  0.37712  1.0000
  H   H1333     1.0  0.98806  0.20292  0.42299  1.0000
  H   H1334     1.0  0.65870  0.49417  0.55739  1.0000
  C   C746      1.0  0.97498  0.14281  0.37291  1.0000
  H   H1335     1.0  0.95525  0.22142  0.36404  1.0000
  C   C747      1.0  0.51377  0.14041  0.45390  1.0000
  C   C748      1.0  0.96222  0.15929  0.34912  1.0000
  H   H1336     1.0  0.50424  0.13688  0.41034  1.0000
  H   H1337     1.0  0.50996  0.13733  0.50938  1.0000
  H   H1338     1.0  0.50156  0.16421  0.53386  1.0000
  H   H1339     1.0  0.70315  0.01248  0.66736  1.0000
  H   H1340     1.0  0.76817  0.05658  0.67091  1.0000
  C   C749      1.0  0.84266  0.18961  0.36864  1.0000
  H   H1341     1.0  0.92734  0.24513  0.35453  1.0000
  H   H1342     1.0  0.97385  0.26783  0.35077  1.0000
  H   H1343     1.0  0.97649  0.17720  0.34465  1.0000
  C   C750      1.0  0.87002  0.17616  0.35915  1.0000
  C   C751      1.0  0.94511  0.23239  0.34675  1.0000
  H   H1344     1.0  0.56208  0.49806  0.56253  1.0000
  H   H1345     1.0  0.86463  0.16028  0.34333  1.0000
  C   C752      1.0  0.89120  0.19851  0.34818  1.0000
  H   H1346     1.0  0.83246  0.20110  0.35158  1.0000
  H   H1347     1.0  0.67498  0.20220  0.34281  1.0000
  S   S174      1.0  0.77815  0.40897  0.71469  1.0000
  C   C753      1.0  0.89928  0.33025  0.97909  1.0000
  Fe  Fe88      1.0  0.82158  0.41825  0.87115  1.0000
  S   S175      1.0  0.81544  0.46408  0.86277  1.0000
  S   S176      1.0  0.81023  0.38475  0.83945  1.0000
  Fe  Fe89      1.0  0.84625  0.42915  0.92875  1.0000
  S   S177      1.0  0.84134  0.47594  0.92397  1.0000
  S   S178      1.0  0.87390  0.41353  0.96388  1.0000
  Fe  Fe90      1.0  0.79919  0.46620  0.90573  1.0000
  S   S179      1.0  0.99366  0.03499  0.85496  1.0000
  Fe  Fe91      1.0  0.85790  0.47007  0.88160  1.0000
  C   C754      1.0  0.59625  0.14721  0.79689  1.0000
  S   S180      1.0  0.80241  0.41947  0.91358  1.0000
  S   S181      1.0  0.86564  0.42392  0.88691  1.0000
  Fe  Fe92      1.0  0.59574  0.04724  0.83581  1.0000
  H   H1348     1.0  0.87626  0.42667  0.69670  1.0000
  S   S182      1.0  0.62070  0.07010  0.80252  1.0000
  Fe  Fe93      1.0  0.57393  0.05396  0.89487  1.0000
  H   H1349     1.0  0.68840  0.43959  0.85866  1.0000
  S   S183      1.0  0.56112  0.08651  0.92677  1.0000
  H   H1350     1.0  0.90245  0.49080  0.99971  1.0000
  H   H1351     1.0  0.62378  0.18133  0.78670  1.0000
  H   H1352     1.0  0.96889  0.44064  0.95562  1.0000
  H   H1353     1.0  0.93305  0.06010  0.98254  1.0000
  S   S184      1.0  0.61724  0.05152  0.87683  1.0000
  S   S185      1.0  0.55236  0.05339  0.85369  1.0000
  C   C755      1.0  0.55512  0.08011  0.96205  1.0000
  C   C756      1.0  0.55999  0.05375  0.97384  1.0000
  C   C757      1.0  0.54531  0.10217  0.97869  1.0000
  H   H1354     1.0  0.56734  0.03662  0.96122  1.0000
  H   H1355     1.0  0.54139  0.12261  0.96973  1.0000
  H   H1356     1.0  0.63226  0.17752  0.68385  1.0000
  H   H1357     1.0  0.67078  0.21817  0.71505  1.0000
  C   C758      1.0  0.86410  0.99891  0.81552  1.0000
  C   C759      1.0  0.83769  0.39798  0.00606  1.0000
  H   H1358     1.0  0.67118  0.07162  0.99716  1.0000
  C   C760      1.0  0.72912  0.48995  0.90864  1.0000
  C   C761      1.0  0.71851  0.46331  0.91513  1.0000
  C   C762      1.0  0.68946  0.45834  0.91408  1.0000
  H   H1359     1.0  0.65913  0.26766  0.70721  1.0000
  C   C763      1.0  0.60928  0.16111  0.74834  1.0000
  C   C764      1.0  0.72131  0.00994  0.88602  1.0000
  H   H1360     1.0  0.73258  0.44695  0.92202  1.0000
  H   H1361     1.0  0.68119  0.43795  0.91989  1.0000
  H   H1362     1.0  0.97071  0.45578  0.92158  1.0000
  C   C765      1.0  0.64125  0.44987  0.83259  1.0000
  H   H1363     1.0  0.60412  0.14533  0.81821  1.0000
  H   H1364     1.0  0.82097  0.39852  0.99110  1.0000
  H   H1365     1.0  0.69241  0.04308  0.68485  1.0000
  N   N41       1.0  0.69220  0.00549  0.70993  1.0000
  H   H1366     1.0  0.69911  0.01827  0.79320  1.0000
  H   H1367     1.0  0.64617  0.46775  0.84650  1.0000
  H   H1368     1.0  0.59039  0.12581  0.78960  1.0000
  H   H1369     1.0  0.70916  0.48189  0.83189  1.0000
  H   H1370     1.0  0.71688  0.16073  0.72782  1.0000
  H   H1371     1.0  0.90928  0.36590  0.82045  1.0000
  C   C766      1.0  0.60608  0.08317  0.71024  1.0000
  C   C767      1.0  0.63243  0.08787  0.72193  1.0000
  C   C768      1.0  0.63654  0.08339  0.75016  1.0000
  C   C769      1.0  0.61460  0.07352  0.76686  1.0000
  C   C770      1.0  0.58845  0.06807  0.75503  1.0000
  C   C771      1.0  0.58419  0.07312  0.72688  1.0000
  H   H1372     1.0  0.64950  0.09532  0.70929  1.0000
  H   H1373     1.0  0.65679  0.08785  0.75917  1.0000
  H   H1374     1.0  0.57134  0.06064  0.76765  1.0000
  H   H1375     1.0  0.56373  0.06938  0.71798  1.0000
  C   C772      1.0  0.78626  0.40147  0.74940  1.0000
  C   C773      1.0  0.79349  0.42398  0.76684  1.0000
  C   C774      1.0  0.80096  0.41919  0.79436  1.0000
  C   C775      1.0  0.80114  0.39179  0.80485  1.0000
  C   C776      1.0  0.79349  0.36932  0.78754  1.0000
  C   C777      1.0  0.78606  0.37410  0.75996  1.0000
  H   H1376     1.0  0.79358  0.44525  0.75891  1.0000
  H   H1377     1.0  0.80642  0.43669  0.80747  1.0000
  H   H1378     1.0  0.79344  0.34804  0.79547  1.0000
  H   H1379     1.0  0.78049  0.35659  0.74681  1.0000
  H   H1380     1.0  0.88981  0.46343  0.74013  1.0000
  C   C778      1.0  0.86670  0.42403  0.74031  1.0000
  H   H1381     1.0  0.72689  0.47158  0.80060  1.0000
  C   C779      1.0  0.69211  0.00528  0.88495  1.0000
  C   C780      1.0  0.85884  0.48444  0.77833  1.0000
  C   C781      1.0  0.49566  0.49174  0.95292  1.0000
  H   H1382     1.0  0.73042  0.49336  0.96796  1.0000
  C   C782      1.0  0.72901  0.47380  0.82306  1.0000
  C   C783      1.0  0.73669  0.44565  0.83703  1.0000
  H   H1383     1.0  0.92020  0.45442  0.96065  1.0000
  C   C784      1.0  0.97140  0.00753  0.86586  1.0000
  C   C785      1.0  0.67104  0.47978  0.90602  1.0000
  N   N42       1.0  0.96488  0.06048  0.95118  1.0000
  H   H1384     1.0  0.50335  0.05092  0.95479  1.0000
  H   H1385     1.0  0.93267  0.40721  0.94070  1.0000
  H   H1386     1.0  0.87626  0.40436  0.78879  1.0000
  H   H1387     1.0  0.57238  0.16966  0.70642  1.0000
  H   H1388     1.0  0.91824  0.46810  0.92678  1.0000
  H   H1389     1.0  0.97244  0.48519  0.76341  1.0000
  C   C786      1.0  0.94397  0.05367  0.92876  1.0000
  C   C787      1.0  0.58838  0.18068  0.69385  1.0000
  H   H1390     1.0  0.88512  0.08241  0.89623  1.0000
  H   H1391     1.0  0.96963  0.10652  0.91007  1.0000
  H   H1392     1.0  0.91219  0.40150  0.77925  1.0000
  C   C788      1.0  0.64472  0.10880  0.92198  1.0000
  H   H1393     1.0  0.62564  0.12209  0.92039  1.0000
  H   H1394     1.0  0.93992  0.09400  0.96939  1.0000
  H   H1395     1.0  0.61861  0.03497  0.00771  1.0000
  H   H1396     1.0  0.87213  0.40131  0.74167  1.0000
  H   H1397     1.0  0.65440  0.25887  0.74273  1.0000
  H   H1398     1.0  0.63696  0.09714  0.96333  1.0000
  H   H1399     1.0  0.64841  0.01401  0.75434  1.0000
  H   H1400     1.0  0.68025  0.17826  0.69582  1.0000
  N   N43       1.0  0.66287  0.04138  0.96489  1.0000
  H   H1401     1.0  0.92797  0.41511  0.82475  1.0000
  H   H1402     1.0  0.89600  0.04609  0.89765  1.0000
  H   H1403     1.0  0.91998  0.45283  0.86911  1.0000
  Fe  Fe94      1.0  0.76151  0.38210  0.67902  1.0000
  H   H1404     1.0  0.92633  0.09675  0.92376  1.0000
  C   C789      1.0  0.55575  0.04976  0.00213  1.0000
  H   H1405     1.0  0.71850  0.14303  0.69527  1.0000
  H   H1406     1.0  0.71600  0.05454  0.98581  1.0000
  H   H1407     1.0  0.59851  0.02040  0.68089  1.0000
  H   H1408     1.0  0.91099  0.43317  0.73955  1.0000
  C   C790      1.0  0.63130  0.20549  0.73458  1.0000
  N   N44       1.0  0.71807  0.42065  0.83070  1.0000
  C   C791      1.0  0.72023  0.41396  0.80053  1.0000
  H   H1409     1.0  0.86821  0.30760  0.00235  1.0000
  C   C792      1.0  0.72958  0.39566  0.84619  1.0000
  H   H1410     1.0  0.96757  0.49414  0.79902  1.0000
  H   H1411     1.0  0.76178  0.03284  0.97364  1.0000
  C   C793      1.0  0.70724  0.38540  0.79150  1.0000
  C   C794      1.0  0.73248  0.39922  0.87762  1.0000
  H   H1412     1.0  0.82247  0.48741  0.80513  1.0000
  H   H1413     1.0  0.90506  0.38050  0.85429  1.0000
  H   H1414     1.0  0.74411  0.00629  0.95372  1.0000
  C   C795      1.0  0.70271  0.38421  0.76055  1.0000
  C   C796      1.0  0.74047  0.37145  0.89129  1.0000
  H   H1415     1.0  0.74261  0.41337  0.79422  1.0000
  C   C797      1.0  0.88504  0.32326  0.00681  1.0000
  C   C798      1.0  0.89718  0.41463  0.79119  1.0000
  H   H1416     1.0  0.71024  0.02823  0.74399  1.0000
  H   H1417     1.0  0.75059  0.38981  0.83810  1.0000
  H   H1418     1.0  0.71601  0.37682  0.84302  1.0000
  H   H1419     1.0  0.67801  0.40608  0.84673  1.0000
  H   H1420     1.0  0.98634  0.09570  0.99446  1.0000
  N   N45       1.0  0.89640  0.44437  0.78009  1.0000
  H   H1421     1.0  0.67009  0.05809  0.92436  1.0000
  H   H1422     1.0  0.72172  0.36796  0.79695  1.0000
  H   H1423     1.0  0.68686  0.38147  0.80177  1.0000
  H   H1424     1.0  0.71255  0.40663  0.88679  1.0000
  H   H1425     1.0  0.74938  0.41447  0.88257  1.0000
  C   C799      1.0  0.68831  0.42602  0.84002  1.0000
  C   C800      1.0  0.67694  0.15785  0.70620  1.0000
  S   S186      1.0  0.51217  0.48244  0.85681  1.0000
  H   H1426     1.0  0.92920  0.45830  0.80784  1.0000
  H   H1427     1.0  0.89358  0.42719  0.83442  1.0000
  H   H1428     1.0  0.86539  0.99994  0.83819  1.0000
  H   H1429     1.0  0.96728  0.11976  0.94480  1.0000
  H   H1430     1.0  0.68656  0.39972  0.75430  1.0000
  C   C801      1.0  0.64192  0.01708  0.69351  1.0000
  H   H1431     1.0  0.64073  0.01859  0.93315  1.0000
  H   H1432     1.0  0.66534  0.46467  0.71451  1.0000
  H   H1433     1.0  0.74308  0.37483  0.91365  1.0000
  H   H1434     1.0  0.72388  0.35531  0.88803  1.0000
  H   H1435     1.0  0.76067  0.36358  0.88291  1.0000
  H   H1436     1.0  0.67005  0.17120  0.74827  1.0000
  H   H1437     1.0  0.60430  0.13905  0.74199  1.0000
  H   H1438     1.0  0.63804  0.14676  0.78109  1.0000
  H   H1439     1.0  0.71100  0.43080  0.78774  1.0000
  C   C802      1.0  0.96917  0.08109  0.00028  1.0000
  C   C803      1.0  0.61810  0.16895  0.69982  1.0000
  C   C804      1.0  0.95032  0.07408  0.97526  1.0000
  H   H1440     1.0  0.67846  0.02096  0.87605  1.0000
  H   H1441     1.0  0.97097  0.44463  0.86254  1.0000
  C   C805      1.0  0.95599  0.49329  0.98222  1.0000
  H   H1442     1.0  0.62624  0.45738  0.81684  1.0000
  H   H1443     1.0  0.62061  0.07450  0.93804  1.0000
  H   H1444     1.0  0.93343  0.03311  0.93291  1.0000
  H   H1445     1.0  0.75891  0.44053  0.83203  1.0000
  C   C806      1.0  0.90510  0.41167  0.82184  1.0000
  H   H1446     1.0  0.67746  0.45734  0.80789  1.0000
  S   S187      1.0  0.57101  0.00746  0.90126  1.0000
  C   C807      1.0  0.66799  0.43933  0.81884  1.0000
  C   C808      1.0  0.89824  0.38223  0.83262  1.0000
  H   H1447     1.0  0.73771  0.04575  0.71055  1.0000
  C   C809      1.0  0.64001  0.08601  0.94360  1.0000
  C   C810      1.0  0.61905  0.15998  0.77869  1.0000
  H   H1448     1.0  0.58731  0.20361  0.69803  1.0000
  H   H1449     1.0  0.85621  0.44592  0.80107  1.0000
  H   H1450     1.0  0.90416  0.07248  0.94165  1.0000
  H   H1451     1.0  0.87527  0.37826  0.83174  1.0000
  C   C811      1.0  0.96262  0.46574  0.86106  1.0000
  H   H1452     1.0  0.72261  0.38868  0.74951  1.0000
  C   C812      1.0  0.65783  0.16052  0.73179  1.0000
  H   H1453     1.0  0.73005  0.02926  0.87790  1.0000
  C   C813      1.0  0.90354  0.06827  0.89796  1.0000
  C   C814      1.0  0.91934  0.07455  0.92450  1.0000
  H   H1454     1.0  0.91128  0.35030  0.98082  1.0000
  H   H1455     1.0  0.84832  0.42770  0.75360  1.0000
  H   H1456     1.0  0.65520  0.13846  0.73889  1.0000
  H   H1457     1.0  0.72235  0.05395  0.94936  1.0000
  Fe  Fe95      1.0  0.55190  0.00620  0.85931  1.0000
  C   C815      1.0  0.59478  0.47212  0.97501  1.0000
  H   H1458     1.0  0.50115  0.48169  0.78328  1.0000
  H   H1459     1.0  0.49851  0.09079  0.91694  1.0000
  H   H1460     1.0  0.84097  0.41570  0.70458  1.0000
  H   H1461     1.0  0.66272  0.12249  0.92772  1.0000
  H   H1462     1.0  0.68341  0.07973  0.95127  1.0000
  H   H1463     1.0  0.52730  0.00550  0.94717  1.0000
  C   C816      1.0  0.66547  0.06597  0.94543  1.0000
  H   H1464     1.0  0.64114  0.20890  0.75495  1.0000
  H   H1465     1.0  0.67538  0.49401  0.99344  1.0000
  C   C817      1.0  0.98063  0.10828  0.93004  1.0000
  H   H1466     1.0  0.92211  0.49174  0.75454  1.0000
  H   H1467     1.0  0.63103  0.43280  0.84455  1.0000
  C   C818      1.0  0.70562  0.14596  0.71396  1.0000
  C   C819      1.0  0.70607  0.44797  0.70636  1.0000
  H   H1468     1.0  0.64879  0.09929  0.90160  1.0000
  C   C820      1.0  0.67773  0.02418  0.78632  1.0000
  H   H1469     1.0  0.67640  0.04748  0.78495  1.0000
  H   H1470     1.0  0.69082  0.46987  0.74162  1.0000
  H   H1471     1.0  0.93395  0.03040  0.85550  1.0000
  H   H1472     1.0  0.73637  0.45062  0.85925  1.0000
  H   H1473     1.0  0.85071  0.45211  0.70867  1.0000
  H   H1474     1.0  0.95508  0.05091  0.90885  1.0000
  H   H1475     1.0  0.58894  0.17252  0.74839  1.0000
  C   C821      1.0  0.64827  0.22382  0.71429  1.0000
  H   H1476     1.0  0.72578  0.48961  0.00453  1.0000
  C   C822      1.0  0.67101  0.01056  0.75871  1.0000
  C   C823      1.0  0.98852  0.07853  0.94032  1.0000
  C   C824      1.0  0.94224  0.01112  0.86399  1.0000
  H   H1477     1.0  0.66741  0.14312  0.69114  1.0000
  H   H1478     1.0  0.94156  0.44456  0.77624  1.0000
  H   H1479     1.0  0.51287  0.04080  0.90766  1.0000
  C   C825      1.0  0.68958  0.02439  0.96270  1.0000
  H   H1480     1.0  0.60996  0.21471  0.73648  1.0000
  C   C826      1.0  0.94553  0.41857  0.92526  1.0000
  H   H1481     1.0  0.93250  0.42248  0.90685  1.0000
  C   C827      1.0  0.92867  0.48853  0.77603  1.0000
  H   H1482     1.0  0.86207  0.35069  0.96242  1.0000
  H   H1483     1.0  0.86628  0.31428  0.95218  1.0000
  C   C828      1.0  0.93378  0.47028  0.86468  1.0000
  H   H1484     1.0  0.88811  0.34138  0.93738  1.0000
  H   H1485     1.0  0.69535  0.36286  0.75453  1.0000
  C   C829      1.0  0.89205  0.44232  0.74952  1.0000
  H   H1486     1.0  0.70330  0.12515  0.72411  1.0000
  H   H1487     1.0  0.66181  0.42343  0.80326  1.0000
  H   H1488     1.0  0.61853  0.03340  0.95778  1.0000
  C   C830      1.0  0.87753  0.33433  0.95644  1.0000
  H   H1489     1.0  0.57729  0.16073  0.79698  1.0000
  H   H1490     1.0  0.84607  0.47564  0.76134  1.0000
  H   H1491     1.0  0.58920  0.47449  0.95308  1.0000
  C   C831      1.0  0.71738  0.04075  0.96751  1.0000
  C   C832      1.0  0.93234  0.46617  0.94494  1.0000
  C   C833      1.0  0.70473  0.02339  0.68749  1.0000
  C   C834      1.0  0.68917  0.02335  0.73534  1.0000
  H   H1492     1.0  0.62972  0.47908  0.00172  1.0000
  H   H1493     1.0  0.64037  0.22157  0.69308  1.0000
  H   H1494     1.0  0.63897  0.47217  0.96702  1.0000
  C   C835      1.0  0.73562  0.03277  0.69175  1.0000
  H   H1495     1.0  0.68015  0.04433  0.73031  1.0000
  H   H1496     1.0  0.91376  0.31320  0.97273  1.0000
  H   H1497     1.0  0.72853  0.45218  0.71094  1.0000
  S   S188      1.0  0.63477  0.47328  0.90629  1.0000
  C   C836      1.0  0.64629  0.25505  0.72173  1.0000
  N   N46       1.0  0.62948  0.17440  0.72821  1.0000
  H   H1498     1.0  0.62426  0.26243  0.72035  1.0000
  H   H1499     1.0  0.61611  0.06810  0.99077  1.0000
  C   C837      1.0  0.95669  0.44626  0.93713  1.0000
  C   C838      1.0  0.68734  0.47050  0.71917  1.0000
  H   H1500     1.0  0.70314  0.44722  0.68378  1.0000
  H   H1501     1.0  0.65484  0.49135  0.76058  1.0000
  C   C839      1.0  0.87335  0.46042  0.79456  1.0000
  H   H1502     1.0  0.63822  0.03111  0.71119  1.0000
  H   H1503     1.0  0.61737  0.14582  0.69588  1.0000
  H   H1504     1.0  0.68934  0.00670  0.97763  1.0000
  H   H1505     1.0  0.70054  0.42697  0.71469  1.0000
  C   C840      1.0  0.86499  0.40526  0.99827  1.0000
  H   H1506     1.0  0.59430  0.44932  0.98003  1.0000
  H   H1507     1.0  0.66237  0.01695  0.80193  1.0000
  C   C841      1.0  0.92469  0.45767  0.78553  1.0000
  H   H1508     1.0  0.94836  0.47486  0.99425  1.0000
  C   C842      1.0  0.62414  0.48391  0.98032  1.0000
  Fe  Fe96      1.0  0.61249  0.00476  0.87969  1.0000
  H   H1509     1.0  0.88237  0.47799  0.97105  1.0000
  H   H1510     1.0  0.88145  0.46958  0.81405  1.0000
  C   C843      1.0  0.74199  0.02062  0.97158  1.0000
  C   C844      1.0  0.63901  0.02272  0.95554  1.0000
  H   H1511     1.0  0.96226  0.02158  0.97443  1.0000
  H   H1512     1.0  0.73905  0.00782  0.99038  1.0000
  C   C845      1.0  0.65957  0.05145  0.99414  1.0000
  C   C846      1.0  0.98851  0.49166  0.98071  1.0000
  C   C847      1.0  0.98070  0.48839  0.85548  1.0000
  H   H1513     1.0  0.74983  0.01442  0.69346  1.0000
  H   H1514     1.0  0.69111  0.01432  0.94217  1.0000
  H   H1515     1.0  0.50460  0.01643  0.99049  1.0000
  H   H1516     1.0  0.91739  0.07200  0.88005  1.0000
  N   N47       1.0  0.94018  0.49513  0.95541  1.0000
  H   H1517     1.0  0.86537  0.02072  0.80739  1.0000
  H   H1518     1.0  0.51745  0.49771  0.95861  1.0000
  H   H1519     1.0  0.77178  0.48968  0.81919  1.0000
  S   S189      1.0  0.59342  0.99994  0.83807  1.0000
  C   C848      1.0  0.61386  0.00360  0.68592  1.0000
  H   H1520     1.0  0.96336  0.40489  0.91930  1.0000
  C   C849      1.0  0.97749  0.03318  0.96127  1.0000
  C   C850      1.0  0.85828  0.43010  0.71073  1.0000
  H   H1521     1.0  0.60333  0.48790  0.67942  1.0000
  C   C851      1.0  0.98717  0.01208  0.93892  1.0000
  H   H1522     1.0  0.57899  0.48311  0.98784  1.0000
  H   H1523     1.0  0.76092  0.99900  0.83621  1.0000
  C   C852      1.0  0.62917  0.05562  0.00491  1.0000
  C   C853      1.0  0.75149  0.49619  0.82832  1.0000
  C   C854      1.0  0.54078  0.09811  0.00694  1.0000
  C   C855      1.0  0.95943  0.49746  0.77800  1.0000
  H   H1524     1.0  0.96869  0.00227  0.92889  1.0000
  C   C856      1.0  0.92279  0.49734  0.86177  1.0000
  C   C857      1.0  0.89204  0.49703  0.98034  1.0000
  H   H1525     1.0  0.64863  0.03013  0.67582  1.0000
  S   S190      1.0  0.59938  0.09047  0.67529  1.0000
  H   H1526     1.0  0.50984  0.50891  0.28915  1.0000
  C   C858      1.0  0.92773  0.68310  0.18603  1.0000
  H   H1527     1.0  0.50542  0.73374  0.26486  1.0000
  H   H1528     1.0  0.90854  0.73141  0.29759  1.0000
  S   S191      1.0  0.52713  0.56279  0.06551  1.0000
  H   H1529     1.0  0.66469  0.50666  0.03484  1.0000
  H   H1530     1.0  0.57075  0.54151  0.22159  1.0000
  S   S192      1.0  0.54562  0.63230  0.18780  1.0000
  H   H1531     1.0  0.75448  0.63171  0.33892  1.0000
  H   H1532     1.0  0.94957  0.95437  0.04375  1.0000
  S   S193      1.0  0.93026  0.55383  0.14499  1.0000
  C   C859      1.0  0.96479  0.50746  0.14901  1.0000
  H   H1533     1.0  0.56637  0.50945  0.20219  1.0000
  H   H1534     1.0  0.95996  0.77775  0.02995  1.0000
  Fe  Fe97      1.0  0.88314  0.88219  0.12215  1.0000
  S   S194      1.0  0.93011  0.88297  0.12228  1.0000
  S   S195      1.0  0.86456  0.90958  0.08834  1.0000
  Fe  Fe98      1.0  0.88141  0.84692  0.17498  1.0000
  S   S196      1.0  0.92843  0.84529  0.17792  1.0000
  S   S197      1.0  0.85584  0.82004  0.20483  1.0000
  Fe  Fe99      1.0  0.92702  0.89121  0.16714  1.0000
  S   S198      1.0  0.95846  0.92141  0.18589  1.0000
  Fe  Fe100     1.0  0.92742  0.83713  0.13280  1.0000
  S   S199      1.0  0.95887  0.80843  0.11234  1.0000
  S   S200      1.0  0.87994  0.89377  0.16709  1.0000
  S   S201      1.0  0.88051  0.83549  0.12986  1.0000
  C   C860      1.0  0.94412  0.71348  0.10391  1.0000
  C   C861      1.0  0.83278  0.86599  0.02322  1.0000
  H   H1535     1.0  0.51115  0.97208  0.16895  1.0000
  C   C862      1.0  0.95292  0.77189  0.11011  1.0000
  C   C863      1.0  0.92655  0.76025  0.11544  1.0000
  C   C864      1.0  0.92210  0.73117  0.11202  1.0000
  H   H1536     1.0  0.52653  0.98298  0.22914  1.0000
  S   S202      1.0  0.93724  0.67738  0.09886  1.0000
  H   H1537     1.0  0.90951  0.77369  0.12181  1.0000
  C   C865      1.0  0.91738  0.77628  0.01281  1.0000
  C   C866      1.0  0.93731  0.51762  0.14879  1.0000
  H   H1538     1.0  0.90151  0.72231  0.11572  1.0000
  C   C867      1.0  0.92616  0.96898  0.18982  1.0000
  C   C868      1.0  0.95131  0.95731  0.18060  1.0000
  H   H1539     1.0  0.62836  0.55527  0.01325  1.0000
  H   H1540     1.0  0.94428  0.60172  0.22199  1.0000
  H   H1541     1.0  0.91109  0.69929  0.18677  1.0000
  H   H1542     1.0  0.91067  0.95572  0.19966  1.0000
  H   H1543     1.0  0.87706  0.73359  0.31786  1.0000
  H   H1544     1.0  0.90982  0.72488  0.33412  1.0000
  H   H1545     1.0  0.52485  0.57007  0.30431  1.0000
  C   C869      1.0  0.53590  0.57073  0.03105  1.0000
  C   C870      1.0  0.77860  0.78707  0.19006  1.0000
  C   C871      1.0  0.52561  0.99009  0.20753  1.0000
  H   H1546     1.0  0.54618  0.53941  0.31080  1.0000
  C   C872      1.0  0.84283  0.87263  0.04961  1.0000
  C   C873      1.0  0.85374  0.89942  0.05505  1.0000
  C   C874      1.0  0.91941  0.98926  0.04863  1.0000
  H   H1547     1.0  0.84133  0.85739  0.06597  1.0000
  C   C875      1.0  0.94596  0.74076  0.21066  1.0000
  C   C876      1.0  0.53672  0.63311  0.28166  1.0000
  H   H1548     1.0  0.62675  0.50957  0.03413  1.0000
  H   H1549     1.0  0.98640  0.63631  0.25496  1.0000
  C   C877      1.0  0.54082  0.63341  0.22379  1.0000
  C   C878      1.0  0.56035  0.64813  0.24004  1.0000
  C   C879      1.0  0.55815  0.64827  0.26883  1.0000
  H   H1550     1.0  0.66505  0.55862  0.01646  1.0000
  H   H1551     1.0  0.99149  0.74014  0.17918  1.0000
  H   H1552     1.0  0.57746  0.65927  0.23030  1.0000
  H   H1553     1.0  0.57349  0.65946  0.28107  1.0000
  C   C880      1.0  0.84509  0.83404  0.29748  1.0000
  C   C881      1.0  0.85189  0.85684  0.28036  1.0000
  C   C882      1.0  0.85603  0.85284  0.25204  1.0000
  C   C883      1.0  0.85328  0.82595  0.24058  1.0000
  C   C884      1.0  0.84703  0.80308  0.25781  1.0000
  C   C885      1.0  0.84305  0.80707  0.28611  1.0000
  H   H1554     1.0  0.85365  0.87779  0.28897  1.0000
  H   H1555     1.0  0.86077  0.87064  0.23900  1.0000
  H   H1556     1.0  0.84521  0.78217  0.24915  1.0000
  H   H1557     1.0  0.83827  0.78931  0.29910  1.0000
  H   H1558     1.0  0.95185  0.53950  0.20603  1.0000
  H   H1559     1.0  0.56118  0.53709  0.15951  1.0000
  C   C886      1.0  0.52437  0.54701  0.30802  1.0000
  H   H1560     1.0  0.84919  0.97721  0.12424  1.0000
  H   H1561     1.0  0.52484  0.56056  0.25303  1.0000
  C   C887      1.0  0.94763  0.73436  0.02621  1.0000
  H   H1562     1.0  0.79915  0.79060  0.17987  1.0000
  H   H1563     1.0  0.84891  0.65702  0.33953  1.0000
  C   C888      1.0  0.87799  0.80007  0.03680  1.0000
  C   C889      1.0  0.88232  0.78698  0.06539  1.0000
  H   H1564     1.0  0.91414  0.94295  0.04985  1.0000
  H   H1565     1.0  0.86988  0.94685  0.13378  1.0000
  C   C890      1.0  0.93793  0.87184  0.05219  1.0000
  C   C891      1.0  0.90868  0.77309  0.19103  1.0000
  C   C892      1.0  0.85474  0.78599  0.08131  1.0000
  H   H1566     1.0  0.96218  0.83674  0.29410  1.0000
  H   H1567     1.0  0.72716  0.77471  0.30035  1.0000
  C   C893      1.0  0.93358  0.75418  0.18434  1.0000
  H   H1568     1.0  0.93372  0.81393  0.05243  1.0000
  H   H1569     1.0  0.66706  0.54813  0.06589  1.0000
  H   H1570     1.0  0.51759  0.52555  0.18805  1.0000
  H   H1571     1.0  0.86291  0.78598  0.02606  1.0000
  C   C894      1.0  0.97879  0.49848  0.24383  1.0000
  H   H1572     1.0  0.93745  0.68283  0.16541  1.0000
  H   H1573     1.0  0.54818  0.53306  0.26054  1.0000
  H   H1574     1.0  0.89764  0.79930  0.07762  1.0000
  H   H1575     1.0  0.88958  0.76490  0.06340  1.0000
  H   H1576     1.0  0.82826  0.68506  0.32462  1.0000
  H   H1577     1.0  0.89937  0.85012  0.06080  1.0000
  C   C895      1.0  0.94983  0.68855  0.20867  1.0000
  H   H1578     1.0  0.89365  0.50664  0.15303  1.0000
  H   H1579     1.0  0.92935  0.72051  0.03063  1.0000
  C   C896      1.0  0.96072  0.56081  0.20968  1.0000
  C   C897      1.0  0.93650  0.58008  0.21777  1.0000
  C   C898      1.0  0.92722  0.95897  0.03935  1.0000
  C   C899      1.0  0.76486  0.82375  0.30567  1.0000
  H   H1580     1.0  0.85842  0.77666  0.10183  1.0000
  H   H1581     1.0  0.84617  0.80753  0.08410  1.0000
  H   H1582     1.0  0.83904  0.77280  0.07037  1.0000
  H   H1583     1.0  0.95178  0.87685  0.03459  1.0000
  H   H1584     1.0  0.52269  0.55728  0.20618  1.0000
  H   H1585     1.0  0.96451  0.67043  0.20898  1.0000
  H   H1586     1.0  0.95088  0.96222  0.08975  1.0000
  H   H1587     1.0  0.96956  0.56883  0.19017  1.0000
  H   H1588     1.0  0.86236  0.94041  0.03806  1.0000
  C   C900      1.0  0.97146  0.97471  0.16821  1.0000
  C   C901      1.0  0.91304  0.65476  0.19018  1.0000
  S   S203      1.0  0.51324  0.63506  0.11379  1.0000
  H   H1589     1.0  0.66844  0.77589  0.28663  1.0000
  C   C902      1.0  0.97486  0.75427  0.10169  1.0000
  N   N48       1.0  0.96570  0.71606  0.20705  1.0000
  C   C903      1.0  0.92487  0.82362  0.03366  1.0000
  H   H1590     1.0  0.95967  0.51135  0.24674  1.0000
  H   H1591     1.0  0.90113  0.65460  0.20970  1.0000
  H   H1592     1.0  0.96682  0.69469  0.26461  1.0000
  S   S204      1.0  0.96946  0.62549  0.14867  1.0000
  C   C904      1.0  0.51011  0.53169  0.28423  1.0000
  H   H1593     1.0  0.95675  0.73111  0.26231  1.0000
  Fe  Fe101     1.0  0.50714  0.59026  0.09880  1.0000
  Fe  Fe102     1.0  0.96397  0.58305  0.12911  1.0000
  S   S205      1.0  0.53416  0.63073  0.31782  1.0000
  H   H1594     1.0  0.92568  0.57178  0.23620  1.0000
  C   C905      1.0  0.64716  0.53624  0.06304  1.0000
  H   H1595     1.0  0.52240  0.86816  0.02546  1.0000
  C   C906      1.0  0.64678  0.52144  0.03522  1.0000
  S   S206      1.0  0.95987  0.60019  0.08666  1.0000
  H   H1596     1.0  0.94980  0.76732  0.17406  1.0000
  H   H1597     1.0  0.64545  0.52035  0.07963  1.0000
  H   H1598     1.0  0.77116  0.76552  0.18483  1.0000
  H   H1599     1.0  0.51625  0.73818  0.30022  1.0000
  H   H1600     1.0  0.54732  0.99182  0.19956  1.0000
  C   C907      1.0  0.94048  0.76508  0.03243  1.0000
  C   C908      1.0  0.86816  0.97006  0.13541  1.0000
  H   H1601     1.0  0.97352  0.55578  0.25224  1.0000
  H   H1602     1.0  0.50354  0.60797  0.22426  1.0000
  C   C909      1.0  0.98356  0.56056  0.23222  1.0000
  C   C910      1.0  0.94998  0.81669  0.29433  1.0000
  C   C911      1.0  0.92352  0.82114  0.27658  1.0000
  H   H1603     1.0  0.50111  0.97230  0.10409  1.0000
  H   H1604     1.0  0.71124  0.60351  0.33590  1.0000
  C   C912      1.0  0.90524  0.76910  0.32298  1.0000
  C   C913      1.0  0.89998  0.73778  0.31780  1.0000
  C   C914      1.0  0.93131  0.83443  0.24914  1.0000
  N   N49       1.0  0.90396  0.80432  0.01976  1.0000
  H   H1605     1.0  0.95672  0.75859  0.22130  1.0000
  H   H1606     1.0  0.98810  0.50966  0.20181  1.0000
  C   C915      1.0  0.51157  0.84789  0.02105  1.0000
  H   H1607     1.0  0.66410  0.74377  0.26730  1.0000
  H   H1608     1.0  0.74540  0.81731  0.31639  1.0000
  H   H1609     1.0  0.96314  0.80152  0.28275  1.0000
  N   N50       1.0  0.94559  0.80669  0.32338  1.0000
  H   H1610     1.0  0.91331  0.80069  0.27197  1.0000
  H   H1611     1.0  0.98211  0.52172  0.14555  1.0000
  H   H1612     1.0  0.54508  0.52738  0.02139  1.0000
  C   C916      1.0  0.97050  0.72513  0.09864  1.0000
  S   S207      1.0  0.83930  0.84013  0.33283  1.0000
  H   H1613     1.0  0.89418  0.78104  0.30692  1.0000
  H   H1614     1.0  0.53680  0.71691  0.27723  1.0000
  H   H1615     1.0  0.78829  0.86292  0.30006  1.0000
  H   H1616     1.0  0.96531  0.72752  0.03939  1.0000
  H   H1617     1.0  0.94644  0.82101  0.23784  1.0000
  H   H1618     1.0  0.91220  0.83672  0.23640  1.0000
  H   H1619     1.0  0.94053  0.85574  0.25216  1.0000
  H   H1620     1.0  0.96770  0.71726  0.16252  1.0000
  C   C917      1.0  0.76905  0.85529  0.31056  1.0000
  N   N51       1.0  0.75455  0.78749  0.26701  1.0000
  C   C918      1.0  0.75377  0.78591  0.23609  1.0000
  C   C919      1.0  0.72555  0.78281  0.27898  1.0000
  C   C920      1.0  0.76395  0.81694  0.27459  1.0000
  C   C921      1.0  0.77515  0.76697  0.27912  1.0000
  C   C922      1.0  0.77020  0.73553  0.27241  1.0000
  C   C923      1.0  0.78212  0.79035  0.22100  1.0000
  H   H1621     1.0  0.93851  0.86538  0.32189  1.0000
  C   C924      1.0  0.70525  0.76306  0.26302  1.0000
  H   H1622     1.0  0.98727  0.71184  0.09129  1.0000
  C   C925      1.0  0.79440  0.71756  0.28302  1.0000
  C   C926      1.0  0.52559  0.53749  0.25685  1.0000
  C   C927      1.0  0.97442  0.71626  0.25968  1.0000
  H   H1623     1.0  0.73874  0.80183  0.22803  1.0000
  H   H1624     1.0  0.74565  0.76528  0.22894  1.0000
  N   N52       1.0  0.51525  0.52118  0.23224  1.0000
  H   H1625     1.0  0.71403  0.80315  0.28077  1.0000
  H   H1626     1.0  0.75024  0.83278  0.26438  1.0000
  H   H1627     1.0  0.78557  0.82122  0.26716  1.0000
  H   H1628     1.0  0.79686  0.77263  0.27308  1.0000
  H   H1629     1.0  0.77501  0.76839  0.30187  1.0000
  H   H1630     1.0  0.76851  0.73178  0.25008  1.0000
  H   H1631     1.0  0.75084  0.72801  0.28271  1.0000
  H   H1632     1.0  0.79068  0.81180  0.22452  1.0000
  H   H1633     1.0  0.79784  0.77462  0.22765  1.0000
  H   H1634     1.0  0.86580  0.97553  0.15739  1.0000
  H   H1635     1.0  0.62917  0.55098  0.06487  1.0000
  H   H1636     1.0  0.69826  0.77357  0.24388  1.0000
  H   H1637     1.0  0.71518  0.74283  0.25741  1.0000
  C   C928      1.0  0.98181  0.71878  0.18052  1.0000
  H   H1638     1.0  0.91262  0.97523  0.13508  1.0000
  C   C929      1.0  0.52759  0.53433  0.20682  1.0000
  H   H1639     1.0  0.79000  0.69497  0.27886  1.0000
  H   H1640     1.0  0.81432  0.72347  0.27270  1.0000
  H   H1641     1.0  0.79684  0.72041  0.30546  1.0000
  H   H1642     1.0  0.89816  0.65093  0.17304  1.0000
  H   H1643     1.0  0.52140  0.94654  0.19415  1.0000
  H   H1644     1.0  0.78281  0.81269  0.31528  1.0000
  H   H1645     1.0  0.93425  0.76630  0.05417  1.0000
  H   H1646     1.0  0.59354  0.54513  0.17686  1.0000
  C   C930      1.0  0.91378  0.85278  0.04312  1.0000
  H   H1647     1.0  0.68479  0.74362  0.29803  1.0000
  H   H1648     1.0  0.90331  0.82297  0.32895  1.0000
  H   H1649     1.0  0.90099  0.75960  0.01079  1.0000
  C   C931      1.0  0.64819  0.54311  0.01165  1.0000
  H   H1650     1.0  0.52857  0.61533  0.03390  1.0000
  H   H1651     1.0  0.51258  0.54311  0.32725  1.0000
  Fe  Fe103     1.0  0.96885  0.64243  0.10585  1.0000
  H   H1652     1.0  0.90212  0.95548  0.09126  1.0000
  H   H1653     1.0  0.91469  0.78946  0.20620  1.0000
  H   H1654     1.0  0.95051  0.86146  0.06844  1.0000
  C   C932      1.0  0.53470  0.59813  0.02065  1.0000
  C   C933      1.0  0.67907  0.75629  0.27983  1.0000
  C   C934      1.0  0.98673  0.71682  0.23021  1.0000
  C   C935      1.0  0.49831  0.69697  0.29073  1.0000
  H   H1655     1.0  0.89097  0.76049  0.19933  1.0000
  H   H1656     1.0  0.77147  0.85937  0.33283  1.0000
  H   H1657     1.0  0.90135  0.78378  0.17214  1.0000
  H   H1658     1.0  0.75070  0.86733  0.30296  1.0000
  C   C936      1.0  0.85458  0.91943  0.03387  1.0000
  C   C937      1.0  0.94884  0.98558  0.09062  1.0000
  Fe  Fe104     1.0  0.51399  0.61627  0.15638  1.0000
  H   H1659     1.0  0.92629  0.73827  0.16945  1.0000
  C   C938      1.0  0.51066  0.96703  0.19113  1.0000
  H   H1660     1.0  0.56487  0.56958  0.17884  1.0000
  H   H1661     1.0  0.76352  0.80283  0.18205  1.0000
  H   H1662     1.0  0.92845  0.63735  0.19038  1.0000
  H   H1663     1.0  0.92107  0.58105  0.20074  1.0000
  H   H1664     1.0  0.87756  0.98164  0.08257  1.0000
  H   H1665     1.0  0.93830  0.68717  0.22840  1.0000
  H   H1666     1.0  0.92816  0.73478  0.22425  1.0000
  H   H1667     1.0  0.82373  0.84544  0.01931  1.0000
  C   C939      1.0  0.93711  0.77590  0.32392  1.0000
  C   C940      1.0  0.89807  0.97844  0.09298  1.0000
  C   C941      1.0  0.51699  0.61868  0.26540  1.0000
  H   H1668     1.0  0.49844  0.68254  0.27281  1.0000
  C   C942      1.0  0.51877  0.61913  0.23660  1.0000
  H   H1669     1.0  0.94767  0.76414  0.30712  1.0000
  C   C943      1.0  0.89449  0.98416  0.12402  1.0000
  C   C944      1.0  0.57036  0.54684  0.17816  1.0000
  H   H1670     1.0  0.94992  0.99075  0.11273  1.0000
  H   H1671     1.0  0.90251  0.86426  0.02682  1.0000
  H   H1672     1.0  0.90834  0.83546  0.28653  1.0000
  S   S208      1.0  0.51152  0.57158  0.14110  1.0000
  H   H1673     1.0  0.94318  0.82709  0.01988  1.0000
  H   H1674     1.0  0.86680  0.82034  0.03940  1.0000
  H   H1675     1.0  0.99104  0.96576  0.16125  1.0000
  H   H1676     1.0  0.52746  0.83223  0.01446  1.0000
  H   H1677     1.0  0.92937  0.89188  0.06040  1.0000
  C   C945      1.0  0.55989  0.53181  0.20383  1.0000
  H   H1678     1.0  0.50151  0.84001  0.04012  1.0000
  C   C946      1.0  0.54409  0.54865  0.01353  1.0000
  H   H1679     1.0  0.50040  0.60687  0.27517  1.0000
  H   H1680     1.0  0.98833  0.72116  0.30180  1.0000
  H   H1681     1.0  0.99082  0.58269  0.23416  1.0000
  H   H1682     1.0  0.50326  0.77643  0.16762  1.0000
  C   C947      1.0  0.91495  0.49888  0.15318  1.0000
  N   N53       1.0  0.92110  0.99489  0.07900  1.0000
  H   H1683     1.0  0.89773  0.99321  0.04114  1.0000
  C   C948      1.0  0.51510  0.72316  0.28277  1.0000
  H   H1684     1.0  0.50940  0.68654  0.30779  1.0000
  H   H1685     1.0  0.89015  0.87379  0.33545  1.0000
  H   H1686     1.0  0.99289  0.76786  0.33357  1.0000
  C   C949      1.0  0.92436  0.82434  0.33858  1.0000
  H   H1687     1.0  0.99521  0.76324  0.09712  1.0000
  H   H1688     1.0  0.97574  0.99650  0.05514  1.0000
  C   C950      1.0  0.92284  0.95521  0.00855  1.0000
  C   C951      1.0  0.92098  0.99784  0.18623  1.0000
  C   C952      1.0  0.97325  0.80959  0.33832  1.0000
  H   H1689     1.0  0.98125  0.83159  0.33689  1.0000
  Fe  Fe105     1.0  0.72231  0.88420  0.64016  1.0000
  S   S209      1.0  0.76703  0.89695  0.63408  1.0000
  S   S210      1.0  0.68641  0.91552  0.63596  1.0000
  Fe  Fe106     1.0  0.73871  0.82442  0.65685  1.0000
  S   S211      1.0  0.78481  0.83390  0.65239  1.0000
  H   H1690     1.0  0.82222  0.64648  0.42989  1.0000
  H   H1691     1.0  0.54677  0.70622  0.59433  1.0000
  Fe  Fe107     1.0  0.77216  0.85500  0.61298  1.0000
  S   S212      1.0  0.79984  0.85097  0.57484  1.0000
  H   H1692     1.0  0.62038  0.57076  0.44462  1.0000
  S   S213      1.0  0.72651  0.84343  0.61635  1.0000
  Fe  Fe108     1.0  0.66473  0.58816  0.62326  1.0000
  S   S214      1.0  0.62197  0.56864  0.62214  1.0000
  S   S215      1.0  0.70359  0.56088  0.62365  1.0000
  Fe  Fe109     1.0  0.64155  0.64790  0.62568  1.0000
  S   S216      1.0  0.59734  0.63160  0.62532  1.0000
  C   C953      1.0  0.65403  0.54600  0.53949  1.0000
  C   C954      1.0  0.82010  0.62794  0.41625  1.0000
  Fe  Fe110     1.0  0.61182  0.60283  0.59201  1.0000
  S   S217      1.0  0.58411  0.59623  0.55474  1.0000
  C   C955      1.0  0.77832  0.67657  0.40980  1.0000
  S   S218      1.0  0.65534  0.62045  0.59070  1.0000
  Fe  Fe111     1.0  0.79538  0.79578  0.41812  1.0000
  S   S219      1.0  0.79714  0.74899  0.41146  1.0000
  S   S220      1.0  0.76793  0.81015  0.45399  1.0000
  C   C956      1.0  0.66443  0.74744  0.62871  1.0000
  H   H1693     1.0  0.54055  0.70459  0.46301  1.0000
  Fe  Fe112     1.0  0.78222  0.75760  0.36892  1.0000
  H   H1694     1.0  0.92129  0.81578  0.35964  1.0000
  Fe  Fe113     1.0  0.84043  0.75598  0.39488  1.0000
  S   S221      1.0  0.87270  0.72182  0.40133  1.0000
  S   S222      1.0  0.77776  0.80402  0.37590  1.0000
  S   S223      1.0  0.84044  0.80234  0.40483  1.0000
  N   N54       1.0  0.98492  0.68693  0.46772  1.0000
  H   H1695     1.0  0.59716  0.50464  0.52396  1.0000
  Fe  Fe114     1.0  0.58714  0.65996  0.40496  1.0000
  S   S224      1.0  0.57928  0.70611  0.41030  1.0000
  S   S225      1.0  0.61698  0.64109  0.43640  1.0000
  Fe  Fe115     1.0  0.53576  0.69764  0.39478  1.0000
  H   H1696     1.0  0.68302  0.59754  0.53602  1.0000
  Fe  Fe116     1.0  0.59173  0.70973  0.36625  1.0000
  H   H1697     1.0  0.53463  0.65903  0.50742  1.0000
  S   S226      1.0  0.54258  0.65088  0.39286  1.0000
  S   S227      1.0  0.60168  0.66378  0.36114  1.0000
  H   H1698     1.0  0.61642  0.52786  0.58010  1.0000
  C   C957      1.0  0.98767  0.67757  0.49723  1.0000
  H   H1699     1.0  0.97558  0.66952  0.42785  1.0000
  H   H1700     1.0  0.77131  0.97266  0.51193  1.0000
  C   C958      1.0  0.65732  0.74061  0.35402  1.0000
  S   S228      1.0  0.49703  0.71317  0.41709  1.0000
  C   C959      1.0  0.81366  0.93086  0.58570  1.0000
  H   H1701     1.0  0.95893  0.71585  0.44467  1.0000
  H   H1702     1.0  0.53832  0.64227  0.60126  1.0000
  H   H1703     1.0  0.59949  0.54057  0.53294  1.0000
  C   C960      1.0  0.90840  0.73014  0.39685  1.0000
  C   C961      1.0  0.91853  0.75735  0.40179  1.0000
  C   C962      1.0  0.94749  0.76278  0.40061  1.0000
  C   C963      1.0  0.96634  0.74134  0.39350  1.0000
  C   C964      1.0  0.95610  0.71439  0.38755  1.0000
  C   C965      1.0  0.92725  0.70869  0.38977  1.0000
  H   H1704     1.0  0.90416  0.77391  0.40760  1.0000
  H   H1705     1.0  0.95532  0.78360  0.40554  1.0000
  C   C966      1.0  0.66954  0.96975  0.62488  1.0000
  H   H1706     1.0  0.91145  0.72619  0.49320  1.0000
  C   C967      1.0  0.59335  0.60919  0.52206  1.0000
  C   C968      1.0  0.62015  0.61983  0.51672  1.0000
  C   C969      1.0  0.62702  0.62960  0.49039  1.0000
  C   C970      1.0  0.60704  0.62921  0.46925  1.0000
  C   C971      1.0  0.58024  0.61848  0.47454  1.0000
  C   C972      1.0  0.57348  0.60843  0.50084  1.0000
  H   H1707     1.0  0.63567  0.62023  0.53279  1.0000
  H   H1708     1.0  0.64791  0.63752  0.48637  1.0000
  H   H1709     1.0  0.56485  0.61758  0.45828  1.0000
  H   H1710     1.0  0.55275  0.60002  0.50474  1.0000
  C   C973      1.0  0.79071  0.83816  0.54179  1.0000
  C   C974      1.0  0.76312  0.83111  0.53479  1.0000
  C   C975      1.0  0.75656  0.82282  0.50778  1.0000
  C   C976      1.0  0.77761  0.82038  0.48774  1.0000
  C   C977      1.0  0.80528  0.82694  0.49486  1.0000
  C   C978      1.0  0.81169  0.83606  0.52165  1.0000
  H   H1711     1.0  0.74684  0.83233  0.55014  1.0000
  H   H1712     1.0  0.73507  0.81815  0.50241  1.0000
  H   H1713     1.0  0.82167  0.82536  0.47965  1.0000
  H   H1714     1.0  0.83310  0.84146  0.52686  1.0000
  H   H1715     1.0  0.99347  0.62638  0.40567  1.0000
  H   H1716     1.0  0.52357  0.69496  0.50925  1.0000
  C   C979      1.0  0.69083  0.70859  0.64755  1.0000
  C   C980      1.0  0.66754  0.71838  0.63308  1.0000
  H   H1717     1.0  0.65546  0.54338  0.56204  1.0000
  C   C981      1.0  0.68401  0.76672  0.63945  1.0000
  H   H1718     1.0  0.70320  0.63889  0.34651  1.0000
  H   H1719     1.0  0.65409  0.69600  0.34673  1.0000
  H   H1720     1.0  0.89542  0.77454  0.34294  1.0000
  H   H1721     1.0  0.64122  0.56535  0.53668  1.0000
  C   C982      1.0  0.69214  0.95082  0.62550  1.0000
  C   C983      1.0  0.71875  0.96039  0.61787  1.0000
  C   C984      1.0  0.74901  0.91068  0.48423  1.0000
  C   C985      1.0  0.69987  0.52380  0.62204  1.0000
  H   H1722     1.0  0.69603  0.57760  0.56499  1.0000
  C   C986      1.0  0.55310  0.67825  0.55882  1.0000
  H   H1723     1.0  0.73638  0.94632  0.61893  1.0000
  H   H1724     1.0  0.66933  0.88515  0.54969  1.0000
  H   H1725     1.0  0.65728  0.52450  0.60801  1.0000
  C   C987      1.0  0.93169  0.85609  0.34161  1.0000
  N   N55       1.0  0.57312  0.69561  0.54176  1.0000
  C   C988      1.0  0.56986  0.68843  0.51171  1.0000
  C   C989      1.0  0.60257  0.68786  0.55048  1.0000
  C   C990      1.0  0.98020  0.66198  0.44900  1.0000
  C   C991      1.0  0.62681  0.69934  0.53229  1.0000
  C   C992      1.0  0.65533  0.68974  0.54301  1.0000
  H   H1726     1.0  0.55742  0.65536  0.55565  1.0000
  H   H1727     1.0  0.57843  0.70573  0.49882  1.0000
  H   H1728     1.0  0.58262  0.66961  0.50651  1.0000
  H   H1729     1.0  0.60481  0.66451  0.55147  1.0000
  H   H1730     1.0  0.60700  0.69556  0.57155  1.0000
  H   H1731     1.0  0.54132  0.77146  0.57209  1.0000
  H   H1732     1.0  0.78195  0.67102  0.34993  1.0000
  H   H1733     1.0  0.57433  0.68096  0.59902  1.0000
  H   H1734     1.0  0.62702  0.72268  0.53220  1.0000
  H   H1735     1.0  0.62501  0.69176  0.51087  1.0000
  H   H1736     1.0  0.65628  0.66642  0.54419  1.0000
  H   H1737     1.0  0.67215  0.69701  0.52899  1.0000
  H   H1738     1.0  0.65939  0.69870  0.56366  1.0000
  H   H1739     1.0  0.69867  0.53479  0.53586  1.0000
  H   H1740     1.0  0.73877  0.66592  0.37499  1.0000
  H   H1741     1.0  0.83590  0.93692  0.58237  1.0000
  H   H1742     1.0  0.73873  0.93081  0.47871  1.0000
  H   H1743     1.0  0.83610  0.62916  0.39981  1.0000
  C   C993      1.0  0.71582  0.73249  0.35117  1.0000
  H   H1744     1.0  0.72105  0.95175  0.51586  1.0000
  H   H1745     1.0  0.81461  0.70078  0.37176  1.0000
  H   H1746     1.0  0.92469  0.67899  0.45202  1.0000
  C   C994      1.0  0.76237  0.67176  0.43710  1.0000
  H   H1747     1.0  0.73663  0.63806  0.39935  1.0000
  S   S229      1.0  0.64063  0.69545  0.62206  1.0000
  Fe  Fe117     1.0  0.61210  0.59943  0.65555  1.0000
  H   H1748     1.0  0.57550  0.73248  0.56782  1.0000
  C   C995      1.0  0.76440  0.69765  0.45566  1.0000
  S   S230      1.0  0.72853  0.78069  0.67301  1.0000
  H   H1749     1.0  0.81340  0.91049  0.59684  1.0000
  Fe  Fe118     1.0  0.82280  0.80674  0.36203  1.0000
  C   C996      1.0  0.63973  0.52287  0.49579  1.0000
  H   H1750     1.0  0.57183  0.50860  0.59674  1.0000
  H   H1751     1.0  0.60637  0.55458  0.49039  1.0000
  H   H1752     1.0  0.64127  0.56906  0.49034  1.0000
  C   C997      1.0  0.67584  0.76354  0.35651  1.0000
  H   H1753     1.0  0.93099  0.67813  0.48848  1.0000
  H   H1754     1.0  0.89744  0.86357  0.37043  1.0000
  C   C998      1.0  0.53283  0.66471  0.60495  1.0000
  H   H1755     1.0  0.73978  0.66770  0.43342  1.0000
  H   H1756     1.0  0.77132  0.65375  0.44857  1.0000
  H   H1757     1.0  0.52340  0.72705  0.55124  1.0000
  C   C999      1.0  0.72243  0.50637  0.62924  1.0000
  C   C1000     1.0  0.84024  0.67842  0.34296  1.0000
  H   H1758     1.0  0.53384  0.66876  0.62732  1.0000
  C   C1001     1.0  0.79550  0.65943  0.36473  1.0000
  C   C1002     1.0  0.70641  0.75706  0.65529  1.0000
  H   H1759     1.0  0.78307  0.92821  0.50753  1.0000
  H   H1760     1.0  0.58422  0.73896  0.53336  1.0000
  C   C1003     1.0  0.56952  0.72680  0.54646  1.0000
  C   C1004     1.0  0.93066  0.69188  0.47014  1.0000
  H   H1761     1.0  0.75486  0.71626  0.44558  1.0000
  H   H1762     1.0  0.75305  0.69359  0.47511  1.0000
  H   H1763     1.0  0.78664  0.70248  0.46065  1.0000
  C   C1005     1.0  0.67351  0.99796  0.61671  1.0000
  N   N56       1.0  0.77902  0.65191  0.39021  1.0000
  H   H1764     1.0  0.74204  0.51571  0.63580  1.0000
  C   C1006     1.0  0.53851  0.68241  0.46995  1.0000
  C   C1007     1.0  0.57430  0.51364  0.57467  1.0000
  H   H1765     1.0  0.64885  0.96255  0.63073  1.0000
  H   H1766     1.0  0.76871  0.69510  0.39945  1.0000
  C   C1008     1.0  0.74907  0.64600  0.38171  1.0000
  C   C1009     1.0  0.54002  0.68091  0.50113  1.0000
  H   H1767     1.0  0.80927  0.91031  0.54693  1.0000
  H   H1768     1.0  0.68555  0.55448  0.50712  1.0000
  N   N57       1.0  0.66238  0.75320  0.44969  1.0000
  C   C1010     1.0  0.67996  0.77050  0.43020  1.0000
  C   C1011     1.0  0.65881  0.72337  0.43898  1.0000
  C   C1012     1.0  0.63360  0.76649  0.45062  1.0000
  C   C1013     1.0  0.67429  0.75332  0.47828  1.0000
  C   C1014     1.0  0.70477  0.74272  0.48140  1.0000
  C   C1015     1.0  0.68679  0.80118  0.43903  1.0000
  C   C1016     1.0  0.61113  0.75070  0.46785  1.0000
  C   C1017     1.0  0.68370  0.71019  0.42308  1.0000
  C   C1018     1.0  0.67778  0.67946  0.41577  1.0000
  C   C1019     1.0  0.71618  0.74889  0.51006  1.0000
  C   C1020     1.0  0.70329  0.81642  0.41664  1.0000
  C   C1021     1.0  0.58233  0.76437  0.46460  1.0000
  H   H1769     1.0  0.66933  0.77134  0.40997  1.0000
  H   H1770     1.0  0.70061  0.76061  0.42628  1.0000
  H   H1771     1.0  0.65316  0.70873  0.45594  1.0000
  H   H1772     1.0  0.64092  0.72230  0.42424  1.0000
  H   H1773     1.0  0.62515  0.76878  0.42938  1.0000
  H   H1774     1.0  0.63462  0.78812  0.45925  1.0000
  H   H1775     1.0  0.67297  0.77487  0.48726  1.0000
  H   H1776     1.0  0.66146  0.73977  0.49197  1.0000
  H   H1777     1.0  0.71922  0.75285  0.46660  1.0000
  H   H1778     1.0  0.70530  0.71954  0.47861  1.0000
  H   H1779     1.0  0.66762  0.81367  0.44281  1.0000
  H   H1780     1.0  0.69984  0.80135  0.45787  1.0000
  H   H1781     1.0  0.61658  0.75147  0.48991  1.0000
  H   H1782     1.0  0.60906  0.72832  0.46162  1.0000
  H   H1783     1.0  0.68690  0.72161  0.40359  1.0000
  H   H1784     1.0  0.70353  0.71115  0.43469  1.0000
  H   H1785     1.0  0.69502  0.67112  0.40296  1.0000
  H   H1786     1.0  0.67603  0.66645  0.43457  1.0000
  H   H1787     1.0  0.65801  0.67767  0.40380  1.0000
  H   H1788     1.0  0.70313  0.73853  0.52597  1.0000
  H   H1789     1.0  0.73796  0.74085  0.51179  1.0000
  H   H1790     1.0  0.71666  0.77192  0.51399  1.0000
  H   H1791     1.0  0.72270  0.80467  0.41152  1.0000
  H   H1792     1.0  0.69037  0.81864  0.39786  1.0000
  H   H1793     1.0  0.70945  0.83775  0.42390  1.0000
  H   H1794     1.0  0.57547  0.76367  0.44285  1.0000
  H   H1795     1.0  0.56658  0.75283  0.47701  1.0000
  H   H1796     1.0  0.58290  0.78666  0.47157  1.0000
  H   H1797     1.0  0.91951  0.68759  0.38598  1.0000
  H   H1798     1.0  0.77892  0.88197  0.46519  1.0000
  C   C1022     1.0  0.72260  0.98831  0.60897  1.0000
  C   C1023     1.0  0.76863  0.90247  0.46080  1.0000
  H   H1799     1.0  0.68111  0.78913  0.63656  1.0000
  N   N58       1.0  0.74879  0.92248  0.53636  1.0000
  C   C1024     1.0  0.76542  0.91354  0.51151  1.0000
  C   C1025     1.0  0.76707  0.92104  0.56168  1.0000
  C   C1026     1.0  0.72486  0.90179  0.53960  1.0000
  H   H1800     1.0  0.96128  0.72378  0.48003  1.0000
  C   C1027     1.0  0.54010  0.73893  0.54047  1.0000
  H   H1801     1.0  0.81215  0.59994  0.45082  1.0000
  C   C1028     1.0  0.70759  0.90373  0.56647  1.0000
  C   C1029     1.0  0.79884  0.92779  0.55812  1.0000
  H   H1802     1.0  0.97037  0.80537  0.36061  1.0000
  H   H1803     1.0  0.53600  0.73855  0.51812  1.0000
  C   C1030     1.0  0.68432  0.88147  0.56670  1.0000
  H   H1804     1.0  0.77532  0.89266  0.51552  1.0000
  C   C1031     1.0  0.74488  0.62418  0.35829  1.0000
  H   H1805     1.0  0.75855  0.93498  0.57795  1.0000
  H   H1806     1.0  0.76658  0.89944  0.57049  1.0000
  H   H1807     1.0  0.73289  0.87987  0.53815  1.0000
  H   H1808     1.0  0.70941  0.90426  0.52271  1.0000
  Fe  Fe119     1.0  0.77523  0.87466  0.67397  1.0000
  C   C1032     1.0  0.79050  0.62563  0.40342  1.0000
  H   H1809     1.0  0.77575  0.61768  0.41930  1.0000
  H   H1810     1.0  0.70314  0.61058  0.37126  1.0000
  H   H1811     1.0  0.73291  0.89381  0.48555  1.0000
  S   S231      1.0  0.65545  0.61755  0.65851  1.0000
  H   H1812     1.0  0.69735  0.92454  0.56865  1.0000
  H   H1813     1.0  0.72094  0.90019  0.58472  1.0000
  H   H1814     1.0  0.80253  0.94736  0.54643  1.0000
  H   H1815     1.0  0.97454  0.65849  0.50088  1.0000
  H   H1816     1.0  0.65019  0.54754  0.44472  1.0000
  C   C1033     1.0  0.62829  0.55086  0.48379  1.0000
  N   N59       1.0  0.63977  0.52081  0.52661  1.0000
  H   H1817     1.0  0.79191  0.60825  0.38822  1.0000
  H   H1818     1.0  0.96153  0.64965  0.45558  1.0000
  H   H1819     1.0  0.80350  0.94733  0.59842  1.0000
  H   H1820     1.0  0.69328  0.85999  0.56477  1.0000
  H   H1821     1.0  0.67260  0.88264  0.58630  1.0000
  H   H1822     1.0  0.79972  0.68361  0.41553  1.0000
  C   C1034     1.0  0.69731  0.70980  0.34732  1.0000
  H   H1823     1.0  0.69376  0.68623  0.65051  1.0000
  C   C1035     1.0  0.95965  0.70594  0.46528  1.0000
  C   C1036     1.0  0.82689  0.60185  0.43331  1.0000
  C   C1037     1.0  0.60532  0.51257  0.56695  1.0000
  H   H1824     1.0  0.61489  0.53318  0.44463  1.0000
  H   H1825     1.0  0.72372  0.95701  0.55152  1.0000
  C   C1038     1.0  0.55329  0.68423  0.59004  1.0000
  Fe  Fe120     1.0  0.55606  0.65910  0.34923  1.0000
  H   H1826     1.0  0.90709  0.72865  0.45650  1.0000
  H   H1827     1.0  0.88698  0.70337  0.47572  1.0000
  H   H1828     1.0  0.97044  0.69777  0.38196  1.0000
  H   H1829     1.0  0.78498  0.91887  0.45768  1.0000
  H   H1830     1.0  0.51704  0.77805  0.54458  1.0000
  C   C1039     1.0  0.69587  0.57919  0.54231  1.0000
  H   H1831     1.0  0.53107  0.68110  0.55227  1.0000
  H   H1832     1.0  0.66115  0.51938  0.48743  1.0000
  C   C1040     1.0  0.67471  0.51145  0.61355  1.0000
  H   H1833     1.0  0.75643  0.90018  0.44155  1.0000
  H   H1834     1.0  0.71776  0.58273  0.53534  1.0000
  C   C1041     1.0  0.68442  0.55207  0.52964  1.0000
  C   C1042     1.0  0.73625  0.95143  0.53312  1.0000
  C   C1043     1.0  0.90773  0.71394  0.47414  1.0000
  C   C1044     1.0  0.53815  0.76968  0.54962  1.0000
  C   C1045     1.0  0.71371  0.61907  0.35274  1.0000
  H   H1835     1.0  0.94874  0.85892  0.35687  1.0000
  H   H1836     1.0  0.64649  0.75516  0.61747  1.0000
  C   C1046     1.0  0.62852  0.55040  0.45252  1.0000
  C   C1047     1.0  0.60973  0.51983  0.53631  1.0000
  H   H1837     1.0  0.51101  0.66844  0.59790  1.0000
  H   H1838     1.0  0.51794  0.67416  0.46280  1.0000
  H   H1839     1.0  0.84853  0.60365  0.44160  1.0000
  H   H1840     1.0  0.55533  0.66971  0.46034  1.0000
  H   H1841     1.0  0.55409  0.78276  0.53892  1.0000
  H   H1842     1.0  0.62674  0.50566  0.48682  1.0000
  H   H1843     1.0  0.64881  0.53060  0.66281  1.0000
  H   H1844     1.0  0.94459  0.76571  0.34309  1.0000
  S   S232      1.0  0.62092  0.74637  0.35707  1.0000
  H   H1845     1.0  0.83473  0.67273  0.38600  1.0000
  C   C1048     1.0  0.70988  0.72794  0.65911  1.0000
  H   H1846     1.0  0.91308  0.89500  0.35622  1.0000
  S   S233      1.0  0.82564  0.76097  0.35166  1.0000
  C   C1049     1.0  0.90651  0.87304  0.35161  1.0000
  S   S234      1.0  0.75221  0.72646  0.34938  1.0000
  H   H1847     1.0  0.59808  0.52522  0.67371  1.0000
  H   H1848     1.0  0.82563  0.58248  0.42056  1.0000
  H   H1849     1.0  0.56572  0.53507  0.57109  1.0000
  S   S235      1.0  0.54716  0.70564  0.35097  1.0000
  C   C1050     1.0  0.70503  0.75943  0.35581  1.0000
  C   C1051     1.0  0.66816  0.71371  0.34926  1.0000
  H   H1850     1.0  0.97906  0.69379  0.51142  1.0000
  C   C1052     1.0  0.82158  0.67874  0.36836  1.0000
  H   H1851     1.0  0.56696  0.68310  0.66737  1.0000
  H   H1852     1.0  0.66754  0.78449  0.35966  1.0000
  H   H1853     1.0  0.71911  0.77714  0.35843  1.0000
  H   H1854     1.0  0.76941  0.97919  0.54851  1.0000
  H   H1855     1.0  0.75424  0.60356  0.36357  1.0000
  C   C1053     1.0  0.75704  0.97617  0.52948  1.0000
  H   H1856     1.0  0.74323  0.99537  0.60279  1.0000
  H   H1857     1.0  0.97878  0.60492  0.43272  1.0000
  C   C1054     1.0  0.61116  0.50672  0.66826  1.0000
  H   H1858     1.0  0.72730  0.72038  0.67121  1.0000
  H   H1859     1.0  0.73726  0.56803  0.67431  1.0000
  H   H1860     1.0  0.85804  0.69325  0.34597  1.0000
  H   H1861     1.0  0.60901  0.50279  0.64594  1.0000
  H   H1862     1.0  0.61622  0.98974  0.66772  1.0000
  H   H1863     1.0  0.80214  0.63993  0.35383  1.0000
  H   H1864     1.0  0.70550  0.68909  0.34304  1.0000
  S   S236      1.0  0.80155  0.89882  0.70543  1.0000
  S   S237      1.0  0.58433  0.58503  0.69048  1.0000
  Fe  Fe121     1.0  0.81610  0.90353  0.86853  1.0000
  S   S238      1.0  0.83215  0.94764  0.86381  1.0000
  S   S239      1.0  0.80056  0.87520  0.83396  1.0000
  Fe  Fe122     1.0  0.82314  0.90524  0.93191  1.0000
  S   S240      1.0  0.83880  0.94991  0.93131  1.0000
  S   S241      1.0  0.82024  0.87674  0.96934  1.0000
  Fe  Fe123     1.0  0.80447  0.95710  0.90012  1.0000
  H   H1865     1.0  0.98869  0.57672  0.92587  1.0000
  Fe  Fe124     1.0  0.86475  0.93604  0.89526  1.0000
  C   C1055     1.0  0.96169  0.54241  0.93910  1.0000
  S   S242      1.0  0.78690  0.91338  0.90333  1.0000
  S   S243      1.0  0.85048  0.89094  0.89734  1.0000
  Fe  Fe125     1.0  0.59269  0.55315  0.84923  1.0000
  H   H1866     1.0  0.72483  0.65085  0.71988  1.0000
  S   S244      1.0  0.61632  0.57827  0.81677  1.0000
  Fe  Fe126     1.0  0.56831  0.55705  0.90752  1.0000
  C   C1056     1.0  0.86812  0.51710  0.98745  1.0000
  S   S245      1.0  0.55613  0.58877  0.94051  1.0000
  H   H1867     1.0  0.73287  0.92639  0.71784  1.0000
  H   H1868     1.0  0.85710  0.80335  0.93363  1.0000
  C   C1057     1.0  0.88807  0.98131  0.80384  1.0000
  H   H1869     1.0  0.89247  0.81673  0.93551  1.0000
  S   S246      1.0  0.61234  0.55401  0.89123  1.0000
  S   S247      1.0  0.54887  0.55977  0.86541  1.0000
  C   C1058     1.0  0.54932  0.58121  0.97544  1.0000
  C   C1059     1.0  0.93443  0.96486  0.88362  1.0000
  H   H1870     1.0  0.70062  0.96676  0.73190  1.0000
  C   C1060     1.0  0.65084  0.72717  0.71193  1.0000
  H   H1871     1.0  0.94242  0.55463  0.93442  1.0000
  H   H1872     1.0  0.63240  0.53671  0.71146  1.0000
  H   H1873     1.0  0.55640  0.53659  0.97250  1.0000
  C   C1061     1.0  0.71904  0.96156  0.69245  1.0000
  H   H1874     1.0  0.70783  0.57756  0.72947  1.0000
  C   C1062     1.0  0.60846  0.97979  0.96588  1.0000
  C   C1063     1.0  0.63691  0.94106  0.81538  1.0000
  H   H1875     1.0  0.69003  0.94092  0.91533  1.0000
  H   H1876     1.0  0.60414  0.97675  0.94375  1.0000
  C   C1064     1.0  0.70593  0.52686  0.98698  1.0000
  H   H1877     1.0  0.54040  0.62459  0.98516  1.0000
  H   H1878     1.0  0.93911  0.90798  0.75590  1.0000
  C   C1065     1.0  0.69868  0.96017  0.90693  1.0000
  H   H1879     1.0  0.65588  0.72815  0.68970  1.0000
  C   C1066     1.0  0.54147  0.60331  0.99301  1.0000
  H   H1880     1.0  0.60200  0.66453  0.75495  1.0000
  H   H1881     1.0  0.51106  0.62384  0.90645  1.0000
  H   H1882     1.0  0.74122  0.94921  0.91710  1.0000
  Fe  Fe127     1.0  0.54709  0.51243  0.86791  1.0000
  C   C1067     1.0  0.91311  0.51092  0.96014  1.0000
  C   C1068     1.0  0.72777  0.96472  0.90776  1.0000
  H   H1883     1.0  0.56176  0.64739  0.67894  1.0000
  H   H1884     1.0  0.98360  0.53310  0.84877  1.0000
  H   H1885     1.0  0.61265  0.56546  0.95107  1.0000
  H   H1886     1.0  0.64645  0.59494  0.92270  1.0000
  H   H1887     1.0  0.61190  0.65948  0.67850  1.0000
  C   C1069     1.0  0.59438  0.58222  0.72524  1.0000
  C   C1070     1.0  0.57605  0.56896  0.74371  1.0000
  C   C1071     1.0  0.58276  0.56700  0.77171  1.0000
  C   C1072     1.0  0.60776  0.57863  0.78153  1.0000
  C   C1073     1.0  0.62635  0.59151  0.76299  1.0000
  C   C1074     1.0  0.61979  0.59319  0.73491  1.0000
  H   H1888     1.0  0.55640  0.56035  0.73637  1.0000
  H   H1889     1.0  0.56832  0.55700  0.78579  1.0000
  H   H1890     1.0  0.64580  0.60041  0.77049  1.0000
  H   H1891     1.0  0.63409  0.60336  0.72088  1.0000
  C   C1075     1.0  0.80057  0.89230  0.74115  1.0000
  C   C1076     1.0  0.81235  0.91216  0.75928  1.0000
  C   C1077     1.0  0.81239  0.90740  0.78777  1.0000
  C   C1078     1.0  0.80110  0.88245  0.79836  1.0000
  C   C1079     1.0  0.78942  0.86262  0.78024  1.0000
  C   C1080     1.0  0.78890  0.86759  0.75181  1.0000
  H   H1892     1.0  0.82139  0.93135  0.75119  1.0000
  H   H1893     1.0  0.82107  0.92297  0.80153  1.0000
  H   H1894     1.0  0.78073  0.84322  0.78822  1.0000
  H   H1895     1.0  0.77995  0.85206  0.73809  1.0000
  H   H1896     1.0  0.59979  0.65222  0.71240  1.0000
  H   H1897     1.0  0.67597  0.94483  0.79355  1.0000
  H   H1898     1.0  0.88396  0.77944  0.97014  1.0000
  H   H1899     1.0  0.66178  0.54889  0.94313  1.0000
  H   H1900     1.0  0.62636  0.95704  0.80242  1.0000
  H   H1901     1.0  0.53340  0.92537  0.94130  1.0000
  C   C1081     1.0  0.73929  0.98946  0.89706  1.0000
  H   H1902     1.0  0.67175  0.55279  0.74953  1.0000
  H   H1903     1.0  0.96152  0.52019  0.77299  1.0000
  H   H1904     1.0  0.93240  0.54100  0.85395  1.0000
  H   H1905     1.0  0.49748  0.59741  0.94917  1.0000
  H   H1906     1.0  0.63090  0.75585  0.74151  1.0000
  H   H1907     1.0  0.65408  0.61528  0.95313  1.0000
  C   C1082     1.0  0.68173  0.50620  0.89891  1.0000
  H   H1908     1.0  0.68034  0.93183  0.85521  1.0000
  H   H1909     1.0  0.69272  0.63081  0.71774  1.0000
  N   N60       1.0  0.90874  0.93063  0.80370  1.0000
  C   C1083     1.0  0.90754  0.90401  0.82057  1.0000
  C   C1084     1.0  0.93738  0.94435  0.80608  1.0000
  C   C1085     1.0  0.88747  0.95082  0.81546  1.0000
  C   C1086     1.0  0.90099  0.92541  0.77413  1.0000
  C   C1087     1.0  0.91696  0.90169  0.75907  1.0000
  C   C1088     1.0  0.87893  0.88836  0.82105  1.0000
  H   H1910     1.0  0.66924  0.78233  0.71707  1.0000
  N   N61       1.0  0.67562  0.52391  0.71534  1.0000
  H   H1911     1.0  0.63549  0.79923  0.71481  1.0000
  C   C1089     1.0  0.90421  0.89631  0.73079  1.0000
  C   C1090     1.0  0.88149  0.85986  0.83535  1.0000
  C   C1091     1.0  0.69500  0.49996  0.70797  1.0000
  H   H1912     1.0  0.91325  0.90884  0.84220  1.0000
  H   H1913     1.0  0.92344  0.88856  0.81374  1.0000
  H   H1914     1.0  0.61694  0.64843  0.80024  1.0000
  H   H1915     1.0  0.71975  0.96429  0.81158  1.0000
  H   H1916     1.0  0.89016  0.95246  0.83808  1.0000
  H   H1917     1.0  0.86585  0.94272  0.81214  1.0000
  H   H1918     1.0  0.87812  0.92091  0.77221  1.0000
  H   H1919     1.0  0.72856  0.54798  0.71934  1.0000
  H   H1920     1.0  0.91607  0.88147  0.77033  1.0000
  H   H1921     1.0  0.65902  0.67821  0.68560  1.0000
  H   H1922     1.0  0.86314  0.90080  0.83247  1.0000
  H   H1923     1.0  0.87089  0.88434  0.80011  1.0000
  H   H1924     1.0  0.62871  0.94291  0.83661  1.0000
  H   H1925     1.0  0.50400  0.54773  0.94984  1.0000
  C   C1092     1.0  0.55064  0.55381  0.98585  1.0000
  C   C1093     1.0  0.72802  0.58171  0.69041  1.0000
  H   H1926     1.0  0.99253  0.95068  0.78589  1.0000
  H   H1927     1.0  0.90051  0.95865  0.00301  1.0000
  H   H1928     1.0  0.63647  0.50022  0.71706  1.0000
  H   H1929     1.0  0.88204  0.88921  0.73266  1.0000
  C   C1094     1.0  0.83381  0.88592  0.00198  1.0000
  H   H1930     1.0  0.91620  0.87955  0.72011  1.0000
  H   H1931     1.0  0.89545  0.84563  0.82357  1.0000
  H   H1932     1.0  0.88996  0.86254  0.85638  1.0000
  H   H1933     1.0  0.86046  0.84983  0.83680  1.0000
  C   C1095     1.0  0.67722  0.51297  0.98037  1.0000
  H   H1934     1.0  0.63354  0.52244  0.76048  1.0000
  H   H1935     1.0  0.90440  0.94473  0.76175  1.0000
  C   C1096     1.0  0.51009  0.96337  0.95083  1.0000
  H   H1936     1.0  0.67412  0.98762  0.76106  1.0000
  C   C1097     1.0  0.63057  0.57658  0.96073  1.0000
  C   C1098     1.0  0.98206  0.98237  0.87630  1.0000
  H   H1937     1.0  0.97196  0.94148  0.89285  1.0000
  C   C1099     1.0  0.76004  0.95372  0.82851  1.0000
  H   H1938     1.0  0.74982  0.51552  0.99111  1.0000
  H   H1939     1.0  0.88573  0.98138  0.78128  1.0000
  H   H1940     1.0  0.94488  0.50926  0.91368  1.0000
  H   H1941     1.0  0.71314  0.59655  0.68063  1.0000
  S   S248      1.0  0.88661  0.50349  0.86435  1.0000
  H   H1942     1.0  0.65515  0.97953  0.71555  1.0000
  C   C1100     1.0  0.62450  0.66910  0.79243  1.0000
  C   C1101     1.0  0.89532  0.81828  0.99323  1.0000
  C   C1102     1.0  0.71087  0.98084  0.71675  1.0000
  C   C1103     1.0  0.96359  0.96101  0.88494  1.0000
  C   C1104     1.0  0.71323  0.56368  0.71192  1.0000
  C   C1105     1.0  0.95632  0.51061  0.93349  1.0000
  S   S249      1.0  0.56301  0.51035  0.91100  1.0000
  C   C1106     1.0  0.64588  0.51836  0.70610  1.0000
  C   C1107     1.0  0.60964  0.69736  0.70404  1.0000
  H   H1943     1.0  0.74523  0.59399  0.70008  1.0000
  C   C1108     1.0  0.63374  0.69756  0.74935  1.0000
  C   C1109     1.0  0.70342  0.65042  0.71094  1.0000
  H   H1944     1.0  0.64507  0.50965  0.80745  1.0000
  C   C1110     1.0  0.87572  0.80086  0.97416  1.0000
  C   C1111     1.0  0.72758  0.95172  0.82919  1.0000
  C   C1112     1.0  0.96315  0.92472  0.80913  1.0000
  H   H1945     1.0  0.70044  0.94970  0.68507  1.0000
  C   C1113     1.0  0.98523  0.55407  0.92112  1.0000
  H   H1946     1.0  0.93837  0.95801  0.82464  1.0000
  H   H1947     1.0  0.96296  0.91478  0.82974  1.0000
  C   C1114     1.0  0.76988  0.98353  0.82156  1.0000
  S   S250      1.0  0.91233  0.93717  0.89423  1.0000
  H   H1948     1.0  0.71883  0.53207  0.89578  1.0000
  H   H1949     1.0  0.71666  0.50430  0.71520  1.0000
  H   H1950     1.0  0.96722  0.54639  0.96082  1.0000
  H   H1951     1.0  0.61210  0.75276  0.70962  1.0000
  H   H1952     1.0  0.63762  0.65143  0.75446  1.0000
  H   H1953     1.0  0.61062  0.68585  0.80063  1.0000
  H   H1954     1.0  0.72798  0.97359  0.67511  1.0000
  N   N62       1.0  0.71529  0.92233  0.82849  1.0000
  C   C1115     1.0  0.68420  0.92492  0.83369  1.0000
  C   C1116     1.0  0.72825  0.90591  0.85170  1.0000
  H   H1955     1.0  0.92784  0.77731  0.99242  1.0000
  C   C1117     1.0  0.72220  0.90893  0.80116  1.0000
  C   C1118     1.0  0.70077  0.88730  0.78945  1.0000
  C   C1119     1.0  0.66165  0.51931  0.79453  1.0000
  H   H1956     1.0  0.70562  0.53755  0.00716  1.0000
  C   C1120     1.0  0.71870  0.87492  0.85490  1.0000
  C   C1121     1.0  0.73164  0.86162  0.88042  1.0000
  C   C1122     1.0  0.71275  0.87165  0.76474  1.0000
  H   H1957     1.0  0.62340  0.58512  0.98063  1.0000
  N   N63       1.0  0.65177  0.53166  0.98300  1.0000
  C   C1123     1.0  0.63716  0.99357  0.96987  1.0000
  H   H1958     1.0  0.67351  0.90422  0.83220  1.0000
  H   H1959     1.0  0.75135  0.90481  0.84934  1.0000
  H   H1960     1.0  0.72456  0.91699  0.87149  1.0000
  H   H1961     1.0  0.59298  0.70766  0.71645  1.0000
  Fe  Fe128     1.0  0.60548  0.50732  0.89138  1.0000
  H   H1962     1.0  0.72479  0.92523  0.78495  1.0000
  H   H1963     1.0  0.74303  0.89840  0.80222  1.0000
  H   H1964     1.0  0.68150  0.89821  0.78255  1.0000
  H   H1965     1.0  0.69447  0.87134  0.80476  1.0000
  H   H1966     1.0  0.61051  0.70940  0.68441  1.0000
  C   C1124     1.0  0.87212  0.81545  0.94649  1.0000
  H   H1967     1.0  0.96336  0.90774  0.79364  1.0000
  H   H1968     1.0  0.76872  0.94841  0.84897  1.0000
  H   H1969     1.0  0.69563  0.87313  0.85689  1.0000
  H   H1970     1.0  0.72593  0.86233  0.83710  1.0000
  H   H1971     1.0  0.72429  0.83950  0.88245  1.0000
  H   H1972     1.0  0.75489  0.86143  0.87882  1.0000
  H   H1973     1.0  0.72546  0.87341  0.89912  1.0000
  H   H1974     1.0  0.73026  0.85782  0.77120  1.0000
  H   H1975     1.0  0.69626  0.85818  0.75533  1.0000
  H   H1976     1.0  0.72048  0.88665  0.74902  1.0000
  H   H1977     1.0  0.85693  0.52382  0.96861  1.0000
  C   C1125     1.0  0.65600  0.55646  0.96403  1.0000
  H   H1978     1.0  0.69917  0.69508  0.71356  1.0000
  H   H1979     1.0  0.55442  0.67620  0.70180  1.0000
  C   C1126     1.0  0.68077  0.98027  0.89538  1.0000
  H   H1980     1.0  0.66683  0.98176  0.68132  1.0000
  H   H1981     1.0  0.74505  0.51645  0.81893  1.0000
  H   H1982     1.0  0.60663  0.52623  0.98211  1.0000
  S   S251      1.0  0.58923  0.50596  0.84840  1.0000
  C   C1127     1.0  0.63812  0.60188  0.94281  1.0000
  H   H1983     1.0  0.67114  0.72999  0.72285  1.0000
  H   H1984     1.0  0.67234  0.96794  0.82252  1.0000
  C   C1128     1.0  0.53198  0.94748  0.93405  1.0000
  C   C1129     1.0  0.96982  0.51560  0.85344  1.0000
  H   H1985     1.0  0.67382  0.56980  0.97109  1.0000
  C   C1130     1.0  0.71067  0.51136  0.90059  1.0000
  H   H1986     1.0  0.68215  0.50991  0.79995  1.0000
  H   H1987     1.0  0.91752  0.53235  0.96840  1.0000
  H   H1988     1.0  0.52612  0.94720  0.91203  1.0000
  H   H1989     1.0  0.61907  0.61477  0.93918  1.0000
  H   H1990     1.0  0.63179  0.91982  0.80719  1.0000
  H   H1991     1.0  0.91430  0.82434  0.98123  1.0000
  C   C1131     1.0  0.56862  0.66882  0.68530  1.0000
  C   C1132     1.0  0.66854  0.94612  0.81502  1.0000
  H   H1992     1.0  0.90497  0.91572  0.71810  1.0000
  H   H1993     1.0  0.84572  0.92824  0.99129  1.0000
  H   H1994     1.0  0.76900  0.93908  0.81318  1.0000
  H   H1995     1.0  0.64899  0.78010  0.68586  1.0000
  H   H1996     1.0  0.65342  0.70387  0.76004  1.0000
  C   C1133     1.0  0.62575  0.51592  0.97376  1.0000
  H   H1997     1.0  0.92851  0.93338  0.00253  1.0000
  H   H1998     1.0  0.86371  0.83707  0.94926  1.0000
  H   H1999     1.0  0.90800  0.99217  0.80915  1.0000
  H   H2000     1.0  0.97680  0.50046  0.92939  1.0000
  H   H2001     1.0  0.51684  0.96242  0.97258  1.0000
  S   S252      1.0  0.51735  0.97330  0.85515  1.0000
  H   H2002     1.0  0.88372  0.83815  0.99710  1.0000
  H   H2003     1.0  0.68666  0.67596  0.74309  1.0000
  H   H2004     1.0  0.50708  0.99407  0.91860  1.0000
  C   C1134     1.0  0.65707  0.67643  0.70824  1.0000
  H   H2005     1.0  0.69783  0.52651  0.75402  1.0000
  C   C1135     1.0  0.68714  0.67632  0.72041  1.0000
  C   C1136     1.0  0.63326  0.75367  0.71901  1.0000
  C   C1137     1.0  0.74097  0.94003  0.70117  1.0000
  H   H2006     1.0  0.64822  0.65511  0.71166  1.0000
  C   C1138     1.0  0.94085  0.51999  0.85617  1.0000
  N   N64       1.0  0.63762  0.69903  0.71872  1.0000
  S   S253      1.0  0.64447  0.97313  0.89470  1.0000
  H   H2007     1.0  0.64620  0.67248  0.80007  1.0000
  H   H2008     1.0  0.97963  0.55215  0.89916  1.0000
  H   H2009     1.0  0.72046  0.96310  0.84785  1.0000
  H   H2010     1.0  0.59172  0.99290  0.97516  1.0000
  C   C1139     1.0  0.67636  0.53010  0.74575  1.0000
  C   C1140     1.0  0.62395  0.66891  0.76115  1.0000
  C   C1141     1.0  0.59887  0.66768  0.69553  1.0000
  H   H2011     1.0  0.61790  0.71322  0.75614  1.0000
  C   C1142     1.0  0.68606  0.54976  0.70034  1.0000
  C   C1143     1.0  0.65505  0.51433  0.76429  1.0000
  C   C1144     1.0  0.99056  0.94131  0.80662  1.0000
  H   H2012     1.0  0.73044  0.98817  0.72700  1.0000
  H   H2013     1.0  0.55292  0.95750  0.93635  1.0000
  H   H2014     1.0  0.65307  0.97913  0.96097  1.0000
  H   H2015     1.0  0.66769  0.52283  0.89267  1.0000
  H   H2016     1.0  0.94117  0.95878  0.78849  1.0000
  H   H2017     1.0  0.70539  0.65029  0.68828  1.0000
  H   H2018     1.0  0.76051  0.95067  0.70810  1.0000
  C   C1145     1.0  0.50746  0.99450  0.94141  1.0000
  H   H2019     1.0  0.62355  0.51707  0.95104  1.0000
  H   H2020     1.0  0.67858  0.50462  0.95908  1.0000
  H   H2021     1.0  0.66968  0.56647  0.70006  1.0000
  C   C1146     1.0  0.64769  0.78040  0.70856  1.0000
  H   H2022     1.0  0.99147  0.95843  0.82215  1.0000
  H   H2023     1.0  0.76356  0.98924  0.80041  1.0000
  H   H2024     1.0  0.66240  0.54222  0.79913  1.0000
  H   H2025     1.0  0.79307  0.98465  0.82304  1.0000
  H   H2026     1.0  0.85454  0.79885  0.98339  1.0000
  S   S254      1.0  0.73001  0.86389  0.68110  1.0000
  H   H2027     1.0  0.95141  0.51194  0.99539  1.0000
  H   H2028     1.0  0.90186  0.51419  0.94033  1.0000
  H   H2029     1.0  0.90137  0.99323  0.87236  1.0000
  H   H2030     1.0  0.60547  0.99114  0.70333  1.0000
  H   H2031     1.0  0.84354  0.98973  0.80953  1.0000
  H   H2032     1.0  0.82884  0.51816  0.78448  1.0000
  H   H2033     1.0  0.85079  0.51133  0.81372  1.0000
  H   H2034     1.0  0.93626  0.97012  0.99688  1.0000
  H   H2035     1.0  0.69003  0.54468  0.67847  1.0000
  C   C1147     1.0  0.92377  0.99007  0.87330  1.0000
  H   H2036     1.0  0.87627  0.53598  0.99836  1.0000
  H   H2037     1.0  0.71160  0.54244  0.97096  1.0000
  C   C1148     1.0  0.66421  0.99440  0.70031  1.0000
  H   H2038     1.0  0.74627  0.92645  0.68346  1.0000
  H   H2039     1.0  0.95395  0.73178  0.00448  1.0000
  H   H2040     1.0  0.99222  0.97665  0.96690  1.0000
  H   H2041     1.0  0.85289  0.50620  0.00103  1.0000
  H   H2042     1.0  0.60822  0.95881  0.97590  1.0000
  C   C1149     1.0  0.83905  0.50130  0.79661  1.0000
  S   S255      1.0  0.77593  0.99528  0.89739  1.0000
  C   C1150     1.0  0.72931  0.50492  0.98770  1.0000
  H   H2043     1.0  0.91648  0.50279  0.78957  1.0000
  S   S256      1.0  0.76483  0.49808  0.91282  1.0000
  H   H2044     1.0  0.50071  0.85824  0.97959  1.0000
  H   H2045     1.0  0.64130  0.99534  0.99215  1.0000
  H   H2046     1.0  0.87413  0.49936  0.76941  1.0000
  H   H2047     1.0  0.75438  0.49966  0.85065  1.0000
  C   C1151     1.0  0.84502  0.91263  0.00737  1.0000
  H   H2048     1.0  0.69718  0.49820  0.68532  1.0000
  C   C1152     1.0  0.64193  0.51232  0.67518  1.0000
