data_image0
_chemical_formula_structural       FeHSNHCHS2FeSFeS2FeSFeS3CH4FeSFeS3H2CHCH2SHFeH2C6H4C6H4C6H11SH3CH2C5HCHCH3NHCH3FeHFeH3CHSH4C4HCH4CH5C2HCHC2H2CHNC4HC2HC2HCH5C2H8CH4CH5CHCSCH3CSHNC6H2C2H9CHCH2FeH4CHNSCHCH2NHC4FeHC3HSH2CH5CH6CH2C2H3C3HCH2C2H4CH8SCHCHCHC3FeHCH5CH4FeH2CH2C2SH2C2H4C2HNCH6CH2SHCH4CHC2HCH2CH4SHSH5CH3FeS2FeH2CS2FeSFeS2FeSFeS3HC2HCFeSFeS3HCSH2FeHCH2CHC6H4C6H4C6H5SH6NCHCHC3H3C2HC2H9CH4CSH5SH3CNH4CHC2HC3NC2HSC3H2C2HC2H3CSCHNC12H17CHCH8NHCHC3H3CHFeCFeHSC2H3CH5CH2SHC2HCHCH2CH2C2H2CHSH5NHCHCHC2HCFeH2CH6CHCH7FeH6FeC2H4CH3SCH2CHSC2H2FeS2FeSHFeSFeS3CH6FeSFeS3C6H4C6H4C6H9CH4CHFeH2C2HFeCH5CH3NHSCH4NC4H8CHCHCH7CFeHCH3CHCH2CH4CH3SHC3H4CH2CH2C2HC2H2SH2C3SCH2NC3NCHC2H2SC2H3FeCHNH2CH3CH3CH2CH4C2HCSH2C2HC2H2CH2CH2C2H4C3HNC10SH22S2H2C2HC3SC2HFeH3FeC2H3CH4CH2SHC2H3CNCH2CH6CH2CH3CH3SH6CH3C2FeH2CHCHFeS2FeSHFeSFeS3HCHSHFeHFeSFeS3C6H4C6H4C6H5CHCH5CH2CHNH2CSH2C2HC2H3CHC2HNCH3C3HCH3CH3CH4CNHCH3CSH4NC3H2C4HCH7CHCH3SH2CH3CH5SCH2CH4FeC2H2CH3C2H3CH5CH3CH4C2HC2HCHSCNHCH2SH4C2H4CHCHCH2CH3C2H2C3H3C3H2CH3C2H4NCFeH2C2HSCHSCH3CNHFeHSCH2CH4SCH3SHSCH4CH3C2HCH3CH2C2H4C2H2CHCH6CH2C3H6SHFeCH3FeH2CH5CHNH3CHCHCFeCHCHC2FeSH2SHNSHFe2SH2CS2H3SHSHCFeS2FeSFeH2FeHS2HCH5FeH3CSC3H3C3FeC3H3C4H5CHC2SC3H3CFeCH2CH3CHNC2H11CFeCHCH6CH2C3H2CSH2CSC2HCH3CHFeCH2CHCH6CSCH4CH3CHCH5C3HCH2CH3CH3CH7C2HCHSHC3H2CHCH2CH2CH3C2H2SCHCSCH2CHSH2SCHSHFe2SH2C2HSHCSHSCHFeHSFeSHFeHC2S2C2HNH2C2HCFeH2C2SH7C2H3C2FeC2HCSH5C2HC2SHCHCH3CHC2H3SH3CHFeC2HFeH2C2H2SC2HCHSCHCH4CHCHNC3HC5HCH3NH3CH12CHCH6C2HNC5HC2SHC2FeC3H10CH5FeCH2CHSH4FeCH3C2HCHCH7FeSFeS2Fe2S2FeHSFeCS2C3S2H4C2H3CH4CHCH4CSHCH2CH3CHFeHCSFeC6H4C2H2CH2NCHC5H2C3HNH6CH5SCH2CH4CH2CH3CFeSH5C2SH2CHC4H2NCH6SC2H4CNC8H3SC2H5CH5CHCH4C2HC4HSH3CH6C3HCH7CH3CH3CH2CH6CH2CH7CH2SHC3HNHC2H4C2H2CH3CH2CHCH8FeH3CHCH3CSCH2CH2CH2CHCH2CFeSFeS2FeHS2HCSFeHSHCH2S2H3CH2SC2H2SH7CHCHCHSCHFeH2CH2C3SC6H4C2H5NC5HC4HCHCH20CFeCH3NC12H26CH2SHSFeNHC3HC3H3CSHCH2C4HCFeC2H2CHCH4SHCH2NH8CH5CH4CHNH3CH9CHCHC2H2CHCH2SCH2CHCH3CH2C2FeC3H2FeH2SHCH2SC4H2CHCH8CH2CHCH3SCHCH2FeS2FeSCFeSFeS3FeHFeHSH4S2HCH3CFeSFeS3HSH4CH3C4HCSCHCH4C3H3C6H2NHC6H4C6H5CSHSHCHSH3C2H2CH4NC10H12CHSH12CH2NC11H19CHCH7CHC2HNH2C4HCH3C2H2CH4C3H2CH2CH9C2HCHCHNC9HC2H7NHSH5C2H3CHFeH2CH4CH3FeHCH4CH2SH2CH5CH5SH2C4H2CSCH3SHFeS2FeSHFeSFeS3FeHFeCSH3CS2CHCH2CFeSFeS3H4SHC2H2CHCHCH2CH2CHNC2H2CH2C6H4C6H4C6H5C4SCH6CH3SCH2CHC2HNC11H28S3CHC2H7C2NCHC4H2C3H4NHCH4CSH2CH7CHCH3NCHC5FeHC2H13C3H3CH8C2HCH5SH2CH4CHCHCHCH3CH5CH3C4H3CH3C2HNHCHSC2H3SHCHNC3H5C2H3CH3CH3CHFeCHCH2C2H3CH2CH3C2HCHCH3FeH2FeHCH5C2HS2FeCSH2SH2FeHC2H2C2HSHCH2C2HNCHC2HC7H2CH3CH3CH5CH2FeH8SH5CNHS2H6CH3CHSC3HCSCSH4C3SHCHCHCH5CH3CHCNCH2C2H6CH5CH2CFeH3CH4CH4C2HC2H5CHNHC4HCNHCSCH5C3HCH5CHNCH3CH2FeC2H3CNHCFeHSCHSCH4C2HCH10C2HFeCSC8H4C2H3C2H5C2H2SHC4S2C2H3CH3NH9CH3CH6CH2SHC2H2C2H2CHCS2H6CH2CH2SCHC2H5FeH6C2SH2CH2CSC2HCH4CH2SH7FeSC4HSHSC2FeC2FeS2Fe3CS2FeS2NC2FeSFeSHSFeSFeHSFeHS2CHS2CH2SHCH2SC6H4C6H4C6H9CH4C4H11C3H4C2H2FeCH3CHNC12H29CHCH2CH4CS2C2H2CH2CSHCNH3CH3C2HNHNHCH3CHCH3CHCHCH3C5H3C3H7CH6FeCH4C2H7CH2CH3C2H5SHCHCSH2CHC2H6CSHCH5CH2CH2CHCHC2HC2HCHC2H3CHCH3CNCH2SHCHNCSHSH2FeH2FeS2CHFeHS2FeS2HFeHFeSFeSHSFeSFeS2FeHS2C4H3CH4C7H4C6H4C6H5FeH2C3HCHC3HCH3CH2CH4CHNH2CH2CH4NCH3C2HCH3CHC2HSH3CH4CH7CH2CSCFeC2SH3CH2C3HC3HCHC2H2C3H9CSH4NC12H24CH3FeH2C2H6CHCH2CHC3HC2H7CHCHCH5CH3C2SH2FeH4C2H3C2SNC2H2CH6NC2HSHCH6CH3CHCH5NSFeHSFeHSH2CHS2FeSHFeSCFe2S3HNSHCH3CH5C2H2C3HCH2C2HSC2H4CH4C6H4C4H3C3HFeNC12H28SH4FeCH2CH3CH5NH3C4HCHCH2CH4C3H2SH3CHC5HSHFeH6CSHCH6CHCHSCHCHFeH6CHSCH2CSHSHCH6NHSH2CHCH3C2H2CFeH3SH2C2FeC3NH3SHCH3C2H2C2HCH2CHCH6CHSHC5FeHCHCH3CHCH3CHC2HCH13C2HC2SHCH3CH2CHC2SFeHSFeHSHSH2S2FeS2FeSHFe2S3H2SH5FeCHSH4CHCFeH3CH5C2H2CHCHCH2C6H4C4H2C4HFeNCHC5H2CH4FeH9CH7SCHNC2HC6H2CH12CH5CSHSCHC2HSC2H2CFeH5C3H2CH7CHCHCHNC9H21CHC2SHNSCH3CH5C2H3CHCHCH5CHCH2CH2CSH5C4SFeHC3H6CHCH2CH3CHCH3CH3C5H3C2H2CHNH2NHCH4CH2CHC4HC2H3SFeH4CHCHCH3CH2CHCH4CFeSHSCSHFeSCSH5CFeCH4SH4C4H3CHFeH3CH2C2H2C2H2CSH2SHC2H2C2H3CNC2S2H4CH2CH4FeH4CFeC2HC4H3C2H6C2H2SCH5CHFeH3CH3SC2HFeCH2CH2SCHC3H2NC2HC2SCH8C3SHNH3CH2CHCHCH2C3HSCH3C2H2CSH2CH2FeHFeH8SCSNFeCFeSH2CHS2HFeH4S2H3C5SH4CFeCHCNH3FeH2C2HCH3C3H5CH3CH2SC2HSC5H4CSHC2H2CH3SC3H8FeHCHC2H5FeH2CHC2HC2SCHC2HCH9C2HCH3CHC2H4C4SH5CHSH2SC2HCHCHC2SH4CNH6NH3CHC2H4CH2FeS2FeHSH6FeSFeS2FeSFeS3CH2CHC2H5CHCHC2HC2HC6H4C6H4C5H2C2NFeHCH2C2H3NH3CH2CH9NHCH2SHSNC2HC3HCHC2H3CH3CHSH6CHCH3NCHCH2C2H4C4H2CH2CH2CH5CH5C5H3SH2CH5CH2C3H2C2HSCHC2HCH2CH5CSHCSH2CH8NCH2CH2Fe2H2CH3CH5CHSH4CHCHCHFeH2C3HCHSHCHCH4CH2CH4SH5CH4SHCH3CHC3H4CHSHCHFeS2FeS2CH2C2SFeSFeS2FeSFeS3CHCH2C4H7CHCH2C7H4C6H4C5H3NC8HCH19CH4NC3HC2HCH6CH6CH8CFeH3FeCSHCH2C2HCH2CNC6HC2H12C2H4C2SCSH10FeC3HSH4SH2CH2SH2CSFeCHCH2CNHSH8C4H3C2HSC3H5CH2CH6CH2C3H4NH2CHCH6C3H3CH8CH3CSHC2H10C3HC2FeS2FeS2CH6SHFeSHFeS2FeS2Fe2S3HC6H5CHCHC6H4C6H6SNH2CH3SHC3H5SHC2NCH2C5HC3H4CH2CH5CH4CH6CH4CHCH4CH3CSH3CHCH2SH2CH3CHCH2C3SH2NCH5NHCNHSH8CH3CHCH4C3H5CH2NC2HC2H2C6NH2SH7CH5FeH7C2FeSCHC3HCH8C2HC3H4NH2CHCHCFeCH2CH3C2H4C3HCHSCH3C2SCH3CH6C2H4SC4H3CH2CHCH2CHSH2C2Fe2S2FeS2H2CH4S2FeSCFeS2FeS2Fe2S3HC6H6SCHC6H4C6H5CH2CH5SHC3HCH2CHSH5CFeHCHSH3CH3NC6HC3H13CH11CNC7HC2H13CHFeH5CH2NC9HC2H19NHCH8C4H4NH3CH2C2H4NH3C2H3CH3CH2CH3C2H2C2HCHCSHC2H4C3HCH4CSH2CHC2H3CH3SCH2CHC2H2C4HNH4C4Fe2HS2H3CSH2SCFeSFeSH2CHC2H3SH5CHCSH5C6HFeH3C4HCH3C3HCNH5CHC3H2CH3CHCH2SCH2CHC2HCH2CHCH2C4HCS2H4CH3FeHCH6C2HC2HC2SH5CH2CHCSH8C2H2CNCH3CHNHCHCH7CFeC2HCHCHS2HC2HC2SH5C2H2FeCHFeCS2C2HCSCHSCFeSFeSH7CHC2HC3H5CH3CH7CH2CHNC3H5C2HCH5C2H2CH2Fe2CH3CH2CHFeHSH2C5HC2H7NHSH2CHC4H2C2HC4H5SHCSH4CSH3CH4FeCHCH2SH3CH5CH3C2NH3FeSH2SC3HCHCH7C2HS2H3SC3HC3H2CHC2H2CH3FeH3
_chemical_formula_sum              "Fe256 H4096 S512 N128 C2304"
_cell_length_a       60.9103
_cell_length_b       61.4235
_cell_length_c       49.5878
_cell_angle_alpha    90.7866
_cell_angle_beta     90.6076
_cell_angle_gamma    84.5818

_space_group_name_H-M_alt    "P 1"
_space_group_IT_number       1

loop_
  _space_group_symop_operation_xyz
  'x, y, z'

loop_
  _atom_site_type_symbol
  _atom_site_label
  _atom_site_symmetry_multiplicity
  _atom_site_fract_x
  _atom_site_fract_y
  _atom_site_fract_z
  _atom_site_occupancy
  Fe  Fe1       1.0  0.20249  0.22645  0.34314  1.0000
  H   H1        1.0  0.17416  0.03130  0.35522  1.0000
  S   S1        1.0  0.17064  0.21069  0.33575  1.0000
  N   N1        1.0  0.05081  0.08682  0.12931  1.0000
  H   H2        1.0  0.18034  0.18161  0.12068  1.0000
  C   C1        1.0  0.19690  0.08067  0.30611  1.0000
  H   H3        1.0  0.23129  0.04807  0.99362  1.0000
  S   S2        1.0  0.21457  0.25256  0.31723  1.0000
  S   S3        1.0  0.20836  0.24457  0.38218  1.0000
  Fe  Fe2       1.0  0.08378  0.10785  0.23230  1.0000
  S   S4        1.0  0.09324  0.07209  0.23753  1.0000
  Fe  Fe3       1.0  0.13168  0.11896  0.23958  1.0000
  S   S5        1.0  0.14389  0.08350  0.24432  1.0000
  S   S6        1.0  0.15917  0.14159  0.24078  1.0000
  Fe  Fe4       1.0  0.12109  0.07707  0.20983  1.0000
  S   S7        1.0  0.12805  0.05206  0.17608  1.0000
  Fe  Fe5       1.0  0.11466  0.08279  0.27131  1.0000
  S   S8        1.0  0.11756  0.06467  0.31063  1.0000
  S   S9        1.0  0.11081  0.11256  0.20289  1.0000
  S   S10       1.0  0.10335  0.11846  0.26819  1.0000
  C   C2        1.0  0.05291  0.07177  0.05220  1.0000
  H   H4        1.0  0.23849  0.28411  0.22365  1.0000
  H   H5        1.0  0.18879  0.04915  0.97946  1.0000
  H   H6        1.0  0.21645  0.32450  0.12216  1.0000
  H   H7        1.0  0.07101  0.06740  0.05148  1.0000
  Fe  Fe6       1.0  0.11052  0.06698  0.01881  1.0000
  S   S11       1.0  0.11773  0.08673  0.05628  1.0000
  Fe  Fe7       1.0  0.11179  0.09721  0.45877  1.0000
  S   S12       1.0  0.11481  0.11748  0.42153  1.0000
  S   S13       1.0  0.09885  0.03343  0.01629  1.0000
  S   S14       1.0  0.10257  0.06289  0.45540  1.0000
  H   H8        1.0  0.22322  0.04993  0.33334  1.0000
  H   H9        1.0  0.23038  0.26589  0.02577  1.0000
  C   C3        1.0  0.05590  0.08725  0.09958  1.0000
  H   H10       1.0  0.24624  0.32444  0.06087  1.0000
  C   C4        1.0  0.22390  0.27714  0.18542  1.0000
  H   H11       1.0  0.03224  0.03427  0.34028  1.0000
  H   H12       1.0  0.17045  0.15681  0.14833  1.0000
  S   S15       1.0  0.04822  0.11952  0.22243  1.0000
  H   H13       1.0  0.23549  0.30637  0.45802  1.0000
  Fe  Fe8       1.0  0.12206  0.02804  0.98119  1.0000
  H   H14       1.0  0.19122  0.08746  0.32584  1.0000
  H   H15       1.0  0.06772  0.16010  0.14322  1.0000
  C   C5        1.0  0.11592  0.07961  0.34124  1.0000
  C   C6        1.0  0.12003  0.06843  0.36547  1.0000
  C   C7        1.0  0.11975  0.07993  0.39014  1.0000
  C   C8        1.0  0.11497  0.10265  0.39083  1.0000
  C   C9        1.0  0.11054  0.11380  0.36664  1.0000
  C   C10       1.0  0.11105  0.10232  0.34191  1.0000
  H   H16       1.0  0.12400  0.05089  0.36514  1.0000
  H   H17       1.0  0.12405  0.07125  0.40846  1.0000
  H   H18       1.0  0.10683  0.13138  0.36700  1.0000
  H   H19       1.0  0.10781  0.11114  0.32346  1.0000
  C   C11       1.0  0.12497  0.06155  0.14273  1.0000
  C   C12       1.0  0.12652  0.08354  0.13702  1.0000
  C   C13       1.0  0.12427  0.09087  0.11038  1.0000
  C   C14       1.0  0.12050  0.07631  0.08918  1.0000
  C   C15       1.0  0.11893  0.05424  0.09478  1.0000
  C   C16       1.0  0.12132  0.04686  0.12153  1.0000
  H   H20       1.0  0.12980  0.09487  0.15306  1.0000
  H   H21       1.0  0.12555  0.10791  0.10609  1.0000
  H   H22       1.0  0.11599  0.04292  0.07852  1.0000
  H   H23       1.0  0.12012  0.02979  0.12582  1.0000
  C   C17       1.0  0.16812  0.19092  0.30983  1.0000
  C   C18       1.0  0.18536  0.18480  0.29206  1.0000
  C   C19       1.0  0.18261  0.16926  0.27144  1.0000
  C   C20       1.0  0.16261  0.15971  0.26834  1.0000
  C   C21       1.0  0.14555  0.16550  0.28646  1.0000
  C   C22       1.0  0.14829  0.18107  0.30706  1.0000
  H   H24       1.0  0.20073  0.19222  0.29402  1.0000
  H   H25       1.0  0.19605  0.16472  0.25782  1.0000
  H   H26       1.0  0.13007  0.15834  0.28431  1.0000
  H   H27       1.0  0.13489  0.18567  0.32076  1.0000
  H   H28       1.0  0.15447  0.02528  0.03110  1.0000
  H   H29       1.0  0.20783  0.15775  0.15634  1.0000
  H   H30       1.0  0.01572  0.06897  0.42451  1.0000
  H   H31       1.0  0.21041  0.22537  0.22405  1.0000
  H   H32       1.0  0.04844  0.07561  0.24465  1.0000
  H   H33       1.0  0.05080  0.10362  0.09107  1.0000
  H   H34       1.0  0.21516  0.07796  0.30613  1.0000
  S   S16       1.0  0.03909  0.04048  0.98317  1.0000
  H   H35       1.0  0.06165  0.01731  0.36694  1.0000
  H   H36       1.0  0.20266  0.17467  0.44683  1.0000
  H   H37       1.0  0.04262  0.06058  0.34227  1.0000
  C   C23       1.0  0.04470  0.07092  0.08116  1.0000
  H   H38       1.0  0.17491  0.06749  0.12311  1.0000
  H   H39       1.0  0.06961  0.12815  0.11319  1.0000
  C   C24       1.0  0.06044  0.12716  0.13233  1.0000
  C   C25       1.0  0.17940  0.04636  0.34592  1.0000
  C   C26       1.0  0.02499  0.09595  0.30846  1.0000
  C   C27       1.0  0.24177  0.21822  0.20463  1.0000
  C   C28       1.0  0.06241  0.03908  0.18031  1.0000
  H   H40       1.0  0.07618  0.06421  0.40444  1.0000
  C   C29       1.0  0.18860  0.01518  0.04242  1.0000
  H   H41       1.0  0.25497  0.32432  0.99963  1.0000
  C   C30       1.0  0.05927  0.06285  0.17130  1.0000
  H   H42       1.0  0.04373  0.07060  0.17990  1.0000
  H   H43       1.0  0.16663  0.05494  0.39862  1.0000
  H   H44       1.0  0.07622  0.05997  0.13339  1.0000
  N   N2        1.0  0.21878  0.01813  0.00664  1.0000
  H   H45       1.0  0.24820  0.03046  0.17803  1.0000
  C   C31       1.0  0.05074  0.08469  0.38499  1.0000
  H   H46       1.0  0.06298  0.03857  0.20269  1.0000
  H   H47       1.0  0.14125  0.14623  0.11776  1.0000
  H   H48       1.0  0.21378  0.18534  0.41689  1.0000
  Fe  Fe9       1.0  0.24190  0.22605  0.38191  1.0000
  H   H49       1.0  0.21831  0.02264  0.34009  1.0000
  Fe  Fe10      1.0  0.25336  0.22114  0.13811  1.0000
  H   H50       1.0  0.20488  0.08747  0.01237  1.0000
  H   H51       1.0  0.04151  0.10945  0.41571  1.0000
  H   H52       1.0  0.21236  0.26649  0.19464  1.0000
  C   C32       1.0  0.15738  0.02122  0.30349  1.0000
  H   H53       1.0  0.25745  0.15184  0.35707  1.0000
  S   S17       1.0  0.23489  0.20599  0.34506  1.0000
  H   H54       1.0  0.04938  0.05163  0.13184  1.0000
  H   H55       1.0  0.23713  0.16622  0.18958  1.0000
  H   H56       1.0  0.12949  0.23525  0.40223  1.0000
  H   H57       1.0  0.04845  0.03006  0.17314  1.0000
  C   C33       1.0  0.23722  0.22494  0.25276  1.0000
  C   C34       1.0  0.02650  0.09297  0.13424  1.0000
  C   C35       1.0  0.03323  0.07945  0.23375  1.0000
  C   C36       1.0  0.02556  0.04382  0.39380  1.0000
  H   H58       1.0  0.21011  0.08177  0.97689  1.0000
  C   C37       1.0  0.24118  0.28887  0.46095  1.0000
  H   H59       1.0  0.20486  0.18918  0.13797  1.0000
  H   H60       1.0  0.18683  0.07334  0.40777  1.0000
  H   H61       1.0  0.05967  0.10471  0.16518  1.0000
  H   H62       1.0  0.19194  0.06264  0.09372  1.0000
  C   C38       1.0  0.21035  0.17007  0.42720  1.0000
  H   H63       1.0  0.16621  0.08125  0.38254  1.0000
  H   H64       1.0  0.17628  0.15670  0.46276  1.0000
  H   H65       1.0  0.08182  0.09829  0.14258  1.0000
  H   H66       1.0  0.06079  0.09388  0.31126  1.0000
  H   H67       1.0  0.22656  0.03904  0.28258  1.0000
  C   C39       1.0  0.24922  0.30798  0.11914  1.0000
  C   C40       1.0  0.21804  0.04284  0.00670  1.0000
  H   H68       1.0  0.02661  0.07528  0.08051  1.0000
  C   C41       1.0  0.19860  0.07985  0.99374  1.0000
  H   H69       1.0  0.13804  0.18462  0.13481  1.0000
  C   C42       1.0  0.06382  0.10353  0.14334  1.0000
  C   C43       1.0  0.14807  0.02118  0.42764  1.0000
  H   H70       1.0  0.19142  0.05373  0.27900  1.0000
  H   H71       1.0  0.02164  0.04790  0.24078  1.0000
  C   C44       1.0  0.25125  0.01257  0.17425  1.0000
  H   H72       1.0  0.25946  0.04278  0.31191  1.0000
  N   N3        1.0  0.17157  0.16599  0.40502  1.0000
  C   C45       1.0  0.16968  0.19070  0.40608  1.0000
  C   C46       1.0  0.19541  0.15684  0.40885  1.0000
  C   C47       1.0  0.16417  0.15922  0.37720  1.0000
  C   C48       1.0  0.15690  0.15660  0.42533  1.0000
  H   H73       1.0  0.04274  0.13228  0.12850  1.0000
  C   C49       1.0  0.14622  0.20245  0.40191  1.0000
  C   C50       1.0  0.16632  0.13425  0.37097  1.0000
  H   H74       1.0  0.15834  0.01725  0.06562  1.0000
  C   C51       1.0  0.14637  0.22719  0.40560  1.0000
  C   C52       1.0  0.16012  0.12973  0.34161  1.0000
  H   H75       1.0  0.22576  0.14836  0.21354  1.0000
  C   C53       1.0  0.23258  0.15715  0.43287  1.0000
  H   H76       1.0  0.19624  0.13981  0.41653  1.0000
  H   H77       1.0  0.17351  0.16725  0.36153  1.0000
  H   H78       1.0  0.14648  0.16480  0.37368  1.0000
  H   H79       1.0  0.13921  0.16030  0.41964  1.0000
  H   H80       1.0  0.15950  0.13843  0.42508  1.0000
  C   C54       1.0  0.25358  0.21368  0.45075  1.0000
  C   C55       1.0  0.24428  0.27800  0.20353  1.0000
  H   H81       1.0  0.13994  0.19959  0.38121  1.0000
  H   H82       1.0  0.13446  0.19684  0.41663  1.0000
  H   H83       1.0  0.15501  0.12587  0.38380  1.0000
  H   H84       1.0  0.18335  0.12668  0.37443  1.0000
  H   H85       1.0  0.21438  0.22354  0.98736  1.0000
  H   H86       1.0  0.01843  0.05458  0.37757  1.0000
  H   H87       1.0  0.18336  0.05491  0.01417  1.0000
  H   H88       1.0  0.05110  0.12002  0.38467  1.0000
  C   C56       1.0  0.19687  0.01002  0.01329  1.0000
  H   H89       1.0  0.15184  0.23131  0.42634  1.0000
  H   H90       1.0  0.15977  0.11187  0.33822  1.0000
  H   H91       1.0  0.14345  0.13772  0.33675  1.0000
  H   H92       1.0  0.17226  0.13592  0.32776  1.0000
  C   C57       1.0  0.15996  0.16360  0.45511  1.0000
  H   H93       1.0  0.21377  0.28948  0.01486  1.0000
  H   H94       1.0  0.21525  0.29374  0.18282  1.0000
  H   H95       1.0  0.09395  0.03233  0.41367  1.0000
  H   H96       1.0  0.15843  0.18163  0.45768  1.0000
  H   H97       1.0  0.07408  0.08446  0.09657  1.0000
  C   C58       1.0  0.23132  0.21764  0.45753  1.0000
  H   H98       1.0  0.20882  0.04226  0.13188  1.0000
  C   C59       1.0  0.22147  0.29024  0.05679  1.0000
  S   S18       1.0  0.22997  0.21759  0.17221  1.0000
  C   C60       1.0  0.05790  0.06511  0.40342  1.0000
  H   H99       1.0  0.04827  0.05383  0.08798  1.0000
  H   H100      1.0  0.04762  0.12142  0.31164  1.0000
  H   H101      1.0  0.19463  0.09229  0.26455  1.0000
  C   C61       1.0  0.17702  0.06726  0.39074  1.0000
  S   S19       1.0  0.08462  0.08205  0.99042  1.0000
  H   H102      1.0  0.19859  0.32270  0.28841  1.0000
  N   N4        1.0  0.16999  0.18376  0.17721  1.0000
  C   C62       1.0  0.15941  0.16518  0.16366  1.0000
  C   C63       1.0  0.19113  0.17512  0.19134  1.0000
  C   C64       1.0  0.15422  0.19362  0.19842  1.0000
  C   C65       1.0  0.19241  0.05718  0.36885  1.0000
  C   C66       1.0  0.13693  0.17128  0.14943  1.0000
  C   C67       1.0  0.16335  0.21070  0.21797  1.0000
  H   H103      1.0  0.18307  0.21433  0.16813  1.0000
  H   H104      1.0  0.22188  0.04923  0.02719  1.0000
  C   C68       1.0  0.12933  0.15163  0.13387  1.0000
  C   C69       1.0  0.14615  0.21887  0.23890  1.0000
  H   H105      1.0  0.15685  0.15240  0.17882  1.0000
  H   H106      1.0  0.25731  0.26657  0.98919  1.0000
  H   H107      1.0  0.02581  0.07899  0.30022  1.0000
  H   H108      1.0  0.18743  0.16911  0.21170  1.0000
  H   H109      1.0  0.14839  0.18048  0.21105  1.0000
  H   H110      1.0  0.13914  0.20195  0.18888  1.0000
  H   H111      1.0  0.16827  0.06360  0.29816  1.0000
  H   H112      1.0  0.12401  0.17648  0.16442  1.0000
  H   H113      1.0  0.17208  0.10289  0.28598  1.0000
  C   C70       1.0  0.19013  0.09818  0.28522  1.0000
  H   H114      1.0  0.17807  0.20360  0.22926  1.0000
  C   C71       1.0  0.22774  0.15167  0.19178  1.0000
  H   H115      1.0  0.22599  0.01111  0.29329  1.0000
  H   H116      1.0  0.23513  0.28628  0.07128  1.0000
  Fe  Fe11      1.0  0.24750  0.23316  0.32175  1.0000
  H   H117      1.0  0.11304  0.15621  0.12423  1.0000
  H   H118      1.0  0.13134  0.22727  0.22896  1.0000
  H   H119      1.0  0.14119  0.20502  0.25089  1.0000
  H   H120      1.0  0.15327  0.23060  0.25300  1.0000
  C   C72       1.0  0.22971  0.02777  0.29975  1.0000
  H   H121      1.0  0.20415  0.04453  0.37842  1.0000
  N   N5        1.0  0.24882  0.29329  0.01735  1.0000
  S   S20       1.0  0.23565  0.22031  0.03908  1.0000
  C   C73       1.0  0.23405  0.27647  0.43593  1.0000
  H   H122      1.0  0.14833  0.02589  0.32230  1.0000
  C   C74       1.0  0.18271  0.02050  0.30760  1.0000
  H   H123      1.0  0.07316  0.07123  0.17999  1.0000
  H   H124      1.0  0.22805  0.32359  0.01227  1.0000
  N   N6        1.0  0.19128  0.04087  0.31957  1.0000
  H   H125      1.0  0.07818  0.03095  0.17246  1.0000
  C   C75       1.0  0.22838  0.28407  0.02753  1.0000
  C   C76       1.0  0.18764  0.19471  0.13230  1.0000
  C   C77       1.0  0.06918  0.14357  0.15222  1.0000
  C   C78       1.0  0.23192  0.22365  0.98417  1.0000
  Fe  Fe12      1.0  0.22368  0.26881  0.35614  1.0000
  H   H126      1.0  0.06637  0.01949  0.31580  1.0000
  C   C79       1.0  0.20517  0.15550  0.17806  1.0000
  C   C80       1.0  0.22808  0.22287  0.22688  1.0000
  C   C81       1.0  0.21570  0.03566  0.32461  1.0000
  H   H127      1.0  0.04476  0.05993  0.03930  1.0000
  S   S21       1.0  0.21713  0.30540  0.36317  1.0000
  H   H128      1.0  0.05952  0.14434  0.17116  1.0000
  H   H129      1.0  0.16372  0.05681  0.34218  1.0000
  C   C82       1.0  0.05368  0.10644  0.39925  1.0000
  H   H130      1.0  0.19912  0.20883  0.09568  1.0000
  H   H131      1.0  0.15825  0.21047  0.15108  1.0000
  H   H132      1.0  0.19671  0.14035  0.18032  1.0000
  H   H133      1.0  0.02345  0.09538  0.33066  1.0000
  H   H134      1.0  0.04960  0.10576  0.28050  1.0000
  C   C83       1.0  0.19585  0.05570  0.99817  1.0000
  H   H135      1.0  0.13387  0.03283  0.43011  1.0000
  H   H136      1.0  0.19766  0.28243  0.08655  1.0000
  H   H137      1.0  0.22867  0.27010  0.16532  1.0000
  H   H138      1.0  0.24077  0.25906  0.43668  1.0000
  H   H139      1.0  0.15187  0.03307  0.28755  1.0000
  H   H140      1.0  0.19862  0.11309  0.28963  1.0000
  C   C84       1.0  0.25276  0.28456  0.98895  1.0000
  H   H141      1.0  0.16794  0.22511  0.20684  1.0000
  H   H142      1.0  0.24377  0.29198  0.12196  1.0000
  C   C85       1.0  0.06031  0.03552  0.36828  1.0000
  C   C86       1.0  0.24646  0.22230  0.00636  1.0000
  H   H143      1.0  0.12772  0.13780  0.14770  1.0000
  H   H144      1.0  0.05259  0.06947  0.42442  1.0000
  H   H145      1.0  0.20876  0.02308  0.18250  1.0000
  C   C87       1.0  0.18641  0.05917  0.29972  1.0000
  C   C88       1.0  0.23376  0.32646  0.11947  1.0000
  C   C89       1.0  0.05901  0.06464  0.14015  1.0000
  H   H146      1.0  0.21895  0.22029  0.44181  1.0000
  C   C90       1.0  0.17410  0.20162  0.15777  1.0000
  H   H147      1.0  0.18761  0.28174  0.05222  1.0000
  H   H148      1.0  0.23025  0.14193  0.44389  1.0000
  C   C91       1.0  0.05850  0.02692  0.41642  1.0000
  C   C92       1.0  0.02876  0.09990  0.22174  1.0000
  H   H149      1.0  0.20202  0.07028  0.36164  1.0000
  H   H150      1.0  0.20005  0.02378  0.10595  1.0000
  H   H151      1.0  0.07749  0.04028  0.36674  1.0000
  H   H152      1.0  0.24238  0.33488  0.26487  1.0000
  C   C93       1.0  0.23824  0.32288  0.35895  1.0000
  H   H153      1.0  0.20188  0.18853  0.19502  1.0000
  H   H154      1.0  0.15754  0.23372  0.39076  1.0000
  H   H155      1.0  0.22653  0.22848  0.26976  1.0000
  H   H156      1.0  0.05499  0.03387  0.43699  1.0000
  H   H157      1.0  0.06125  0.08372  0.36674  1.0000
  H   H158      1.0  0.24297  0.16723  0.44557  1.0000
  H   H159      1.0  0.20688  0.25984  0.06465  1.0000
  H   H160      1.0  0.04545  0.10255  0.46864  1.0000
  S   S22       1.0  0.13561  0.06065  0.98608  1.0000
  C   C94       1.0  0.18029  0.02552  0.14331  1.0000
  H   H161      1.0  0.18385  0.01650  0.99902  1.0000
  C   C95       1.0  0.22437  0.33809  0.26745  1.0000
  H   H162      1.0  0.18059  0.19690  0.39060  1.0000
  C   C96       1.0  0.25436  0.02639  0.30643  1.0000
  H   H163      1.0  0.25198  0.26111  0.20536  1.0000
  C   C97       1.0  0.20221  0.27777  0.06547  1.0000
  C   C98       1.0  0.01787  0.06379  0.23181  1.0000
  C   C99       1.0  0.04703  0.10485  0.30256  1.0000
  Fe  Fe13      1.0  0.25685  0.22194  0.07664  1.0000
  H   H164      1.0  0.21622  0.33665  0.24743  1.0000
  C   C100      1.0  0.21666  0.32012  0.28506  1.0000
  H   H165      1.0  0.17720  0.03824  0.15931  1.0000
  H   H166      1.0  0.14349  0.13670  0.47149  1.0000
  H   H167      1.0  0.17204  0.22007  0.10602  1.0000
  H   H168      1.0  0.19203  0.03181  0.04917  1.0000
  H   H169      1.0  0.23736  0.13736  0.18232  1.0000
  C   C101      1.0  0.08348  0.01871  0.41582  1.0000
  H   H170      1.0  0.24142  0.15299  0.41374  1.0000
  H   H171      1.0  0.04907  0.08836  0.04373  1.0000
  H   H172      1.0  0.07612  0.04640  0.31738  1.0000
  H   H173      1.0  0.21585  0.30792  0.05830  1.0000
  Fe  Fe14      1.0  0.07463  0.04809  0.98534  1.0000
  H   H174      1.0  0.19639  0.22760  0.12388  1.0000
  H   H175      1.0  0.23113  0.01664  0.04786  1.0000
  C   C102      1.0  0.04747  0.04286  0.34223  1.0000
  H   H176      1.0  0.03302  0.01928  0.04213  1.0000
  H   H177      1.0  0.07050  0.10643  0.40799  1.0000
  C   C103      1.0  0.18877  0.21404  0.11338  1.0000
  C   C104      1.0  0.24565  0.31803  0.01662  1.0000
  S   S23       1.0  0.24496  0.24721  0.10759  1.0000
  H   H178      1.0  0.16709  0.04923  0.09652  1.0000
  H   H179      1.0  0.17580  0.19686  0.42560  1.0000
  C   C105      1.0  0.19438  0.03572  0.12193  1.0000
  C   C106      1.0  0.06122  0.03731  0.31705  1.0000
  H   H180      1.0  0.18235  0.08862  0.98844  1.0000
  H   H181      1.0  0.22529  0.31985  0.30487  1.0000
  H   H182      1.0  0.22042  0.30391  0.27509  1.0000
  H   H183      1.0  0.08678  0.13883  0.15713  1.0000
  C   C107      1.0  0.26033  0.29342  0.19187  1.0000
  C   C108      1.0  0.18123  0.05493  0.10805  1.0000
  H   H184      1.0  0.20406  0.15556  0.38908  1.0000
  N   N7        1.0  0.05041  0.04325  0.39505  1.0000
  C   C109      1.0  0.16382  0.01344  0.04469  1.0000
  H   H185      1.0  0.04940  0.01202  0.41494  1.0000
  H   H186      1.0  0.25811  0.14546  0.24579  1.0000
  H   H187      1.0  0.25839  0.01499  0.32335  1.0000
  H   H188      1.0  0.05140  0.04209  0.29871  1.0000
  H   H189      1.0  0.25135  0.30997  0.19351  1.0000
  H   H190      1.0  0.18986  0.01668  0.28735  1.0000
  C   C110      1.0  0.25985  0.01257  0.02258  1.0000
  H   H191      1.0  0.21578  0.27744  0.43424  1.0000
  H   H192      1.0  0.08808  0.01702  0.45955  1.0000
  S   S24       1.0  0.25757  0.25143  0.35856  1.0000
  H   H193      1.0  0.24048  0.28370  0.41753  1.0000
  C   C111      1.0  0.16179  0.01557  0.44972  1.0000
  H   H194      1.0  0.25056  0.17447  0.24347  1.0000
  H   H195      1.0  0.02398  0.10175  0.15396  1.0000
  H   H196      1.0  0.25942  0.28703  0.46165  1.0000
  H   H197      1.0  0.16728  0.02731  0.19812  1.0000
  C   C112      1.0  0.02883  0.09830  0.47129  1.0000
  H   H198      1.0  0.23232  0.01337  0.13751  1.0000
  C   C113      1.0  0.25281  0.33070  0.04211  1.0000
  C   C114      1.0  0.26010  0.22257  0.25644  1.0000
  H   H199      1.0  0.01974  0.10500  0.11896  1.0000
  C   C115      1.0  0.25969  0.31493  0.35170  1.0000
  H   H200      1.0  0.03319  0.08521  0.37887  1.0000
  H   H201      1.0  0.16369  0.02383  0.13441  1.0000
  C   C116      1.0  0.15257  0.01147  0.40226  1.0000
  H   H202      1.0  0.14171  0.01569  0.38535  1.0000
  H   H203      1.0  0.14646  0.01324  0.23456  1.0000
  H   H204      1.0  0.03948  0.08768  0.97877  1.0000
  H   H205      1.0  0.26180  0.02982  0.01752  1.0000
  S   S25       1.0  0.26216  0.21138  0.41689  1.0000
  H   H206      1.0  0.12569  0.16160  0.46664  1.0000
  S   S26       1.0  0.26160  0.19493  0.10697  1.0000
  H   H207      1.0  0.01866  0.04150  0.43737  1.0000
  H   H208      1.0  0.02075  0.02723  0.38839  1.0000
  H   H209      1.0  0.26166  0.30028  0.28551  1.0000
  H   H210      1.0  0.26209  0.28975  0.16986  1.0000
  H   H211      1.0  0.24278  0.01348  0.97477  1.0000
  C   C117      1.0  0.14251  0.15482  0.47289  1.0000
  H   H212      1.0  0.26367  0.29763  0.34811  1.0000
  H   H213      1.0  0.01432  0.06216  0.11822  1.0000
  H   H214      1.0  0.01386  0.12844  0.45452  1.0000
  Fe  Fe15      1.0  0.20894  0.22406  0.85166  1.0000
  S   S27       1.0  0.24286  0.20615  0.85375  1.0000
  S   S28       1.0  0.18135  0.20147  0.85276  1.0000
  Fe  Fe16      1.0  0.22790  0.26891  0.85090  1.0000
  H   H215      1.0  0.22855  0.22564  0.94080  1.0000
  H   H216      1.0  0.20517  0.02422  0.59605  1.0000
  C   C118      1.0  0.02514  0.07827  0.48265  1.0000
  S   S29       1.0  0.21704  0.24621  0.81828  1.0000
  S   S30       1.0  0.21612  0.24856  0.88450  1.0000
  Fe  Fe17      1.0  0.06481  0.11718  0.73492  1.0000
  S   S31       1.0  0.08150  0.08326  0.73311  1.0000
  Fe  Fe18      1.0  0.10832  0.13684  0.74991  1.0000
  S   S32       1.0  0.12776  0.10380  0.74940  1.0000
  S   S33       1.0  0.12503  0.16853  0.75341  1.0000
  Fe  Fe19      1.0  0.10868  0.09766  0.71136  1.0000
  S   S34       1.0  0.12396  0.07865  0.67563  1.0000
  Fe  Fe20      1.0  0.09863  0.09278  0.77111  1.0000
  S   S35       1.0  0.09981  0.06760  0.80383  1.0000
  S   S36       1.0  0.09089  0.13120  0.71029  1.0000
  S   S37       1.0  0.08033  0.12619  0.77452  1.0000
  H   H217      1.0  0.01649  0.11060  0.82824  1.0000
  C   C119      1.0  0.21191  0.01542  0.95477  1.0000
  C   C120      1.0  0.24443  0.22634  0.70251  1.0000
  H   H218      1.0  0.07742  0.06421  0.60182  1.0000
  C   C121      1.0  0.01768  0.08069  0.72731  1.0000
  Fe  Fe21      1.0  0.11577  0.09522  0.52033  1.0000
  S   S38       1.0  0.12042  0.11672  0.55700  1.0000
  Fe  Fe22      1.0  0.10853  0.07255  0.95733  1.0000
  S   S39       1.0  0.11418  0.09687  0.92492  1.0000
  S   S40       1.0  0.10761  0.06036  0.52122  1.0000
  S   S41       1.0  0.09676  0.03942  0.95015  1.0000
  H   H219      1.0  0.07704  0.07779  0.65063  1.0000
  C   C122      1.0  0.20183  0.33672  0.92607  1.0000
  S   S42       1.0  0.22109  0.30590  0.84714  1.0000
  H   H220      1.0  0.03507  0.03900  0.86530  1.0000
  H   H221      1.0  0.08376  0.08590  0.56192  1.0000
  Fe  Fe23      1.0  0.25596  0.21807  0.57374  1.0000
  H   H222      1.0  0.23493  0.16041  0.64917  1.0000
  C   C123      1.0  0.24303  0.16347  0.66887  1.0000
  H   H223      1.0  0.18017  0.06133  0.51244  1.0000
  H   H224      1.0  0.17994  0.30222  0.76170  1.0000
  C   C124      1.0  0.06767  0.08029  0.59950  1.0000
  H   H225      1.0  0.06027  0.07388  0.67832  1.0000
  C   C125      1.0  0.10210  0.07697  0.83724  1.0000
  C   C126      1.0  0.09799  0.06290  0.85818  1.0000
  C   C127      1.0  0.10164  0.06896  0.88504  1.0000
  C   C128      1.0  0.10913  0.08924  0.89126  1.0000
  C   C129      1.0  0.11280  0.10357  0.87033  1.0000
  C   C130      1.0  0.10927  0.09746  0.84329  1.0000
  H   H226      1.0  0.09241  0.04704  0.85357  1.0000
  H   H227      1.0  0.09877  0.05783  0.90085  1.0000
  H   H228      1.0  0.11854  0.11935  0.87501  1.0000
  H   H229      1.0  0.11251  0.10841  0.82720  1.0000
  C   C131      1.0  0.12240  0.08948  0.64278  1.0000
  C   C132      1.0  0.11682  0.11175  0.63836  1.0000
  C   C133      1.0  0.11628  0.11990  0.61195  1.0000
  C   C134      1.0  0.12088  0.10580  0.58978  1.0000
  C   C135      1.0  0.12617  0.08347  0.59417  1.0000
  C   C136      1.0  0.12718  0.07540  0.62061  1.0000
  H   H230      1.0  0.11334  0.12278  0.65528  1.0000
  H   H231      1.0  0.11228  0.13721  0.60868  1.0000
  H   H232      1.0  0.12989  0.07251  0.57724  1.0000
  H   H233      1.0  0.13174  0.05820  0.62390  1.0000
  C   C137      1.0  0.16649  0.19215  0.82453  1.0000
  C   C138      1.0  0.16220  0.20504  0.80169  1.0000
  C   C139      1.0  0.14898  0.19777  0.78051  1.0000
  C   C140      1.0  0.14059  0.17723  0.78138  1.0000
  C   C141      1.0  0.14509  0.16420  0.80406  1.0000
  C   C142      1.0  0.15773  0.17177  0.82565  1.0000
  H   H234      1.0  0.16850  0.22089  0.80075  1.0000
  H   H235      1.0  0.14531  0.20812  0.76327  1.0000
  H   H236      1.0  0.13858  0.14845  0.80515  1.0000
  H   H237      1.0  0.16068  0.16182  0.84339  1.0000
  H   H238      1.0  0.23409  0.18170  0.77462  1.0000
  S   S43       1.0  0.24581  0.24742  0.59945  1.0000
  H   H239      1.0  0.21312  0.28290  0.48465  1.0000
  H   H240      1.0  0.21361  0.23525  0.72238  1.0000
  H   H241      1.0  0.03327  0.07118  0.91408  1.0000
  H   H242      1.0  0.19564  0.27499  0.52155  1.0000
  H   H243      1.0  0.20202  0.25191  0.56250  1.0000
  H   H244      1.0  0.03449  0.07641  0.73381  1.0000
  N   N8        1.0  0.16612  0.04127  0.84083  1.0000
  C   C143      1.0  0.16411  0.05902  0.81992  1.0000
  H   H245      1.0  0.14524  0.15957  0.49428  1.0000
  C   C144      1.0  0.16290  0.05226  0.86820  1.0000
  H   H246      1.0  0.22739  0.15900  0.79467  1.0000
  C   C145      1.0  0.21266  0.28448  0.75928  1.0000
  C   C146      1.0  0.17889  0.07796  0.82474  1.0000
  C   C147      1.0  0.16037  0.03688  0.89229  1.0000
  H   H247      1.0  0.16913  0.02432  0.54655  1.0000
  H   H248      1.0  0.05445  0.03706  0.66555  1.0000
  H   H249      1.0  0.07702  0.09256  0.60980  1.0000
  C   C148      1.0  0.17890  0.09267  0.80013  1.0000
  C   C149      1.0  0.16352  0.04842  0.91934  1.0000
  H   H250      1.0  0.14679  0.06664  0.81889  1.0000
  C   C150      1.0  0.03347  0.08018  0.84575  1.0000
  C   C151      1.0  0.18823  0.02779  0.84071  1.0000
  H   H251      1.0  0.09246  0.04231  0.68331  1.0000
  H   H252      1.0  0.14801  0.06430  0.86795  1.0000
  H   H253      1.0  0.17700  0.06190  0.87322  1.0000
  H   H254      1.0  0.06177  0.15338  0.65155  1.0000
  H   H255      1.0  0.21849  0.32795  0.92818  1.0000
  H   H256      1.0  0.24956  0.26849  0.93685  1.0000
  H   H257      1.0  0.22475  0.31151  0.78117  1.0000
  H   H258      1.0  0.17246  0.08848  0.84187  1.0000
  H   H259      1.0  0.03449  0.10457  0.67308  1.0000
  C   C152      1.0  0.01995  0.06098  0.97004  1.0000
  H   H260      1.0  0.14343  0.03156  0.89206  1.0000
  H   H261      1.0  0.21245  0.31656  0.50810  1.0000
  H   H262      1.0  0.07382  0.13721  0.89725  1.0000
  H   H263      1.0  0.21568  0.31780  0.74764  1.0000
  C   C153      1.0  0.02890  0.10648  0.88529  1.0000
  S   S44       1.0  0.26262  0.25359  0.85250  1.0000
  H   H264      1.0  0.25220  0.32817  0.54319  1.0000
  H   H265      1.0  0.09133  0.01866  0.66153  1.0000
  H   H266      1.0  0.23459  0.03153  0.56927  1.0000
  H   H267      1.0  0.16189  0.09998  0.79563  1.0000
  H   H268      1.0  0.18939  0.10620  0.80430  1.0000
  S   S45       1.0  0.04723  0.05956  0.49286  1.0000
  H   H269      1.0  0.15152  0.06310  0.92132  1.0000
  H   H270      1.0  0.16070  0.03713  0.93600  1.0000
  H   H271      1.0  0.18052  0.05339  0.92130  1.0000
  C   C154      1.0  0.26240  0.28884  0.77135  1.0000
  N   N9        1.0  0.04181  0.08069  0.64136  1.0000
  H   H272      1.0  0.07117  0.11364  0.65337  1.0000
  H   H273      1.0  0.19781  0.29916  0.54209  1.0000
  H   H274      1.0  0.18395  0.08088  0.53913  1.0000
  H   H275      1.0  0.19456  0.01198  0.95735  1.0000
  C   C155      1.0  0.02412  0.08298  0.97066  1.0000
  H   H276      1.0  0.02174  0.10475  0.54174  1.0000
  C   C156      1.0  0.25680  0.32460  0.74726  1.0000
  C   C157      1.0  0.04878  0.14257  0.65648  1.0000
  H   H277      1.0  0.25154  0.28019  0.66892  1.0000
  C   C158      1.0  0.23984  0.01388  0.56741  1.0000
  C   C159      1.0  0.22737  0.16050  0.69216  1.0000
  C   C160      1.0  0.08939  0.03681  0.66226  1.0000
  N   N10       1.0  0.23861  0.29042  0.51314  1.0000
  C   C161      1.0  0.22936  0.27865  0.53636  1.0000
  C   C162      1.0  0.23035  0.31436  0.51329  1.0000
  H   H278      1.0  0.10185  0.04287  0.64881  1.0000
  S   S46       1.0  0.23233  0.21300  0.53906  1.0000
  C   C163      1.0  0.20392  0.28169  0.53945  1.0000
  C   C164      1.0  0.19667  0.26969  0.56413  1.0000
  C   C165      1.0  0.23991  0.22483  0.95776  1.0000
  H   H279      1.0  0.23385  0.26072  0.53439  1.0000
  H   H280      1.0  0.23702  0.28335  0.55584  1.0000
  C   C166      1.0  0.24297  0.32299  0.84709  1.0000
  C   C167      1.0  0.03371  0.04317  0.88709  1.0000
  H   H281      1.0  0.03311  0.09278  0.60154  1.0000
  C   C168      1.0  0.26235  0.22190  0.75488  1.0000
  C   C169      1.0  0.04413  0.07945  0.61101  1.0000
  H   H282      1.0  0.02164  0.06731  0.67164  1.0000
  H   H283      1.0  0.20374  0.27645  0.58285  1.0000
  H   H284      1.0  0.17841  0.27174  0.56562  1.0000
  C   C170      1.0  0.19990  0.02411  0.81308  1.0000
  S   S47       1.0  0.02814  0.12375  0.72529  1.0000
  C   C171      1.0  0.23097  0.23026  0.72506  1.0000
  H   H285      1.0  0.05828  0.07346  0.55773  1.0000
  N   N11       1.0  0.18915  0.17465  0.71136  1.0000
  C   C172      1.0  0.18136  0.15203  0.71207  1.0000
  C   C173      1.0  0.19786  0.18111  0.73880  1.0000
  C   C174      1.0  0.16936  0.19041  0.70445  1.0000
  C   C175      1.0  0.20630  0.17651  0.69001  1.0000
  C   C176      1.0  0.03543  0.09319  0.79738  1.0000
  C   C177      1.0  0.17167  0.14347  0.68528  1.0000
  C   C178      1.0  0.17281  0.21515  0.70613  1.0000
  C   C179      1.0  0.20876  0.16273  0.75710  1.0000
  C   C180      1.0  0.22042  0.17236  0.78135  1.0000
  C   C181      1.0  0.02244  0.06854  0.64927  1.0000
  C   C182      1.0  0.16540  0.12012  0.68820  1.0000
  C   C183      1.0  0.15128  0.22920  0.70021  1.0000
  H   H286      1.0  0.16851  0.15151  0.72788  1.0000
  H   H287      1.0  0.19486  0.13966  0.71813  1.0000
  H   H288      1.0  0.20966  0.19372  0.73668  1.0000
  H   H289      1.0  0.18433  0.18908  0.75129  1.0000
  H   H290      1.0  0.15533  0.18769  0.71789  1.0000
  H   H291      1.0  0.16349  0.18749  0.68353  1.0000
  H   H292      1.0  0.19907  0.17497  0.66945  1.0000
  H   H293      1.0  0.21206  0.19311  0.69063  1.0000
  H   H294      1.0  0.04561  0.11081  0.83221  1.0000
  H   H295      1.0  0.18129  0.27393  0.77149  1.0000
  H   H296      1.0  0.15643  0.15361  0.67920  1.0000
  H   H297      1.0  0.18382  0.14331  0.66877  1.0000
  H   H298      1.0  0.18505  0.21935  0.69111  1.0000
  H   H299      1.0  0.17850  0.21996  0.72648  1.0000
  H   H300      1.0  0.19583  0.15290  0.76496  1.0000
  H   H301      1.0  0.22102  0.15151  0.74628  1.0000
  H   H302      1.0  0.20862  0.18342  0.79332  1.0000
  C   C184      1.0  0.19007  0.28898  0.77241  1.0000
  H   H303      1.0  0.20711  0.03922  0.80703  1.0000
  C   C185      1.0  0.06620  0.04517  0.65295  1.0000
  H   H304      1.0  0.02168  0.11182  0.64174  1.0000
  H   H305      1.0  0.17982  0.10892  0.69466  1.0000
  H   H306      1.0  0.15198  0.11970  0.70309  1.0000
  H   H307      1.0  0.15934  0.11411  0.66851  1.0000
  H   H308      1.0  0.13850  0.22604  0.71513  1.0000
  H   H309      1.0  0.15416  0.24677  0.70152  1.0000
  H   H310      1.0  0.14514  0.22565  0.67959  1.0000
  H   H311      1.0  0.19194  0.29376  0.79397  1.0000
  N   N12       1.0  0.02520  0.08406  0.87427  1.0000
  H   H312      1.0  0.22176  0.27090  0.77023  1.0000
  C   C186      1.0  0.26341  0.28840  0.51591  1.0000
  H   H313      1.0  0.04624  0.14209  0.91034  1.0000
  C   C187      1.0  0.24093  0.21398  0.50531  1.0000
  C   C188      1.0  0.06186  0.07039  0.65625  1.0000
  C   C189      1.0  0.23982  0.22768  0.75112  1.0000
  H   H314      1.0  0.05105  0.14396  0.87440  1.0000
  H   H315      1.0  0.19612  0.07162  0.82956  1.0000
  H   H316      1.0  0.22752  0.31948  0.55755  1.0000
  C   C190      1.0  0.03750  0.06747  0.89257  1.0000
  H   H317      1.0  0.25216  0.29739  0.93390  1.0000
  Fe  Fe24      1.0  0.25544  0.22637  0.63490  1.0000
  C   C191      1.0  0.05343  0.11071  0.88970  1.0000
  Fe  Fe25      1.0  0.25132  0.22963  0.82220  1.0000
  H   H318      1.0  0.05159  0.08348  0.79462  1.0000
  S   S48       1.0  0.23241  0.22918  0.67026  1.0000
  C   C192      1.0  0.18626  0.31969  0.91759  1.0000
  C   C193      1.0  0.05617  0.13504  0.89312  1.0000
  H   H319      1.0  0.17248  0.02224  0.89130  1.0000
  H   H320      1.0  0.21104  0.04849  0.54232  1.0000
  H   H321      1.0  0.22343  0.14324  0.69174  1.0000
  C   C194      1.0  0.19410  0.04714  0.54964  1.0000
  H   H322      1.0  0.01711  0.03986  0.89416  1.0000
  H   H323      1.0  0.05558  0.06850  0.89116  1.0000
  H   H324      1.0  0.05111  0.07342  0.84576  1.0000
  H   H325      1.0  0.03495  0.10786  0.78446  1.0000
  H   H326      1.0  0.23644  0.16388  0.71096  1.0000
  C   C195      1.0  0.22546  0.30522  0.75997  1.0000
  H   H327      1.0  0.05999  0.10245  0.90833  1.0000
  H   H328      1.0  0.06372  0.10424  0.87256  1.0000
  S   S49       1.0  0.14040  0.08940  0.48689  1.0000
  H   H329      1.0  0.23497  0.26211  0.48740  1.0000
  C   C196      1.0  0.05056  0.02782  0.90237  1.0000
  C   C197      1.0  0.06676  0.08576  0.56954  1.0000
  H   H330      1.0  0.05636  0.12171  0.62262  1.0000
  C   C198      1.0  0.17900  0.06426  0.53456  1.0000
  H   H331      1.0  0.02466  0.05139  0.64152  1.0000
  C   C199      1.0  0.14766  0.02679  0.83653  1.0000
  H   H332      1.0  0.04963  0.03133  0.92438  1.0000
  H   H333      1.0  0.02452  0.06729  0.83563  1.0000
  C   C200      1.0  0.05494  0.11972  0.64471  1.0000
  H   H334      1.0  0.25803  0.15182  0.67086  1.0000
  H   H335      1.0  0.06753  0.02968  0.89535  1.0000
  C   C201      1.0  0.25127  0.30704  0.61182  1.0000
  C   C202      1.0  0.24942  0.29016  0.72342  1.0000
  H   H336      1.0  0.20772  0.21995  0.48988  1.0000
  H   H337      1.0  0.14724  0.02537  0.79189  1.0000
  C   C203      1.0  0.23134  0.28021  0.48705  1.0000
  H   H338      1.0  0.13153  0.03657  0.83908  1.0000
  S   S50       1.0  0.08796  0.10656  0.49219  1.0000
  H   H339      1.0  0.19023  0.02100  0.52187  1.0000
  H   H340      1.0  0.18660  0.01144  0.84959  1.0000
  H   H341      1.0  0.24825  0.18033  0.66918  1.0000
  H   H342      1.0  0.22911  0.22999  0.76822  1.0000
  H   H343      1.0  0.05823  0.10232  0.56637  1.0000
  N   N13       1.0  0.24907  0.30211  0.75040  1.0000
  H   H344      1.0  0.23855  0.32303  0.49726  1.0000
  C   C204      1.0  0.22500  0.21746  0.48473  1.0000
  H   H345      1.0  0.06400  0.03992  0.63168  1.0000
  C   C205      1.0  0.25697  0.33897  0.77321  1.0000
  H   H346      1.0  0.18548  0.08324  0.78222  1.0000
  C   C206      1.0  0.03717  0.10411  0.65091  1.0000
  C   C207      1.0  0.18735  0.02383  0.54381  1.0000
  H   H347      1.0  0.20027  0.03528  0.85419  1.0000
  C   C208      1.0  0.23324  0.28866  0.96872  1.0000
  Fe  Fe26      1.0  0.08117  0.07136  0.49104  1.0000
  H   H348      1.0  0.21252  0.03309  0.95090  1.0000
  H   H349      1.0  0.02223  0.12821  0.52056  1.0000
  C   C209      1.0  0.26224  0.01132  0.55344  1.0000
  H   H350      1.0  0.18665  0.30667  0.93297  1.0000
  H   H351      1.0  0.22061  0.32245  0.62739  1.0000
  H   H352      1.0  0.04752  0.14199  0.67876  1.0000
  H   H353      1.0  0.23387  0.29474  0.71192  1.0000
  H   H354      1.0  0.03282  0.14976  0.64799  1.0000
  H   H355      1.0  0.19143  0.31192  0.89798  1.0000
  C   C210      1.0  0.23428  0.32721  0.53978  1.0000
  H   H356      1.0  0.18856  0.01986  0.79671  1.0000
  C   C211      1.0  0.23601  0.32503  0.61779  1.0000
  H   H357      1.0  0.25929  0.29602  0.79187  1.0000
  H   H358      1.0  0.19303  0.05161  0.57133  1.0000
  H   H359      1.0  0.03827  0.06404  0.60271  1.0000
  H   H360      1.0  0.22644  0.28646  0.92565  1.0000
  H   H361      1.0  0.22074  0.27699  0.97247  1.0000
  H   H362      1.0  0.20990  0.27884  0.73826  1.0000
  H   H363      1.0  0.16157  0.06381  0.54080  1.0000
  Fe  Fe27      1.0  0.25057  0.23188  0.88416  1.0000
  H   H364      1.0  0.02297  0.13180  0.55668  1.0000
  H   H365      1.0  0.24765  0.29082  0.61714  1.0000
  H   H366      1.0  0.17831  0.01584  0.59381  1.0000
  H   H367      1.0  0.16736  0.05230  0.79936  1.0000
  H   H368      1.0  0.25693  0.27212  0.77256  1.0000
  H   H369      1.0  0.26100  0.01912  0.53334  1.0000
  Fe  Fe28      1.0  0.12986  0.05537  0.48535  1.0000
  C   C212      1.0  0.03231  0.10029  0.82687  1.0000
  C   C213      1.0  0.24088  0.28506  0.93957  1.0000
  H   H370      1.0  0.24998  0.27217  0.72646  1.0000
  H   H371      1.0  0.24004  0.34281  0.78102  1.0000
  H   H372      1.0  0.02108  0.11957  0.87225  1.0000
  H   H373      1.0  0.16904  0.32731  0.91567  1.0000
  C   C214      1.0  0.19594  0.01031  0.58960  1.0000
  H   H374      1.0  0.02058  0.10929  0.90514  1.0000
  H   H375      1.0  0.14839  0.01387  0.85200  1.0000
  H   H376      1.0  0.02201  0.08329  0.79057  1.0000
  S   S51       1.0  0.15597  0.02688  0.48202  1.0000
  C   C215      1.0  0.14696  0.01430  0.80931  1.0000
  H   H377      1.0  0.11111  0.01478  0.80722  1.0000
  H   H378      1.0  0.22520  0.30556  0.97068  1.0000
  C   C216      1.0  0.01599  0.12238  0.53989  1.0000
  H   H379      1.0  0.24630  0.33390  0.73194  1.0000
  S   S52       1.0  0.26216  0.19599  0.60947  1.0000
  C   C217      1.0  0.26322  0.21075  0.49857  1.0000
  C   C218      1.0  0.26257  0.22448  0.95334  1.0000
  H   H380      1.0  0.04705  0.01059  0.89881  1.0000
  H   H381      1.0  0.06409  0.66177  0.16631  1.0000
  Fe  Fe29      1.0  0.07325  0.61238  0.22155  1.0000
  S   S53       1.0  0.08927  0.57823  0.22327  1.0000
  S   S54       1.0  0.03603  0.61936  0.21809  1.0000
  Fe  Fe30      1.0  0.11807  0.63174  0.22141  1.0000
  S   S55       1.0  0.13709  0.59861  0.22388  1.0000
  H   H382      1.0  0.03876  0.63397  0.15643  1.0000
  Fe  Fe31      1.0  0.11266  0.58898  0.19281  1.0000
  S   S56       1.0  0.12171  0.56660  0.15756  1.0000
  Fe  Fe32      1.0  0.11179  0.59128  0.25442  1.0000
  S   S57       1.0  0.11856  0.56886  0.29005  1.0000
  S   S58       1.0  0.09507  0.62242  0.18850  1.0000
  S   S59       1.0  0.09444  0.62524  0.25459  1.0000
  C   C219      1.0  0.02538  0.58871  0.98066  1.0000
  H   H383      1.0  0.22456  0.59121  0.29931  1.0000
  H   H384      1.0  0.14443  0.62830  0.01801  1.0000
  H   H385      1.0  0.05846  0.62024  0.34758  1.0000
  H   H386      1.0  0.05416  0.62187  0.29843  1.0000
  H   H387      1.0  0.24156  0.62427  0.28645  1.0000
  H   H388      1.0  0.22006  0.43738  0.97530  1.0000
  Fe  Fe33      1.0  0.10872  0.58348  0.00689  1.0000
  S   S60       1.0  0.11000  0.60743  0.04157  1.0000
  Fe  Fe34      1.0  0.11680  0.57996  0.44617  1.0000
  S   S61       1.0  0.12301  0.60205  0.41145  1.0000
  S   S62       1.0  0.09683  0.54996  0.00861  1.0000
  S   S63       1.0  0.10902  0.54503  0.44372  1.0000
  C   C220      1.0  0.17433  0.48593  0.06798  1.0000
  C   C221      1.0  0.18174  0.47489  0.04447  1.0000
  C   C222      1.0  0.17297  0.48160  0.01926  1.0000
  C   C223      1.0  0.15736  0.49986  0.01726  1.0000
  C   C224      1.0  0.14980  0.51078  0.04077  1.0000
  C   C225      1.0  0.15797  0.50357  0.06607  1.0000
  H   H389      1.0  0.18384  0.42881  0.32520  1.0000
  H   H390      1.0  0.17840  0.47264  0.00128  1.0000
  H   H391      1.0  0.13754  0.52467  0.03951  1.0000
  H   H392      1.0  0.15162  0.51178  0.08417  1.0000
  C   C226      1.0  0.11864  0.57818  0.12547  1.0000
  C   C227      1.0  0.11802  0.56440  0.10280  1.0000
  C   C228      1.0  0.11550  0.57326  0.07692  1.0000
  C   C229      1.0  0.11357  0.59592  0.07366  1.0000
  C   C230      1.0  0.11445  0.60971  0.09631  1.0000
  C   C231      1.0  0.11712  0.60084  0.12218  1.0000
  H   H393      1.0  0.11946  0.54683  0.10524  1.0000
  H   H394      1.0  0.11520  0.56250  0.05956  1.0000
  H   H395      1.0  0.11303  0.62727  0.09389  1.0000
  H   H396      1.0  0.11826  0.61152  0.13950  1.0000
  C   C232      1.0  0.11874  0.57867  0.32360  1.0000
  C   C233      1.0  0.11992  0.60082  0.32970  1.0000
  C   C234      1.0  0.12112  0.60782  0.35677  1.0000
  C   C235      1.0  0.12077  0.59280  0.37782  1.0000
  C   C236      1.0  0.11902  0.57075  0.37171  1.0000
  C   C237      1.0  0.11820  0.56370  0.34467  1.0000
  H   H397      1.0  0.12037  0.61245  0.31357  1.0000
  H   H398      1.0  0.12247  0.62491  0.36140  1.0000
  H   H399      1.0  0.11887  0.55904  0.38774  1.0000
  H   H400      1.0  0.11734  0.54654  0.34002  1.0000
  H   H401      1.0  0.13878  0.64320  0.16636  1.0000
  H   H402      1.0  0.23171  0.45447  0.19343  1.0000
  H   H403      1.0  0.05695  0.63689  0.43986  1.0000
  H   H404      1.0  0.16739  0.65596  0.07953  1.0000
  H   H405      1.0  0.02929  0.59851  0.32228  1.0000
  C   C238      1.0  0.02664  0.57695  0.22888  1.0000
  H   H406      1.0  0.19732  0.60494  0.29479  1.0000
  H   H407      1.0  0.04466  0.53556  0.04705  1.0000
  H   H408      1.0  0.04416  0.57285  0.23105  1.0000
  H   H409      1.0  0.02858  0.53201  0.41731  1.0000
  C   C239      1.0  0.21624  0.67249  0.21180  1.0000
  H   H410      1.0  0.17169  0.50759  0.42641  1.0000
  Fe  Fe35      1.0  0.26075  0.44266  0.39004  1.0000
  H   H411      1.0  0.05364  0.60328  0.04066  1.0000
  H   H412      1.0  0.22001  0.38696  0.40600  1.0000
  C   C240      1.0  0.23961  0.52708  0.38317  1.0000
  C   C241      1.0  0.23331  0.34542  0.36318  1.0000
  H   H413      1.0  0.19661  0.65001  0.23189  1.0000
  Fe  Fe36      1.0  0.23109  0.40418  0.10996  1.0000
  C   C242      1.0  0.01838  0.59843  0.22307  1.0000
  H   H414      1.0  0.04133  0.59135  0.98917  1.0000
  H   H415      1.0  0.23328  0.51538  0.36844  1.0000
  H   H416      1.0  0.04771  0.59771  0.16394  1.0000
  H   H417      1.0  0.08018  0.62963  0.38501  1.0000
  H   H418      1.0  0.21311  0.40977  0.42853  1.0000
  C   C243      1.0  0.18912  0.61754  0.08850  1.0000
  H   H419      1.0  0.16952  0.49427  0.39472  1.0000
  H   H420      1.0  0.25118  0.36388  0.05825  1.0000
  H   H421      1.0  0.19749  0.65578  0.18143  1.0000
  N   N14       1.0  0.15450  0.65689  0.03877  1.0000
  H   H422      1.0  0.08173  0.67028  0.14032  1.0000
  S   S64       1.0  0.13653  0.66222  0.22058  1.0000
  C   C244      1.0  0.03698  0.53846  0.39976  1.0000
  H   H423      1.0  0.16752  0.57448  0.37918  1.0000
  H   H424      1.0  0.19409  0.46111  0.04570  1.0000
  H   H425      1.0  0.19102  0.47198  0.44507  1.0000
  H   H426      1.0  0.14829  0.63638  0.07262  1.0000
  N   N15       1.0  0.04604  0.59739  0.37539  1.0000
  C   C245      1.0  0.05993  0.60435  0.39880  1.0000
  C   C246      1.0  0.04522  0.57291  0.37604  1.0000
  C   C247      1.0  0.05771  0.60231  0.34968  1.0000
  C   C248      1.0  0.03495  0.56346  0.40117  1.0000
  H   H427      1.0  0.25282  0.39923  0.22659  1.0000
  H   H428      1.0  0.13261  0.62378  0.46311  1.0000
  H   H429      1.0  0.07586  0.59383  0.39975  1.0000
  H   H430      1.0  0.05199  0.60162  0.41836  1.0000
  H   H431      1.0  0.04043  0.62974  0.03179  1.0000
  H   H432      1.0  0.06222  0.56456  0.37376  1.0000
  H   H433      1.0  0.07521  0.59512  0.35039  1.0000
  H   H434      1.0  0.04332  0.56827  0.41993  1.0000
  C   C249      1.0  0.16219  0.64441  0.06378  1.0000
  H   H435      1.0  0.22394  0.49216  0.45037  1.0000
  C   C250      1.0  0.21374  0.66248  0.18366  1.0000
  H   H436      1.0  0.02237  0.62817  0.41340  1.0000
  C   C251      1.0  0.02309  0.60929  0.37497  1.0000
  H   H437      1.0  0.17472  0.61163  0.04968  1.0000
  H   H438      1.0  0.20164  0.50632  0.38320  1.0000
  H   H439      1.0  0.02915  0.53258  0.38104  1.0000
  H   H440      1.0  0.19583  0.63096  0.10033  1.0000
  H   H441      1.0  0.24478  0.53174  0.42523  1.0000
  H   H442      1.0  0.18747  0.45946  0.41239  1.0000
  H   H443      1.0  0.19521  0.63090  0.04987  1.0000
  C   C252      1.0  0.18621  0.54619  0.39661  1.0000
  Fe  Fe37      1.0  0.25662  0.43379  0.07602  1.0000
  H   H444      1.0  0.24048  0.48874  0.97983  1.0000
  C   C253      1.0  0.14781  0.67061  0.19007  1.0000
  H   H445      1.0  0.04765  0.58970  0.08871  1.0000
  H   H446      1.0  0.05067  0.57605  0.32105  1.0000
  H   H447      1.0  0.22338  0.36061  0.30159  1.0000
  C   C254      1.0  0.23679  0.51966  0.41251  1.0000
  H   H448      1.0  0.19142  0.58089  0.39826  1.0000
  C   C255      1.0  0.21353  0.65539  0.23402  1.0000
  H   H449      1.0  0.03494  0.63905  0.08058  1.0000
  H   H450      1.0  0.07054  0.59717  0.14250  1.0000
  C   C256      1.0  0.15506  0.64174  0.01445  1.0000
  H   H451      1.0  0.18797  0.54071  0.43913  1.0000
  H   H452      1.0  0.17164  0.53666  0.39512  1.0000
  H   H453      1.0  0.25908  0.66553  0.37820  1.0000
  H   H454      1.0  0.22551  0.67138  0.04265  1.0000
  C   C257      1.0  0.24350  0.39032  0.43897  1.0000
  H   H455      1.0  0.15884  0.66510  0.98186  1.0000
  H   H456      1.0  0.23545  0.43626  0.02159  1.0000
  H   H457      1.0  0.17167  0.63324  0.01120  1.0000
  S   S65       1.0  0.18536  0.47832  0.09992  1.0000
  H   H458      1.0  0.19870  0.50741  0.45851  1.0000
  C   C258      1.0  0.20336  0.50089  0.40440  1.0000
  C   C259      1.0  0.17714  0.56066  0.07983  1.0000
  C   C260      1.0  0.04181  0.55312  0.04171  1.0000
  H   H459      1.0  0.21048  0.65202  0.30279  1.0000
  H   H460      1.0  0.22477  0.64069  0.22863  1.0000
  H   H461      1.0  0.24578  0.37695  0.36516  1.0000
  H   H462      1.0  0.07551  0.59922  0.29810  1.0000
  C   C261      1.0  0.21812  0.36112  0.27996  1.0000
  H   H463      1.0  0.05461  0.53188  0.40050  1.0000
  H   H464      1.0  0.25130  0.36228  0.02199  1.0000
  C   C262      1.0  0.01961  0.56312  0.05243  1.0000
  H   H465      1.0  0.21531  0.61380  0.32126  1.0000
  H   H466      1.0  0.20244  0.60407  0.08594  1.0000
  C   C263      1.0  0.21532  0.50899  0.45027  1.0000
  C   C264      1.0  0.24976  0.35984  0.36093  1.0000
  H   H467      1.0  0.21472  0.48567  0.40277  1.0000
  C   C265      1.0  0.18094  0.62569  0.06081  1.0000
  C   C266      1.0  0.04162  0.63305  0.13424  1.0000
  H   H468      1.0  0.24274  0.39667  0.46001  1.0000
  H   H469      1.0  0.25504  0.36227  0.41551  1.0000
  S   S66       1.0  0.24822  0.46305  0.10275  1.0000
  H   H470      1.0  0.16337  0.57279  0.08599  1.0000
  H   H471      1.0  0.17544  0.61134  0.09993  1.0000
  C   C267      1.0  0.05744  0.60377  0.29838  1.0000
  C   C268      1.0  0.03710  0.62168  0.07397  1.0000
  C   C269      1.0  0.20006  0.53969  0.42228  1.0000
  S   S67       1.0  0.22056  0.37016  0.11580  1.0000
  C   C270      1.0  0.24917  0.44971  0.25902  1.0000
  H   H472      1.0  0.04241  0.55457  0.01945  1.0000
  H   H473      1.0  0.05539  0.56178  0.05065  1.0000
  N   N16       1.0  0.22663  0.38051  0.26617  1.0000
  C   C271      1.0  0.22767  0.37677  0.23596  1.0000
  C   C272      1.0  0.22467  0.49344  0.99006  1.0000
  C   C273      1.0  0.21031  0.40023  0.27120  1.0000
  N   N17       1.0  0.21353  0.51767  0.42186  1.0000
  C   C274      1.0  0.25397  0.36629  0.43737  1.0000
  H   H474      1.0  0.21433  0.50642  0.02958  1.0000
  C   C275      1.0  0.20499  0.40582  0.30123  1.0000
  C   C276      1.0  0.18016  0.49495  0.41303  1.0000
  H   H475      1.0  0.05991  0.53809  0.15480  1.0000
  H   H476      1.0  0.03537  0.56728  0.35877  1.0000
  S   S68       1.0  0.14810  0.50884  0.98508  1.0000
  C   C277      1.0  0.18076  0.47260  0.42647  1.0000
  C   C278      1.0  0.06550  0.66411  0.14423  1.0000
  H   H477      1.0  0.16377  0.46939  0.43208  1.0000
  H   H478      1.0  0.19443  0.39812  0.26051  1.0000
  H   H479      1.0  0.21638  0.41523  0.26279  1.0000
  Fe  Fe38      1.0  0.26074  0.44437  0.32806  1.0000
  C   C279      1.0  0.02594  0.56174  0.47133  1.0000
  H   H480      1.0  0.21974  0.41105  0.31184  1.0000
  N   N18       1.0  0.03972  0.61003  0.12388  1.0000
  H   H481      1.0  0.22476  0.41027  0.22014  1.0000
  H   H482      1.0  0.22707  0.64922  0.17990  1.0000
  C   C280      1.0  0.04737  0.59410  0.32304  1.0000
  H   H483      1.0  0.19939  0.39169  0.31206  1.0000
  H   H484      1.0  0.02843  0.64475  0.12556  1.0000
  H   H485      1.0  0.22667  0.35754  0.04051  1.0000
  C   C281      1.0  0.23764  0.43755  0.97839  1.0000
  H   H486      1.0  0.02050  0.61642  0.06941  1.0000
  H   H487      1.0  0.21097  0.37404  0.22792  1.0000
  H   H488      1.0  0.02405  0.51124  0.31764  1.0000
  C   C282      1.0  0.10701  0.48379  0.45312  1.0000
  H   H489      1.0  0.17116  0.41991  0.29443  1.0000
  H   H490      1.0  0.01712  0.56889  0.40220  1.0000
  C   C283      1.0  0.22983  0.50185  0.01837  1.0000
  H   H491      1.0  0.18700  0.56819  0.06441  1.0000
  H   H492      1.0  0.13062  0.65994  0.98782  1.0000
  H   H493      1.0  0.21674  0.35172  0.36867  1.0000
  H   H494      1.0  0.24205  0.35553  0.44581  1.0000
  C   C284      1.0  0.23877  0.38866  0.18950  1.0000
  C   C285      1.0  0.24055  0.34744  0.11612  1.0000
  H   H495      1.0  0.24608  0.40176  0.17839  1.0000
  C   C286      1.0  0.22740  0.52289  0.47109  1.0000
  S   S69       1.0  0.23938  0.45069  0.42638  1.0000
  H   H496      1.0  0.19628  0.65534  0.01706  1.0000
  H   H497      1.0  0.02288  0.62460  0.36311  1.0000
  C   C287      1.0  0.23481  0.45331  0.23686  1.0000
  C   C288      1.0  0.22407  0.62305  0.28069  1.0000
  H   H498      1.0  0.15517  0.65538  0.12434  1.0000
  C   C289      1.0  0.21469  0.60736  0.30024  1.0000
  C   C290      1.0  0.01563  0.60604  0.12311  1.0000
  H   H499      1.0  0.03488  0.56562  0.13122  1.0000
  H   H500      1.0  0.21601  0.47856  0.99262  1.0000
  C   C291      1.0  0.23638  0.39527  0.21925  1.0000
  H   H501      1.0  0.21740  0.45757  0.24019  1.0000
  H   H502      1.0  0.11999  0.65182  0.04290  1.0000
  C   C292      1.0  0.06564  0.62849  0.39811  1.0000
  H   H503      1.0  0.25285  0.40174  0.27132  1.0000
  H   H504      1.0  0.23110  0.54362  0.38016  1.0000
  C   C293      1.0  0.18677  0.42463  0.30359  1.0000
  C   C294      1.0  0.22004  0.39238  0.42746  1.0000
  H   H505      1.0  0.05015  0.59723  0.27966  1.0000
  H   H506      1.0  0.23818  0.36165  0.23069  1.0000
  H   H507      1.0  0.03265  0.52239  0.28645  1.0000
  H   H508      1.0  0.19166  0.43941  0.29339  1.0000
  C   C295      1.0  0.24498  0.35506  0.04045  1.0000
  C   C296      1.0  0.24857  0.38544  0.27803  1.0000
  C   C297      1.0  0.26297  0.34979  0.11278  1.0000
  H   H509      1.0  0.11087  0.47269  0.43560  1.0000
  N   N19       1.0  0.19017  0.53811  0.15229  1.0000
  C   C298      1.0  0.17438  0.52870  0.17120  1.0000
  C   C299      1.0  0.19695  0.55911  0.16463  1.0000
  C   C300      1.0  0.17879  0.54203  0.12539  1.0000
  C   C301      1.0  0.21053  0.52251  0.14801  1.0000
  C   C302      1.0  0.22311  0.51454  0.17396  1.0000
  C   C303      1.0  0.16726  0.50583  0.16336  1.0000
  C   C304      1.0  0.19172  0.55394  0.10416  1.0000
  C   C305      1.0  0.17866  0.57852  0.16604  1.0000
  C   C306      1.0  0.18766  0.59917  0.17754  1.0000
  C   C307      1.0  0.15150  0.49811  0.18420  1.0000
  S   S70       1.0  0.22197  0.42413  0.07303  1.0000
  H   H510      1.0  0.15895  0.53974  0.17279  1.0000
  H   H511      1.0  0.18116  0.52792  0.19213  1.0000
  H   H512      1.0  0.20282  0.55632  0.18574  1.0000
  H   H513      1.0  0.21137  0.56461  0.15394  1.0000
  H   H514      1.0  0.16220  0.55099  0.12807  1.0000
  H   H515      1.0  0.17547  0.52623  0.11578  1.0000
  H   H516      1.0  0.20649  0.50787  0.13614  1.0000
  H   H517      1.0  0.22256  0.53024  0.13540  1.0000
  H   H518      1.0  0.21251  0.50580  0.18735  1.0000
  H   H519      1.0  0.22911  0.52849  0.18536  1.0000
  H   H520      1.0  0.15845  0.50632  0.14365  1.0000
  H   H521      1.0  0.18163  0.49336  0.16211  1.0000
  H   H522      1.0  0.20595  0.54292  0.09678  1.0000
  H   H523      1.0  0.19798  0.56901  0.11247  1.0000
  H   H524      1.0  0.17153  0.58266  0.14588  1.0000
  H   H525      1.0  0.16518  0.57448  0.17936  1.0000
  H   H526      1.0  0.20084  0.60440  0.16446  1.0000
  H   H527      1.0  0.17413  0.61263  0.17851  1.0000
  H   H528      1.0  0.19426  0.59629  0.19829  1.0000
  H   H529      1.0  0.14651  0.48182  0.17803  1.0000
  H   H530      1.0  0.15964  0.49665  0.20434  1.0000
  H   H531      1.0  0.13641  0.50975  0.18561  1.0000
  S   S71       1.0  0.04920  0.54226  0.47146  1.0000
  S   S72       1.0  0.21978  0.43129  0.13905  1.0000
  H   H532      1.0  0.17023  0.54624  0.07052  1.0000
  H   H533      1.0  0.06585  0.62791  0.05074  1.0000
  C   C308      1.0  0.04886  0.60677  0.09582  1.0000
  C   C309      1.0  0.05276  0.59441  0.14262  1.0000
  H   H534      1.0  0.24695  0.50366  0.41495  1.0000
  C   C310      1.0  0.02433  0.52651  0.30596  1.0000
  C   C311      1.0  0.06394  0.64251  0.12899  1.0000
  C   C312      1.0  0.14679  0.65818  0.16633  1.0000
  S   S73       1.0  0.23850  0.45239  0.29199  1.0000
  C   C313      1.0  0.05177  0.56969  0.13625  1.0000
  C   C314      1.0  0.05971  0.55569  0.16030  1.0000
  H   H535      1.0  0.03405  0.53812  0.31723  1.0000
  Fe  Fe39      1.0  0.21407  0.45211  0.10211  1.0000
  H   H536      1.0  0.06687  0.60859  0.09577  1.0000
  H   H537      1.0  0.25943  0.64902  0.40787  1.0000
  H   H538      1.0  0.13143  0.67001  0.08762  1.0000
  Fe  Fe40      1.0  0.25461  0.43998  0.13734  1.0000
  C   C315      1.0  0.24636  0.43675  0.00468  1.0000
  C   C316      1.0  0.24288  0.45153  0.21036  1.0000
  H   H539      1.0  0.06586  0.64575  0.10722  1.0000
  H   H540      1.0  0.07804  0.63100  0.13526  1.0000
  H   H541      1.0  0.20557  0.66437  0.06694  1.0000
  C   C317      1.0  0.21062  0.64578  0.28158  1.0000
  H   H542      1.0  0.01876  0.54401  0.23608  1.0000
  H   H543      1.0  0.25319  0.40102  0.42686  1.0000
  H   H544      1.0  0.06262  0.56473  0.11890  1.0000
  H   H545      1.0  0.04853  0.55914  0.17772  1.0000
  C   C318      1.0  0.13067  0.66558  0.04304  1.0000
  H   H546      1.0  0.07664  0.55901  0.16643  1.0000
  H   H547      1.0  0.22353  0.61561  0.26021  1.0000
  S   S74       1.0  0.24978  0.42036  0.35753  1.0000
  H   H548      1.0  0.12498  0.65261  0.46735  1.0000
  C   C319      1.0  0.19217  0.67158  0.02639  1.0000
  C   C320      1.0  0.24316  0.49868  0.16708  1.0000
  H   H549      1.0  0.22129  0.54046  0.47005  1.0000
  H   H550      1.0  0.09219  0.66982  0.07389  1.0000
  H   H551      1.0  0.19565  0.54318  0.37780  1.0000
  C   C321      1.0  0.17757  0.57036  0.39755  1.0000
  N   N20       1.0  0.21800  0.66260  0.26266  1.0000
  C   C322      1.0  0.24238  0.66496  0.26564  1.0000
  H   H552      1.0  0.21093  0.55290  0.42681  1.0000
  H   H553      1.0  0.16697  0.57394  0.41548  1.0000
  C   C323      1.0  0.05008  0.62048  0.04773  1.0000
  H   H554      1.0  0.11914  0.49616  0.45366  1.0000
  H   H555      1.0  0.07542  0.65434  0.42462  1.0000
  H   H556      1.0  0.24591  0.65810  0.30943  1.0000
  H   H557      1.0  0.24540  0.52119  0.46736  1.0000
  H   H558      1.0  0.01814  0.58076  0.04749  1.0000
  H   H559      1.0  0.09020  0.49220  0.45017  1.0000
  C   C324      1.0  0.15611  0.66517  0.14245  1.0000
  H   H560      1.0  0.25227  0.65011  0.25774  1.0000
  H   H561      1.0  0.23946  0.51627  0.01733  1.0000
  C   C325      1.0  0.25072  0.44433  0.45838  1.0000
  H   H562      1.0  0.19317  0.64284  0.27709  1.0000
  H   H563      1.0  0.24757  0.38714  0.30037  1.0000
  H   H564      1.0  0.05182  0.63948  0.38971  1.0000
  C   C326      1.0  0.07121  0.63720  0.42614  1.0000
  H   H565      1.0  0.24983  0.37336  0.18705  1.0000
  H   H566      1.0  0.23968  0.48875  0.02967  1.0000
  H   H567      1.0  0.22243  0.38629  0.18032  1.0000
  S   S75       1.0  0.13915  0.57326  0.98306  1.0000
  H   H568      1.0  0.02012  0.56145  0.07462  1.0000
  H   H569      1.0  0.25245  0.49396  0.18583  1.0000
  H   H570      1.0  0.08562  0.62730  0.43490  1.0000
  H   H571      1.0  0.17987  0.39189  0.98297  1.0000
  H   H572      1.0  0.19387  0.51323  0.98423  1.0000
  H   H573      1.0  0.20930  0.38246  0.43924  1.0000
  C   C327      1.0  0.25077  0.66999  0.29453  1.0000
  H   H574      1.0  0.23783  0.48360  0.15745  1.0000
  H   H575      1.0  0.19972  0.36284  0.28020  1.0000
  H   H576      1.0  0.25442  0.50627  0.15330  1.0000
  C   C328      1.0  0.14787  0.65241  0.98718  1.0000
  C   C329      1.0  0.20827  0.67502  0.04966  1.0000
  Fe  Fe41      1.0  0.12593  0.54031  0.98217  1.0000
  H   H577      1.0  0.21483  0.67527  0.16821  1.0000
  H   H578      1.0  0.17286  0.67532  0.28121  1.0000
  C   C330      1.0  0.21003  0.51080  0.97384  1.0000
  H   H579      1.0  0.21724  0.52658  0.97657  1.0000
  C   C331      1.0  0.16760  0.67627  0.03474  1.0000
  H   H580      1.0  0.14180  0.44587  0.64996  1.0000
  Fe  Fe42      1.0  0.06991  0.60894  0.72175  1.0000
  S   S76       1.0  0.08627  0.57486  0.72370  1.0000
  S   S77       1.0  0.03251  0.61597  0.71957  1.0000
  Fe  Fe43      1.0  0.11453  0.62893  0.72216  1.0000
  S   S78       1.0  0.13372  0.59592  0.72475  1.0000
  H   H581      1.0  0.17307  0.51914  0.93468  1.0000
  Fe  Fe44      1.0  0.10979  0.58583  0.69343  1.0000
  S   S79       1.0  0.12063  0.56299  0.65906  1.0000
  Fe  Fe45      1.0  0.10843  0.58819  0.75507  1.0000
  S   S80       1.0  0.11589  0.56609  0.79094  1.0000
  S   S81       1.0  0.09193  0.61926  0.68893  1.0000
  S   S82       1.0  0.09075  0.62194  0.75511  1.0000
  H   H582      1.0  0.14889  0.60612  0.78647  1.0000
  C   C332      1.0  0.24406  0.45071  0.71263  1.0000
  H   H583      1.0  0.17229  0.59905  0.80851  1.0000
  S   S83       1.0  0.13337  0.65934  0.72256  1.0000
  H   H584      1.0  0.16143  0.64327  0.77629  1.0000
  Fe  Fe46      1.0  0.21455  0.44995  0.60149  1.0000
  H   H585      1.0  0.22459  0.50016  0.90715  1.0000
  Fe  Fe47      1.0  0.11219  0.58181  0.50750  1.0000
  S   S84       1.0  0.11197  0.60492  0.54312  1.0000
  Fe  Fe48      1.0  0.11767  0.58050  0.94647  1.0000
  S   S85       1.0  0.12686  0.60067  0.91119  1.0000
  S   S86       1.0  0.10408  0.54709  0.50993  1.0000
  S   S87       1.0  0.10719  0.54669  0.94339  1.0000
  C   C333      1.0  0.17917  0.48644  0.56533  1.0000
  C   C334      1.0  0.18800  0.47618  0.54200  1.0000
  C   C335      1.0  0.18095  0.48391  0.51652  1.0000
  C   C336      1.0  0.16548  0.50222  0.51428  1.0000
  C   C337      1.0  0.15715  0.51287  0.53761  1.0000
  C   C338      1.0  0.16385  0.50488  0.56309  1.0000
  H   H586      1.0  0.16856  0.55122  0.66431  1.0000
  H   H587      1.0  0.18747  0.47564  0.49851  1.0000
  H   H588      1.0  0.14546  0.52717  0.53607  1.0000
  H   H589      1.0  0.15704  0.51293  0.58111  1.0000
  C   C339      1.0  0.11868  0.57475  0.62689  1.0000
  C   C340      1.0  0.12096  0.56126  0.60388  1.0000
  C   C341      1.0  0.11924  0.57038  0.57804  1.0000
  C   C342      1.0  0.11482  0.59298  0.57512  1.0000
  C   C343      1.0  0.11269  0.60646  0.59811  1.0000
  C   C344      1.0  0.11479  0.59739  0.62390  1.0000
  H   H590      1.0  0.12418  0.54374  0.60605  1.0000
  H   H591      1.0  0.12148  0.55992  0.56046  1.0000
  H   H592      1.0  0.10947  0.62397  0.59601  1.0000
  H   H593      1.0  0.11373  0.60799  0.64140  1.0000
  C   C345      1.0  0.11811  0.57619  0.82426  1.0000
  C   C346      1.0  0.11668  0.59860  0.83014  1.0000
  C   C347      1.0  0.11933  0.60593  0.85690  1.0000
  C   C348      1.0  0.12288  0.59094  0.87799  1.0000
  C   C349      1.0  0.12385  0.56853  0.87215  1.0000
  C   C350      1.0  0.12162  0.56121  0.84535  1.0000
  H   H594      1.0  0.11386  0.61029  0.81406  1.0000
  H   H595      1.0  0.11860  0.62328  0.86129  1.0000
  H   H596      1.0  0.12678  0.55683  0.88818  1.0000
  H   H597      1.0  0.12285  0.54385  0.84089  1.0000
  H   H598      1.0  0.16161  0.51667  0.64391  1.0000
  C   C351      1.0  0.21585  0.65181  0.78211  1.0000
  H   H599      1.0  0.16365  0.44076  0.67455  1.0000
  C   C352      1.0  0.24057  0.34630  0.61143  1.0000
  H   H600      1.0  0.19264  0.52302  0.90934  1.0000
  H   H601      1.0  0.22703  0.35980  0.55695  1.0000
  H   H602      1.0  0.19643  0.34352  0.94601  1.0000
  H   H603      1.0  0.17006  0.44507  0.63958  1.0000
  H   H604      1.0  0.04026  0.56833  0.72147  1.0000
  C   C353      1.0  0.22420  0.51539  0.49990  1.0000
  H   H605      1.0  0.08646  0.49499  0.49936  1.0000
  H   H606      1.0  0.21542  0.40060  0.94108  1.0000
  C   C354      1.0  0.17514  0.66659  0.53028  1.0000
  H   H607      1.0  0.18101  0.64613  0.72732  1.0000
  N   N21       1.0  0.20644  0.50556  0.94435  1.0000
  H   H608      1.0  0.12320  0.65971  0.58476  1.0000
  H   H609      1.0  0.17410  0.61216  0.74888  1.0000
  C   C355      1.0  0.15955  0.63997  0.56135  1.0000
  S   S88       1.0  0.18576  0.47580  0.59745  1.0000
  H   H610      1.0  0.20898  0.40659  0.83625  1.0000
  H   H611      1.0  0.19813  0.54531  0.66208  1.0000
  C   C356      1.0  0.19223  0.67571  0.54986  1.0000
  C   C357      1.0  0.10254  0.48561  0.50409  1.0000
  H   H612      1.0  0.20516  0.62915  0.73494  1.0000
  C   C358      1.0  0.17856  0.62264  0.55298  1.0000
  C   C359      1.0  0.22485  0.49998  0.67120  1.0000
  H   H613      1.0  0.05380  0.58575  0.65792  1.0000
  H   H614      1.0  0.19977  0.46193  0.54359  1.0000
  H   H615      1.0  0.17658  0.48913  0.90490  1.0000
  C   C360      1.0  0.16644  0.59931  0.78721  1.0000
  H   H616      1.0  0.15260  0.48304  0.64258  1.0000
  C   C361      1.0  0.14898  0.63535  0.96437  1.0000
  C   C362      1.0  0.05467  0.43984  0.55447  1.0000
  H   H617      1.0  0.19473  0.62910  0.55681  1.0000
  N   N22       1.0  0.10170  0.47424  0.53091  1.0000
  C   C363      1.0  0.09925  0.49187  0.55253  1.0000
  H   H618      1.0  0.19262  0.47538  0.65497  1.0000
  H   H619      1.0  0.25148  0.37611  0.83478  1.0000
  H   H620      1.0  0.14398  0.64334  0.94499  1.0000
  C   C364      1.0  0.21126  0.66106  0.72106  1.0000
  C   C365      1.0  0.07725  0.50687  0.55221  1.0000
  C   C366      1.0  0.02977  0.55344  0.87445  1.0000
  H   H621      1.0  0.18591  0.47099  0.68908  1.0000
  C   C367      1.0  0.19372  0.39208  0.87040  1.0000
  H   H622      1.0  0.02923  0.57055  0.58949  1.0000
  H   H623      1.0  0.15184  0.55136  0.74863  1.0000
  H   H624      1.0  0.10066  0.48489  0.57302  1.0000
  C   C368      1.0  0.12320  0.46001  0.53462  1.0000
  H   H625      1.0  0.04070  0.59241  0.53623  1.0000
  H   H626      1.0  0.20746  0.55222  0.94311  1.0000
  H   H627      1.0  0.06720  0.47065  0.52306  1.0000
  C   C369      1.0  0.08234  0.46061  0.53002  1.0000
  H   H628      1.0  0.07658  0.46037  0.57411  1.0000
  H   H629      1.0  0.18266  0.56285  0.90397  1.0000
  H   H630      1.0  0.04124  0.45320  0.55171  1.0000
  H   H631      1.0  0.06301  0.49721  0.55534  1.0000
  C   C370      1.0  0.05872  0.61119  0.90812  1.0000
  N   N23       1.0  0.18232  0.50506  0.67754  1.0000
  H   H632      1.0  0.18942  0.50983  0.63547  1.0000
  C   C371      1.0  0.14818  0.53831  0.73401  1.0000
  H   H633      1.0  0.16136  0.49835  0.71103  1.0000
  H   H634      1.0  0.25121  0.39158  0.94098  1.0000
  H   H635      1.0  0.05156  0.43114  0.57335  1.0000
  C   C372      1.0  0.25537  0.38206  0.92226  1.0000
  S   S89       1.0  0.25383  0.42006  0.85331  1.0000
  H   H636      1.0  0.05798  0.55032  0.77109  1.0000
  H   H637      1.0  0.07941  0.51619  0.59479  1.0000
  H   H638      1.0  0.17391  0.54556  0.70730  1.0000
  H   H639      1.0  0.13752  0.62274  0.96825  1.0000
  N   N24       1.0  0.05319  0.55679  0.86710  1.0000
  C   C373      1.0  0.06831  0.53590  0.86913  1.0000
  C   C374      1.0  0.05435  0.56638  0.83920  1.0000
  C   C375      1.0  0.06137  0.57303  0.88721  1.0000
  H   H640      1.0  0.02210  0.59813  0.58087  1.0000
  H   H641      1.0  0.17948  0.41212  0.83772  1.0000
  C   C376      1.0  0.06767  0.52345  0.89604  1.0000
  C   C377      1.0  0.05077  0.59702  0.88513  1.0000
  C   C378      1.0  0.05746  0.55020  0.81486  1.0000
  C   C379      1.0  0.05363  0.56194  0.78798  1.0000
  H   H642      1.0  0.20680  0.52420  0.69613  1.0000
  C   C380      1.0  0.08501  0.50378  0.89658  1.0000
  H   H643      1.0  0.16391  0.64530  0.58213  1.0000
  H   H644      1.0  0.08564  0.53941  0.86551  1.0000
  H   H645      1.0  0.06468  0.52386  0.85326  1.0000
  H   H646      1.0  0.14694  0.62112  0.50937  1.0000
  H   H647      1.0  0.06874  0.57633  0.83795  1.0000
  H   H648      1.0  0.07951  0.57358  0.88540  1.0000
  H   H649      1.0  0.05870  0.56790  0.90823  1.0000
  C   C381      1.0  0.26056  0.34945  0.59904  1.0000
  H   H650      1.0  0.11312  0.50244  0.55132  1.0000
  C   C382      1.0  0.12739  0.63679  0.47806  1.0000
  H   H651      1.0  0.17595  0.57957  0.93343  1.0000
  H   H652      1.0  0.07102  0.53402  0.91342  1.0000
  H   H653      1.0  0.22536  0.66505  0.77477  1.0000
  S   S90       1.0  0.14125  0.57454  0.48029  1.0000
  H   H654      1.0  0.08497  0.44728  0.51471  1.0000
  H   H655      1.0  0.07470  0.54237  0.81490  1.0000
  C   C383      1.0  0.17621  0.56275  0.92483  1.0000
  H   H656      1.0  0.04448  0.54803  0.61932  1.0000
  H   H657      1.0  0.06865  0.64890  0.64328  1.0000
  H   H658      1.0  0.02905  0.52038  0.85625  1.0000
  C   C384      1.0  0.07693  0.52406  0.57481  1.0000
  H   H659      1.0  0.04243  0.66225  0.63192  1.0000
  H   H660      1.0  0.08423  0.49527  0.91613  1.0000
  H   H661      1.0  0.08198  0.49204  0.88002  1.0000
  H   H662      1.0  0.25163  0.63924  0.81559  1.0000
  H   H663      1.0  0.08207  0.54134  0.63820  1.0000
  S   S91       1.0  0.22230  0.42090  0.57408  1.0000
  C   C385      1.0  0.16880  0.53108  0.71769  1.0000
  H   H664      1.0  0.04699  0.56384  0.54422  1.0000
  H   H665      1.0  0.03256  0.59802  0.88631  1.0000
  C   C386      1.0  0.18210  0.54221  0.65281  1.0000
  H   H666      1.0  0.21973  0.45403  0.74415  1.0000
  H   H667      1.0  0.19249  0.37670  0.85863  1.0000
  H   H668      1.0  0.17788  0.61806  0.53140  1.0000
  H   H669      1.0  0.02289  0.63361  0.65397  1.0000
  Fe  Fe49      1.0  0.13129  0.54030  0.48008  1.0000
  C   C387      1.0  0.19485  0.41042  0.85006  1.0000
  C   C388      1.0  0.17904  0.63706  0.77992  1.0000
  H   H670      1.0  0.06938  0.57467  0.58411  1.0000
  H   H671      1.0  0.16358  0.67334  0.80574  1.0000
  C   C389      1.0  0.18050  0.61290  0.76990  1.0000
  H   H672      1.0  0.17728  0.40538  0.92355  1.0000
  H   H673      1.0  0.01469  0.54231  0.83722  1.0000
  H   H674      1.0  0.24468  0.35460  0.89918  1.0000
  C   C390      1.0  0.15846  0.45009  0.65615  1.0000
  C   C391      1.0  0.01856  0.53608  0.85778  1.0000
  H   H675      1.0  0.12258  0.44423  0.52341  1.0000
  H   H676      1.0  0.16058  0.64063  0.49007  1.0000
  H   H677      1.0  0.14852  0.51687  0.68710  1.0000
  C   C392      1.0  0.15788  0.47470  0.66157  1.0000
  H   H678      1.0  0.19756  0.60503  0.77005  1.0000
  H   H679      1.0  0.13720  0.64299  0.66694  1.0000
  H   H680      1.0  0.13453  0.54486  0.72049  1.0000
  H   H681      1.0  0.19565  0.54435  0.61245  1.0000
  H   H682      1.0  0.18975  0.44224  0.92385  1.0000
  C   C393      1.0  0.17807  0.60176  0.56934  1.0000
  H   H683      1.0  0.06305  0.60300  0.57550  1.0000
  H   H684      1.0  0.14507  0.47900  0.67698  1.0000
  H   H685      1.0  0.20847  0.34696  0.88575  1.0000
  C   C394      1.0  0.17788  0.45538  0.91563  1.0000
  H   H686      1.0  0.18253  0.56976  0.62586  1.0000
  H   H687      1.0  0.06338  0.52470  0.65439  1.0000
  H   H688      1.0  0.16595  0.54883  0.61388  1.0000
  H   H689      1.0  0.16739  0.58221  0.77941  1.0000
  C   C395      1.0  0.07707  0.44912  0.55643  1.0000
  C   C396      1.0  0.24290  0.52147  0.93110  1.0000
  H   H690      1.0  0.19242  0.59003  0.56402  1.0000
  C   C397      1.0  0.23711  0.45326  0.73958  1.0000
  C   C398      1.0  0.17872  0.51757  0.65162  1.0000
  H   H691      1.0  0.14273  0.52443  0.74553  1.0000
  C   C399      1.0  0.20492  0.50715  0.68962  1.0000
  H   H692      1.0  0.06942  0.58026  0.62859  1.0000
  S   S92       1.0  0.21967  0.43066  0.63973  1.0000
  C   C400      1.0  0.20685  0.38555  0.93767  1.0000
  N   N25       1.0  0.15472  0.65954  0.54331  1.0000
  H   H693      1.0  0.19667  0.42626  0.86055  1.0000
  C   C401      1.0  0.01460  0.59485  0.71965  1.0000
  H   H694      1.0  0.22615  0.48208  0.66725  1.0000
  H   H695      1.0  0.16276  0.59385  0.56479  1.0000
  S   S93       1.0  0.23991  0.44106  0.92376  1.0000
  H   H696      1.0  0.21760  0.40649  0.89637  1.0000
  H   H697      1.0  0.22349  0.50848  0.65159  1.0000
  H   H698      1.0  0.07467  0.51570  0.53294  1.0000
  H   H699      1.0  0.05434  0.42803  0.53732  1.0000
  C   C402      1.0  0.25255  0.45462  0.76065  1.0000
  C   C403      1.0  0.23863  0.36490  0.91680  1.0000
  H   H700      1.0  0.01839  0.62112  0.77605  1.0000
  H   H701      1.0  0.24670  0.52565  0.95232  1.0000
  H   H702      1.0  0.16357  0.44022  0.55151  1.0000
  H   H703      1.0  0.23503  0.53611  0.92077  1.0000
  C   C404      1.0  0.18153  0.55182  0.62448  1.0000
  H   H704      1.0  0.07193  0.54853  0.67166  1.0000
  C   C405      1.0  0.18086  0.48109  0.67112  1.0000
  H   H705      1.0  0.06418  0.57570  0.78657  1.0000
  C   C406      1.0  0.21455  0.38985  0.88890  1.0000
  H   H706      1.0  0.20703  0.49733  0.70840  1.0000
  H   H707      1.0  0.18204  0.52543  0.73229  1.0000
  C   C407      1.0  0.16448  0.51223  0.69774  1.0000
  H   H708      1.0  0.18135  0.48492  0.95588  1.0000
  H   H709      1.0  0.22764  0.66240  0.73054  1.0000
  H   H710      1.0  0.24683  0.52322  0.68719  1.0000
  C   C408      1.0  0.13799  0.65515  0.52168  1.0000
  C   C409      1.0  0.19068  0.54679  0.94238  1.0000
  H   H711      1.0  0.09003  0.53513  0.57168  1.0000
  H   H712      1.0  0.10888  0.67560  0.55853  1.0000
  C   C410      1.0  0.05256  0.57965  0.63680  1.0000
  C   C411      1.0  0.04790  0.55545  0.63920  1.0000
  C   C412      1.0  0.05657  0.58672  0.57553  1.0000
  H   H713      1.0  0.08959  0.43511  0.56000  1.0000
  H   H714      1.0  0.06074  0.53398  0.57480  1.0000
  H   H715      1.0  0.15627  0.43433  0.58551  1.0000
  C   C413      1.0  0.06756  0.54173  0.65164  1.0000
  C   C414      1.0  0.05292  0.58036  0.54600  1.0000
  C   C415      1.0  0.25151  0.43897  0.95628  1.0000
  H   H716      1.0  0.16599  0.62730  0.96220  1.0000
  H   H717      1.0  0.23208  0.44951  0.69659  1.0000
  C   C416      1.0  0.02286  0.57007  0.96481  1.0000
  H   H718      1.0  0.03364  0.55427  0.65272  1.0000
  H   H719      1.0  0.16308  0.45744  0.92868  1.0000
  H   H720      1.0  0.06119  0.61657  0.61654  1.0000
  C   C417      1.0  0.02794  0.58396  0.47626  1.0000
  C   C418      1.0  0.04336  0.61708  0.62161  1.0000
  H   H721      1.0  0.25610  0.36999  0.75196  1.0000
  H   H722      1.0  0.17883  0.60549  0.59131  1.0000
  H   H723      1.0  0.03948  0.57788  0.83532  1.0000
  H   H724      1.0  0.04625  0.53709  0.81546  1.0000
  N   N26       1.0  0.19420  0.65201  0.76701  1.0000
  C   C419      1.0  0.18191  0.39296  0.93903  1.0000
  Fe  Fe50      1.0  0.23100  0.40243  0.61215  1.0000
  H   H725      1.0  0.22508  0.63613  0.69264  1.0000
  H   H726      1.0  0.22831  0.38504  0.87487  1.0000
  C   C420      1.0  0.01935  0.61960  0.79833  1.0000
  C   C421      1.0  0.05074  0.65163  0.64766  1.0000
  H   H727      1.0  0.23435  0.52449  0.51403  1.0000
  S   S94       1.0  0.22074  0.36848  0.61836  1.0000
  C   C422      1.0  0.19606  0.48418  0.94271  1.0000
  H   H728      1.0  0.18510  0.41827  0.96985  1.0000
  S   S95       1.0  0.24320  0.45896  0.79409  1.0000
  C   C423      1.0  0.24602  0.44193  0.50692  1.0000
  H   H729      1.0  0.23562  0.44413  0.52445  1.0000
  H   H730      1.0  0.20304  0.47385  0.90055  1.0000
  H   H731      1.0  0.11147  0.63307  0.48682  1.0000
  C   C424      1.0  0.23839  0.34508  0.84033  1.0000
  N   N27       1.0  0.21495  0.37396  0.91209  1.0000
  H   H732      1.0  0.13706  0.46793  0.52553  1.0000
  Fe  Fe51      1.0  0.07908  0.55935  0.96997  1.0000
  H   H733      1.0  0.02554  0.63474  0.80678  1.0000
  S   S96       1.0  0.15664  0.51117  0.48209  1.0000
  C   C425      1.0  0.18871  0.47678  0.91418  1.0000
  H   H734      1.0  0.13738  0.46958  0.57336  1.0000
  H   H735      1.0  0.26228  0.51196  0.89536  1.0000
  C   C426      1.0  0.14631  0.65724  0.66890  1.0000
  H   H736      1.0  0.03136  0.60560  0.80353  1.0000
  H   H737      1.0  0.01456  0.53941  0.72130  1.0000
  H   H738      1.0  0.22919  0.49759  0.50181  1.0000
  H   H739      1.0  0.25988  0.53393  0.56002  1.0000
  S   S97       1.0  0.08859  0.59049  0.47355  1.0000
  C   C427      1.0  0.23126  0.63035  0.78135  1.0000
  H   H740      1.0  0.05527  0.60447  0.86592  1.0000
  H   H741      1.0  0.18136  0.63713  0.80225  1.0000
  H   H742      1.0  0.10183  0.50917  0.89457  1.0000
  S   S98       1.0  0.08830  0.59374  0.97053  1.0000
  H   H743      1.0  0.18382  0.65301  0.51849  1.0000
  S   S99       1.0  0.24873  0.46064  0.60169  1.0000
  C   C428      1.0  0.04054  0.62986  0.64882  1.0000
  H   H744      1.0  0.05129  0.51733  0.89893  1.0000
  H   H745      1.0  0.05164  0.62839  0.90565  1.0000
  H   H746      1.0  0.17270  0.45037  0.89511  1.0000
  H   H747      1.0  0.22407  0.61768  0.79325  1.0000
  C   C429      1.0  0.15730  0.66476  0.64647  1.0000
  H   H748      1.0  0.17836  0.39550  0.88195  1.0000
  H   H749      1.0  0.07699  0.61084  0.90813  1.0000
  H   H750      1.0  0.26187  0.64631  0.78310  1.0000
  C   C430      1.0  0.25519  0.35931  0.84068  1.0000
  C   C431      1.0  0.25998  0.51758  0.56936  1.0000
  H   H751      1.0  0.11492  0.49786  0.50498  1.0000
  C   C432      1.0  0.13109  0.45484  0.56397  1.0000
  H   H752      1.0  0.23438  0.62432  0.76046  1.0000
  H   H753      1.0  0.06869  0.58021  0.53495  1.0000
  H   H754      1.0  0.12287  0.64968  0.53080  1.0000
  C   C433      1.0  0.19739  0.64608  0.73754  1.0000
  H   H755      1.0  0.15899  0.55819  0.92409  1.0000
  H   H756      1.0  0.18446  0.36051  0.90027  1.0000
  C   C434      1.0  0.21504  0.65219  0.69237  1.0000
  C   C435      1.0  0.20195  0.35493  0.90477  1.0000
  H   H757      1.0  0.01887  0.56886  0.87227  1.0000
  H   H758      1.0  0.24274  0.51310  0.57012  1.0000
  H   H759      1.0  0.04875  0.66021  0.66748  1.0000
  H   H760      1.0  0.23772  0.48733  0.93529  1.0000
  C   C436      1.0  0.23727  0.44696  0.48118  1.0000
  C   C437      1.0  0.24650  0.50528  0.68450  1.0000
  H   H761      1.0  0.13264  0.67060  0.51090  1.0000
  H   H762      1.0  0.12537  0.46252  0.48084  1.0000
  C   C438      1.0  0.19044  0.52296  0.93162  1.0000
  H   H763      1.0  0.14440  0.63145  0.56384  1.0000
  C   C439      1.0  0.22783  0.50261  0.92904  1.0000
  H   H764      1.0  0.20755  0.47059  0.95050  1.0000
  H   H765      1.0  0.14375  0.42074  0.55765  1.0000
  H   H766      1.0  0.03430  0.62743  0.60602  1.0000
  H   H767      1.0  0.15640  0.65625  0.62737  1.0000
  H   H768      1.0  0.01484  0.59439  0.65596  1.0000
  H   H769      1.0  0.20668  0.51889  0.50576  1.0000
  C   C440      1.0  0.14505  0.63750  0.50010  1.0000
  H   H770      1.0  0.05326  0.60531  0.92782  1.0000
  H   H771      1.0  0.02884  0.54939  0.89626  1.0000
  C   C441      1.0  0.02271  0.57282  0.72070  1.0000
  C   C442      1.0  0.14979  0.43640  0.56457  1.0000
  C   C443      1.0  0.03482  0.58714  0.59167  1.0000
  H   H772      1.0  0.04378  0.58945  0.48106  1.0000
  H   H773      1.0  0.11782  0.45004  0.57698  1.0000
  H   H774      1.0  0.04859  0.62040  0.66554  1.0000
  H   H775      1.0  0.22931  0.35928  0.52085  1.0000
  H   H776      1.0  0.24000  0.35396  0.93452  1.0000
  H   H777      1.0  0.22180  0.35116  0.83451  1.0000
  S   S100      1.0  0.04510  0.55032  0.95868  1.0000
  H   H778      1.0  0.18392  0.54807  0.96314  1.0000
  Fe  Fe52      1.0  0.25459  0.43919  0.63794  1.0000
  C   C444      1.0  0.22323  0.35058  0.53833  1.0000
  H   H779      1.0  0.26055  0.49905  0.67154  1.0000
  H   H780      1.0  0.19441  0.66589  0.56847  1.0000
  H   H781      1.0  0.19904  0.65029  0.68205  1.0000
  Fe  Fe53      1.0  0.25698  0.43014  0.57701  1.0000
  H   H782      1.0  0.03604  0.56824  0.78554  1.0000
  H   H783      1.0  0.25574  0.39361  0.90533  1.0000
  C   C445      1.0  0.25366  0.63378  0.79421  1.0000
  H   H784      1.0  0.17180  0.37899  0.93630  1.0000
  H   H785      1.0  0.24872  0.49730  0.70445  1.0000
  H   H786      1.0  0.22394  0.66384  0.68065  1.0000
  H   H787      1.0  0.21301  0.65569  0.80382  1.0000
  H   H788      1.0  0.21129  0.37523  0.95555  1.0000
  C   C446      1.0  0.17596  0.40364  0.96637  1.0000
  H   H789      1.0  0.25658  0.36706  0.48731  1.0000
  N   N28       1.0  0.03592  0.59424  0.62093  1.0000
  H   H790      1.0  0.22206  0.65917  0.53225  1.0000
  H   H791      1.0  0.15802  0.40897  0.96683  1.0000
  H   H792      1.0  0.22006  0.45284  0.47895  1.0000
  C   C447      1.0  0.14690  0.66831  0.69370  1.0000
  H   H793      1.0  0.20504  0.35048  0.53671  1.0000
  C   C448      1.0  0.12235  0.67539  0.57380  1.0000
  H   H794      1.0  0.09677  0.45786  0.47669  1.0000
  C   C449      1.0  0.10833  0.47063  0.47912  1.0000
  Fe  Fe54      1.0  0.08257  0.55515  0.47387  1.0000
  C   C450      1.0  0.18305  0.67505  0.76846  1.0000
  H   H795      1.0  0.26359  0.66696  0.70610  1.0000
  C   C451      1.0  0.21474  0.67608  0.53662  1.0000
  H   H796      1.0  0.15064  0.98568  0.22107  1.0000
  C   C452      1.0  0.25857  0.72005  0.21042  1.0000
  C   C453      1.0  0.23624  0.88982  0.02974  1.0000
  Fe  Fe55      1.0  0.25796  0.73372  0.38980  1.0000
  S   S101      1.0  0.22691  0.94860  0.03704  1.0000
  H   H797      1.0  0.22462  0.95027  0.26817  1.0000
  H   H798      1.0  0.16710  0.68680  0.05318  1.0000
  S   S102      1.0  0.22046  0.93604  0.38836  1.0000
  H   H799      1.0  0.13356  0.69467  0.06914  1.0000
  N   N29       1.0  0.21038  0.80383  0.20009  1.0000
  S   S103      1.0  0.21373  0.94367  0.32314  1.0000
  H   H800      1.0  0.24885  0.85943  0.04617  1.0000
  Fe  Fe56      1.0  0.20814  0.96347  0.36128  1.0000
  Fe  Fe57      1.0  0.22922  0.91737  0.35023  1.0000
  S   S104      1.0  0.22067  0.88262  0.34518  1.0000
  H   H801      1.0  0.25245  0.00396  0.19384  1.0000
  H   H802      1.0  0.18361  0.00572  0.21488  1.0000
  C   C454      1.0  0.24116  0.94897  0.20264  1.0000
  S   S105      1.0  0.17630  0.98475  0.36650  1.0000
  S   S106      1.0  0.17773  0.69318  0.11149  1.0000
  H   H803      1.0  0.19048  0.79227  0.16751  1.0000
  H   H804      1.0  0.21464  0.77711  0.03397  1.0000
  H   H805      1.0  0.02199  0.00459  0.01397  1.0000
  S   S107      1.0  0.23696  0.72773  0.42610  1.0000
  H   H806      1.0  0.24710  0.67857  0.25301  1.0000
  S   S108      1.0  0.22956  0.73662  0.29350  1.0000
  H   H807      1.0  0.16783  0.76087  0.16632  1.0000
  C   C455      1.0  0.25524  0.96087  0.25466  1.0000
  Fe  Fe58      1.0  0.22307  0.76074  0.11233  1.0000
  S   S109      1.0  0.24038  0.97819  0.35954  1.0000
  S   S110      1.0  0.21376  0.79739  0.11368  1.0000
  Fe  Fe59      1.0  0.20565  0.71536  0.11215  1.0000
  S   S111      1.0  0.23990  0.69820  0.11146  1.0000
  Fe  Fe60      1.0  0.24965  0.94025  0.07206  1.0000
  H   H808      1.0  0.20856  0.68927  0.29049  1.0000
  H   H809      1.0  0.25275  0.82313  0.03073  1.0000
  Fe  Fe61      1.0  0.24720  0.72331  0.08108  1.0000
  H   H810      1.0  0.24603  0.89846  0.04478  1.0000
  S   S112      1.0  0.21279  0.73902  0.14526  1.0000
  S   S113      1.0  0.21232  0.73872  0.07895  1.0000
  H   H811      1.0  0.22915  0.79572  0.99483  1.0000
  C   C456      1.0  0.20761  0.77462  0.01351  1.0000
  H   H812      1.0  0.15131  0.70902  0.26717  1.0000
  H   H813      1.0  0.20586  0.90700  0.04450  1.0000
  H   H814      1.0  0.02633  0.99153  0.04610  1.0000
  H   H815      1.0  0.19792  0.75999  0.20079  1.0000
  H   H816      1.0  0.22726  0.83269  0.19251  1.0000
  Fe  Fe62      1.0  0.24743  0.72308  0.14286  1.0000
  H   H817      1.0  0.17581  0.71190  0.16590  1.0000
  H   H818      1.0  0.26131  0.79178  0.10324  1.0000
  H   H819      1.0  0.10831  0.00028  0.44034  1.0000
  C   C457      1.0  0.16787  0.69688  0.16591  1.0000
  S   S114      1.0  0.24598  0.76134  0.36256  1.0000
  C   C458      1.0  0.23614  0.72651  0.21341  1.0000
  C   C459      1.0  0.22758  0.73208  0.23891  1.0000
  C   C460      1.0  0.24370  0.95157  0.45381  1.0000
  H   H820      1.0  0.15940  0.68727  0.01924  1.0000
  H   H821      1.0  0.22524  0.72668  0.19622  1.0000
  H   H822      1.0  0.21011  0.73673  0.24110  1.0000
  C   C461      1.0  0.12562  0.67914  0.06938  1.0000
  C   C462      1.0  0.23246  0.88562  0.42981  1.0000
  C   C463      1.0  0.22678  0.94385  0.98221  1.0000
  Fe  Fe63      1.0  0.25363  0.73787  0.32819  1.0000
  C   C464      1.0  0.23739  0.71566  0.00741  1.0000
  C   C465      1.0  0.22971  0.71408  0.98070  1.0000
  C   C466      1.0  0.25034  0.82130  0.35207  1.0000
  H   H823      1.0  0.21247  0.91503  0.44342  1.0000
  H   H824      1.0  0.22589  0.71670  0.02392  1.0000
  H   H825      1.0  0.19140  0.81427  0.23550  1.0000
  C   C467      1.0  0.21057  0.89753  0.43894  1.0000
  C   C468      1.0  0.25050  0.88689  0.45202  1.0000
  C   C469      1.0  0.24108  0.86058  0.34876  1.0000
  C   C470      1.0  0.23465  0.83930  0.34865  1.0000
  H   H826      1.0  0.25227  0.77230  0.46653  1.0000
  H   H827      1.0  0.16140  0.97508  0.12809  1.0000
  H   H828      1.0  0.21222  0.71397  0.97673  1.0000
  H   H829      1.0  0.08092  0.99190  0.44370  1.0000
  H   H830      1.0  0.21741  0.83671  0.34622  1.0000
  C   C471      1.0  0.21289  0.88989  0.04077  1.0000
  H   H831      1.0  0.20682  0.86339  0.15703  1.0000
  C   C472      1.0  0.18404  0.77288  0.20235  1.0000
  C   C473      1.0  0.16953  0.70884  0.26900  1.0000
  S   S115      1.0  0.25823  0.74657  0.11267  1.0000
  C   C474      1.0  0.22722  0.83857  0.10931  1.0000
  C   C475      1.0  0.23377  0.81604  0.10848  1.0000
  C   C476      1.0  0.20616  0.89748  0.27080  1.0000
  H   H832      1.0  0.20205  0.88220  0.02600  1.0000
  H   H833      1.0  0.23735  0.87113  0.10687  1.0000
  H   H834      1.0  0.21005  0.84417  0.11242  1.0000
  C   C477      1.0  0.24087  0.87820  0.25027  1.0000
  Fe  Fe64      1.0  0.24712  0.95617  0.32338  1.0000
  C   C478      1.0  0.15829  0.69003  0.18970  1.0000
  H   H835      1.0  0.22455  0.86966  0.28764  1.0000
  H   H836      1.0  0.22223  0.81422  0.28366  1.0000
  C   C479      1.0  0.23647  0.78278  0.46838  1.0000
  H   H837      1.0  0.22976  0.77254  0.20472  1.0000
  H   H838      1.0  0.19719  0.00329  0.05658  1.0000
  H   H839      1.0  0.20310  0.75753  0.01189  1.0000
  C   C480      1.0  0.25599  0.80902  0.10408  1.0000
  H   H840      1.0  0.23442  0.99140  0.03001  1.0000
  N   N30       1.0  0.18975  0.00412  0.15528  1.0000
  C   C481      1.0  0.22790  0.94650  0.22511  1.0000
  C   C482      1.0  0.23499  0.95224  0.25105  1.0000
  H   H841      1.0  0.24846  0.87449  0.19698  1.0000
  H   H842      1.0  0.18812  0.94819  0.10489  1.0000
  H   H843      1.0  0.21203  0.94014  0.22244  1.0000
  H   H844      1.0  0.19474  0.96900  0.08170  1.0000
  H   H845      1.0  0.25367  0.80630  0.21586  1.0000
  H   H846      1.0  0.22140  0.78616  0.29317  1.0000
  H   H847      1.0  0.19736  0.90132  0.29006  1.0000
  H   H848      1.0  0.23534  0.89938  0.01101  1.0000
  H   H849      1.0  0.17953  0.83732  0.17176  1.0000
  H   H850      1.0  0.15985  0.99663  0.03921  1.0000
  H   H851      1.0  0.17533  0.71934  0.25300  1.0000
  C   C483      1.0  0.15063  0.99885  0.29460  1.0000
  Fe  Fe65      1.0  0.25335  0.94920  0.38393  1.0000
  C   C484      1.0  0.18170  0.96362  0.09489  1.0000
  H   H852      1.0  0.22886  0.78246  0.17158  1.0000
  C   C485      1.0  0.19873  0.86455  0.17703  1.0000
  H   H853      1.0  0.24122  0.89362  0.23891  1.0000
  H   H854      1.0  0.21325  0.79980  0.44009  1.0000
  H   H855      1.0  0.24508  0.80508  0.35195  1.0000
  H   H856      1.0  0.18359  0.87609  0.17545  1.0000
  H   H857      1.0  0.20099  0.97104  0.14366  1.0000
  H   H858      1.0  0.13262  0.00013  0.29032  1.0000
  C   C486      1.0  0.16674  0.68453  0.14211  1.0000
  H   H859      1.0  0.20759  0.99050  0.12009  1.0000
  H   H860      1.0  0.17532  0.67938  0.24563  1.0000
  C   C487      1.0  0.17263  0.99652  0.17402  1.0000
  C   C488      1.0  0.22991  0.78781  0.19313  1.0000
  C   C489      1.0  0.24271  0.85392  0.10609  1.0000
  H   H861      1.0  0.20867  0.91312  0.26088  1.0000
  H   H862      1.0  0.23718  0.89307  0.41074  1.0000
  C   C490      1.0  0.24130  0.73080  0.26174  1.0000
  S   S116      1.0  0.23115  0.94196  0.17058  1.0000
  H   H863      1.0  0.24958  0.83582  0.25751  1.0000
  H   H864      1.0  0.15955  0.99292  0.27611  1.0000
  C   C491      1.0  0.17460  0.98128  0.11592  1.0000
  S   S117      1.0  0.14660  0.99820  0.97739  1.0000
  C   C492      1.0  0.25999  0.71554  0.01267  1.0000
  C   C493      1.0  0.21274  0.82466  0.18487  1.0000
  H   H865      1.0  0.19565  0.88786  0.25768  1.0000
  C   C494      1.0  0.09054  0.00624  0.44144  1.0000
  H   H866      1.0  0.25625  0.80702  0.17980  1.0000
  H   H867      1.0  0.05224  0.67656  0.13747  1.0000
  H   H868      1.0  0.24197  0.79946  0.43070  1.0000
  C   C495      1.0  0.18508  0.99101  0.42062  1.0000
  H   H869      1.0  0.19942  0.97942  0.41799  1.0000
  Fe  Fe66      1.0  0.25283  0.93885  0.13371  1.0000
  C   C496      1.0  0.16426  0.76413  0.18801  1.0000
  H   H870      1.0  0.25082  0.90440  0.45817  1.0000
  H   H871      1.0  0.17949  0.77553  0.22382  1.0000
  C   C497      1.0  0.21421  0.79904  0.27928  1.0000
  H   H872      1.0  0.17367  0.71568  0.28909  1.0000
  C   C498      1.0  0.23965  0.94655  0.00532  1.0000
  H   H873      1.0  0.14941  0.77602  0.18978  1.0000
  H   H874      1.0  0.26215  0.85055  0.42107  1.0000
  H   H875      1.0  0.16063  0.74853  0.19733  1.0000
  H   H876      1.0  0.22781  0.77522  0.42689  1.0000
  H   H877      1.0  0.17687  0.97902  0.17936  1.0000
  H   H878      1.0  0.17490  0.80631  0.19366  1.0000
  C   C499      1.0  0.18964  0.79463  0.18987  1.0000
  S   S118      1.0  0.24079  0.91603  0.10238  1.0000
  C   C500      1.0  0.14880  0.00328  0.21577  1.0000
  H   H879      1.0  0.15889  0.69993  0.20784  1.0000
  H   H880      1.0  0.19105  0.99601  0.46312  1.0000
  H   H881      1.0  0.12452  0.67638  0.02626  1.0000
  H   H882      1.0  0.16736  0.96026  0.08198  1.0000
  C   C501      1.0  0.22829  0.88447  0.27669  1.0000
  H   H883      1.0  0.21310  0.88099  0.06014  1.0000
  H   H884      1.0  0.23957  0.76734  0.99641  1.0000
  H   H885      1.0  0.20357  0.68662  0.21379  1.0000
  C   C502      1.0  0.17110  0.99642  0.39867  1.0000
  H   H886      1.0  0.23281  0.95524  0.43688  1.0000
  C   C503      1.0  0.23279  0.00449  0.15675  1.0000
  H   H887      1.0  0.09767  0.69466  0.09142  1.0000
  H   H888      1.0  0.23790  0.89471  0.29010  1.0000
  H   H889      1.0  0.21255  0.99431  0.18773  1.0000
  H   H890      1.0  0.19803  0.89669  0.42260  1.0000
  H   H891      1.0  0.20916  0.94312  0.98401  1.0000
  C   C504      1.0  0.20886  0.80934  0.22994  1.0000
  C   C505      1.0  0.25288  0.79645  0.19703  1.0000
  C   C506      1.0  0.21804  0.79145  0.25005  1.0000
  H   H892      1.0  0.22941  0.86840  0.42540  1.0000
  C   C507      1.0  0.19442  0.98655  0.13394  1.0000
  H   H893      1.0  0.19255  0.78613  0.01111  1.0000
  H   H894      1.0  0.18565  0.84401  0.20641  1.0000
  C   C508      1.0  0.24700  0.72507  0.45954  1.0000
  H   H895      1.0  0.20452  0.88985  0.45724  1.0000
  H   H896      1.0  0.23035  0.86783  0.23805  1.0000
  H   H897      1.0  0.20995  0.87133  0.19205  1.0000
  C   C509      1.0  0.19261  0.84216  0.18583  1.0000
  H   H898      1.0  0.21157  0.69731  0.25695  1.0000
  H   H899      1.0  0.19759  0.99189  0.01040  1.0000
  H   H900      1.0  0.23458  0.85658  0.01501  1.0000
  C   C510      1.0  0.18007  0.68538  0.26576  1.0000
  H   H901      1.0  0.21773  0.82393  0.23486  1.0000
  H   H902      1.0  0.21018  0.77613  0.24708  1.0000
  H   H903      1.0  0.23604  0.78748  0.24768  1.0000
  H   H904      1.0  0.19628  0.80199  0.28341  1.0000
  H   H905      1.0  0.24437  0.87854  0.46979  1.0000
  H   H906      1.0  0.21617  0.82090  0.16322  1.0000
  H   H907      1.0  0.16765  0.99599  0.10496  1.0000
  C   C511      1.0  0.22465  0.77874  0.99224  1.0000
  C   C512      1.0  0.26343  0.86376  0.35154  1.0000
  H   H908      1.0  0.19556  0.68340  0.01049  1.0000
  C   C513      1.0  0.22946  0.78986  0.43985  1.0000
  H   H909      1.0  0.15622  0.99726  0.16375  1.0000
  S   S119      1.0  0.26203  0.70950  0.35542  1.0000
  H   H910      1.0  0.15429  0.98675  0.31088  1.0000
  C   C514      1.0  0.18032  0.00043  0.44615  1.0000
  C   C515      1.0  0.22628  0.00858  0.97969  1.0000
  C   C516      1.0  0.24694  0.86612  0.02537  1.0000
  H   H911      1.0  0.23739  0.98692  0.15212  1.0000
  H   H912      1.0  0.20623  0.69229  0.05680  1.0000
  C   C517      1.0  0.21041  0.00697  0.17172  1.0000
  H   H913      1.0  0.25387  0.84884  0.97572  1.0000
  C   C518      1.0  0.10081  0.68492  0.07257  1.0000
  H   H914      1.0  0.09399  0.69478  0.05527  1.0000
  H   H915      1.0  0.25505  0.84882  0.28883  1.0000
  C   C519      1.0  0.26236  0.94778  0.00276  1.0000
  H   H916      1.0  0.24416  0.68664  0.30116  1.0000
  H   H917      1.0  0.25566  0.67860  0.41090  1.0000
  C   C520      1.0  0.20546  0.68431  0.26922  1.0000
  H   H918      1.0  0.23272  0.67870  0.21280  1.0000
  H   H919      1.0  0.18808  0.00612  0.32031  1.0000
  H   H920      1.0  0.13382  0.00673  0.20297  1.0000
  C   C521      1.0  0.26149  0.95752  0.20613  1.0000
  C   C522      1.0  0.02121  0.00731  0.03616  1.0000
  H   H921      1.0  0.22799  0.99037  0.98060  1.0000
  H   H922      1.0  0.08712  0.00731  0.39853  1.0000
  S   S120      1.0  0.25783  0.96481  0.10344  1.0000
  C   C523      1.0  0.16926  0.00942  0.20115  1.0000
  H   H923      1.0  0.26265  0.81821  0.99688  1.0000
  C   C524      1.0  0.26164  0.84550  0.26818  1.0000
  S   S121      1.0  0.26314  0.92832  0.34768  1.0000
  C   C525      1.0  0.23529  0.00925  0.02773  1.0000
  H   H924      1.0  0.24350  0.81843  0.55302  1.0000
  H   H925      1.0  0.20764  0.98478  0.65149  1.0000
  C   C526      1.0  0.24789  0.79876  0.85377  1.0000
  H   H926      1.0  0.18555  0.77681  0.92142  1.0000
  S   S122      1.0  0.23682  0.94092  0.53339  1.0000
  H   H927      1.0  0.22686  0.76977  0.52115  1.0000
  H   H928      1.0  0.18653  0.69281  0.55587  1.0000
  S   S123      1.0  0.21665  0.91885  0.89162  1.0000
  C   C527      1.0  0.22151  0.77411  0.91428  1.0000
  H   H929      1.0  0.16011  0.95656  0.52821  1.0000
  S   S124      1.0  0.21406  0.91685  0.82539  1.0000
  H   H930      1.0  0.25076  0.89480  0.92559  1.0000
  Fe  Fe67      1.0  0.20707  0.94221  0.85825  1.0000
  Fe  Fe68      1.0  0.22695  0.89466  0.85884  1.0000
  S   S125      1.0  0.21754  0.85994  0.86096  1.0000
  H   H931      1.0  0.17376  0.99084  0.51271  1.0000
  H   H932      1.0  0.16985  0.79167  0.53944  1.0000
  C   C528      1.0  0.25582  0.88234  0.96607  1.0000
  C   C529      1.0  0.11600  0.69380  0.59411  1.0000
  H   H933      1.0  0.15911  0.69578  0.71469  1.0000
  S   S126      1.0  0.24468  0.73778  0.85891  1.0000
  H   H934      1.0  0.21659  0.83912  0.51743  1.0000
  C   C530      1.0  0.18553  0.97886  0.52313  1.0000
  S   S127      1.0  0.23415  0.71113  0.92592  1.0000
  H   H935      1.0  0.21317  0.68540  0.51755  1.0000
  S   S128      1.0  0.23212  0.70655  0.79335  1.0000
  C   C531      1.0  0.20302  0.79782  0.52815  1.0000
  H   H936      1.0  0.14230  0.69370  0.54793  1.0000
  Fe  Fe69      1.0  0.22696  0.76055  0.61400  1.0000
  H   H937      1.0  0.22379  0.81395  0.48430  1.0000
  S   S129      1.0  0.21868  0.79736  0.61250  1.0000
  Fe  Fe70      1.0  0.20965  0.71520  0.61833  1.0000
  S   S130      1.0  0.24392  0.69811  0.61601  1.0000
  H   H938      1.0  0.19748  0.80076  0.50704  1.0000
  Fe  Fe71      1.0  0.25024  0.93055  0.88727  1.0000
  H   H939      1.0  0.17403  0.77282  0.87423  1.0000
  C   C532      1.0  0.23431  0.84109  0.52058  1.0000
  C   C533      1.0  0.18738  0.98503  0.55346  1.0000
  S   S131      1.0  0.21808  0.74037  0.64919  1.0000
  S   S132      1.0  0.21475  0.73716  0.58299  1.0000
  C   C534      1.0  0.26220  0.78207  0.70599  1.0000
  C   C535      1.0  0.19732  0.78050  0.90561  1.0000
  H   H940      1.0  0.21333  0.75128  0.77775  1.0000
  N   N31       1.0  0.19886  0.00532  0.55990  1.0000
  H   H941      1.0  0.22872  0.98353  0.55465  1.0000
  H   H942      1.0  0.18443  0.97149  0.95841  1.0000
  C   C536      1.0  0.24842  0.94207  0.70089  1.0000
  C   C537      1.0  0.23595  0.86044  0.53996  1.0000
  H   H943      1.0  0.17031  0.98676  0.56165  1.0000
  C   C538      1.0  0.24442  0.70821  0.76166  1.0000
  Fe  Fe72      1.0  0.25965  0.93559  0.56920  1.0000
  H   H944      1.0  0.17923  0.70838  0.67541  1.0000
  H   H945      1.0  0.21767  0.85284  0.95240  1.0000
  C   C539      1.0  0.24060  0.71460  0.71350  1.0000
  C   C540      1.0  0.23106  0.71226  0.73879  1.0000
  S   S133      1.0  0.24025  0.95528  0.85543  1.0000
  H   H946      1.0  0.20190  0.81349  0.53964  1.0000
  H   H947      1.0  0.23015  0.71743  0.69600  1.0000
  H   H948      1.0  0.21331  0.71405  0.74063  1.0000
  H   H949      1.0  0.22608  0.68409  0.55047  1.0000
  H   H950      1.0  0.24057  0.81459  0.95275  1.0000
  H   H951      1.0  0.18988  0.80337  0.69696  1.0000
  H   H952      1.0  0.09992  0.69127  0.60333  1.0000
  C   C541      1.0  0.23905  0.72291  0.50760  1.0000
  C   C542      1.0  0.12590  0.00269  0.80676  1.0000
  H   H953      1.0  0.25811  0.86732  0.71693  1.0000
  H   H954      1.0  0.24466  0.78380  0.80022  1.0000
  H   H955      1.0  0.22719  0.72319  0.52370  1.0000
  C   C543      1.0  0.16938  0.68316  0.64862  1.0000
  C   C544      1.0  0.24453  0.71268  0.95911  1.0000
  Fe  Fe73      1.0  0.25253  0.72432  0.64502  1.0000
  C   C545      1.0  0.23819  0.83798  0.85827  1.0000
  C   C546      1.0  0.23189  0.81669  0.85563  1.0000
  H   H956      1.0  0.23794  0.87458  0.75341  1.0000
  C   C547      1.0  0.23481  0.94884  0.47937  1.0000
  S   S134      1.0  0.17574  0.96520  0.86009  1.0000
  H   H957      1.0  0.16820  0.67649  0.75509  1.0000
  H   H958      1.0  0.21456  0.81411  0.85482  1.0000
  H   H959      1.0  0.24473  0.86996  0.60538  1.0000
  H   H960      1.0  0.20406  0.81966  0.97193  1.0000
  H   H961      1.0  0.25045  0.75447  0.79994  1.0000
  C   C548      1.0  0.23180  0.72554  0.48072  1.0000
  C   C549      1.0  0.21715  0.76595  0.78961  1.0000
  H   H962      1.0  0.24118  0.84555  0.50098  1.0000
  C   C550      1.0  0.23964  0.81539  0.61083  1.0000
  C   C551      1.0  0.23360  0.83793  0.60924  1.0000
  S   S135      1.0  0.24032  0.94930  0.66753  1.0000
  H   H963      1.0  0.18737  0.76734  0.53064  1.0000
  C   C552      1.0  0.25816  0.87972  0.93548  1.0000
  H   H964      1.0  0.21633  0.84396  0.60938  1.0000
  C   C553      1.0  0.24974  0.85275  0.60693  1.0000
  H   H965      1.0  0.20511  0.89790  0.77016  1.0000
  H   H966      1.0  0.21614  0.95133  0.71713  1.0000
  H   H967      1.0  0.23148  0.77941  0.89747  1.0000
  C   C554      1.0  0.23910  0.94031  0.74869  1.0000
  H   H968      1.0  0.22429  0.75594  0.91444  1.0000
  C   C555      1.0  0.23659  0.94187  0.95671  1.0000
  C   C556      1.0  0.19144  0.76799  0.88007  1.0000
  H   H969      1.0  0.23066  0.81367  0.91924  1.0000
  H   H970      1.0  0.22461  0.00385  0.52991  1.0000
  H   H971      1.0  0.20518  0.84677  0.92020  1.0000
  S   S136      1.0  0.18222  0.69238  0.61942  1.0000
  H   H972      1.0  0.19337  0.75006  0.88358  1.0000
  H   H973      1.0  0.18805  0.94349  0.52859  1.0000
  H   H974      1.0  0.16101  0.00144  0.80819  1.0000
  C   C557      1.0  0.17373  0.97528  0.94124  1.0000
  H   H975      1.0  0.24957  0.86571  0.92772  1.0000
  Fe  Fe74      1.0  0.25659  0.71322  0.89014  1.0000
  C   C558      1.0  0.24868  0.94474  0.50180  1.0000
  C   C559      1.0  0.18045  0.96805  0.91535  1.0000
  H   H976      1.0  0.20216  0.77181  0.86312  1.0000
  Fe  Fe75      1.0  0.24813  0.92790  0.82529  1.0000
  H   H977      1.0  0.12856  0.69397  0.61052  1.0000
  H   H978      1.0  0.22714  0.94302  0.76466  1.0000
  C   C560      1.0  0.16437  0.70696  0.79519  1.0000
  C   C561      1.0  0.20570  0.87976  0.77020  1.0000
  H   H979      1.0  0.25899  0.78792  0.66312  1.0000
  H   H980      1.0  0.19500  0.79816  0.90075  1.0000
  S   S137      1.0  0.26331  0.68590  0.85980  1.0000
  C   C562      1.0  0.26352  0.71346  0.71108  1.0000
  C   C563      1.0  0.22684  0.78670  0.52949  1.0000
  H   H981      1.0  0.23065  0.78453  0.55136  1.0000
  C   C564      1.0  0.13975  0.99253  0.92256  1.0000
  H   H982      1.0  0.20177  0.97847  0.51315  1.0000
  S   S138      1.0  0.24997  0.91406  0.60222  1.0000
  C   C565      1.0  0.18687  0.78353  0.54102  1.0000
  H   H983      1.0  0.23769  0.77902  0.74799  1.0000
  C   C566      1.0  0.15363  0.98802  0.94485  1.0000
  H   H984      1.0  0.18980  0.68416  0.81086  1.0000
  H   H985      1.0  0.17605  0.71818  0.78740  1.0000
  H   H986      1.0  0.23745  0.00762  0.92459  1.0000
  H   H987      1.0  0.15905  0.71278  0.81561  1.0000
  C   C567      1.0  0.24990  0.87447  0.69853  1.0000
  H   H988      1.0  0.22645  0.93990  0.93913  1.0000
  C   C568      1.0  0.21859  0.00570  0.81459  1.0000
  H   H989      1.0  0.21171  0.87390  0.79032  1.0000
  N   N32       1.0  0.22654  0.86828  0.69644  1.0000
  C   C569      1.0  0.21538  0.87659  0.67078  1.0000
  C   C570      1.0  0.22696  0.84367  0.69632  1.0000
  C   C571      1.0  0.21378  0.87847  0.72010  1.0000
  H   H990      1.0  0.25954  0.78181  0.96387  1.0000
  C   C572      1.0  0.20450  0.99902  0.63799  1.0000
  C   C573      1.0  0.21654  0.90112  0.66480  1.0000
  C   C574      1.0  0.22122  0.86986  0.74836  1.0000
  C   C575      1.0  0.20412  0.83445  0.69775  1.0000
  C   C576      1.0  0.20648  0.80946  0.69769  1.0000
  H   H991      1.0  0.23470  0.83664  0.67747  1.0000
  C   C577      1.0  0.20227  0.90808  0.64028  1.0000
  H   H992      1.0  0.19375  0.83960  0.68003  1.0000
  H   H993      1.0  0.19757  0.87395  0.67101  1.0000
  H   H994      1.0  0.22223  0.86711  0.65302  1.0000
  N   N33       1.0  0.24430  0.79862  0.51622  1.0000
  H   H995      1.0  0.24282  0.78255  0.85123  1.0000
  H   H996      1.0  0.19582  0.87684  0.71754  1.0000
  H   H997      1.0  0.21511  0.89642  0.72104  1.0000
  C   C578      1.0  0.22740  0.80815  0.94006  1.0000
  H   H998      1.0  0.19076  0.81386  0.94077  1.0000
  H   H999      1.0  0.18819  0.85325  0.94924  1.0000
  H   H1000     1.0  0.21193  0.76393  0.81075  1.0000
  H   H1001     1.0  0.21065  0.91173  0.68198  1.0000
  H   H1002     1.0  0.23372  0.90431  0.66037  1.0000
  H   H1003     1.0  0.20758  0.78064  0.78121  1.0000
  H   H1004     1.0  0.22141  0.85185  0.74957  1.0000
  H   H1005     1.0  0.19519  0.84006  0.71633  1.0000
  H   H1006     1.0  0.21711  0.94990  0.48168  1.0000
  H   H1007     1.0  0.21575  0.80284  0.67970  1.0000
  H   H1008     1.0  0.21498  0.80330  0.71634  1.0000
  H   H1009     1.0  0.11449  0.70991  0.58401  1.0000
  C   C579      1.0  0.20541  0.82062  0.94969  1.0000
  H   H1010     1.0  0.22156  0.98520  0.93237  1.0000
  C   C580      1.0  0.17021  0.69408  0.67350  1.0000
  H   H1011     1.0  0.18459  0.90667  0.64448  1.0000
  H   H1012     1.0  0.20428  0.92542  0.63562  1.0000
  H   H1013     1.0  0.20727  0.89782  0.62236  1.0000
  H   H1014     1.0  0.25473  0.79865  0.71144  1.0000
  H   H1015     1.0  0.18878  0.87482  0.76697  1.0000
  H   H1016     1.0  0.13520  0.98788  0.87973  1.0000
  C   C581      1.0  0.23292  0.94502  0.72175  1.0000
  C   C582      1.0  0.24185  0.76855  0.78908  1.0000
  H   H1017     1.0  0.19635  0.95905  0.91270  1.0000
  N   N34       1.0  0.22903  0.78342  0.94077  1.0000
  C   C583      1.0  0.16683  0.97288  0.89296  1.0000
  C   C584      1.0  0.17673  0.95653  0.51921  1.0000
  C   C585      1.0  0.25291  0.77486  0.94496  1.0000
  C   C586      1.0  0.21595  0.77465  0.96323  1.0000
  C   C587      1.0  0.20415  0.84482  0.94241  1.0000
  H   H1018     1.0  0.22928  0.87585  0.53012  1.0000
  C   C588      1.0  0.23918  0.80298  0.48679  1.0000
  C   C589      1.0  0.26096  0.93288  0.75498  1.0000
  S   S139      1.0  0.26144  0.90429  0.85716  1.0000
  H   H1019     1.0  0.19612  0.97048  0.56340  1.0000
  C   C590      1.0  0.17556  0.68366  0.79684  1.0000
  C   C591      1.0  0.20272  0.99104  0.60879  1.0000
  Fe  Fe76      1.0  0.24965  0.72183  0.58318  1.0000
  C   C592      1.0  0.14620  0.98467  0.89676  1.0000
  C   C593      1.0  0.24737  0.81988  0.53124  1.0000
  C   C594      1.0  0.26156  0.71918  0.51345  1.0000
  H   H1020     1.0  0.20260  0.67769  0.71927  1.0000
  H   H1021     1.0  0.22370  0.77288  0.47623  1.0000
  H   H1022     1.0  0.19414  0.68692  0.76097  1.0000
  H   H1023     1.0  0.12587  0.99353  0.78730  1.0000
  H   H1024     1.0  0.25003  0.89250  0.70124  1.0000
  H   H1025     1.0  0.14961  0.70746  0.78175  1.0000
  H   H1026     1.0  0.17540  0.95280  0.49730  1.0000
  H   H1027     1.0  0.21565  0.75660  0.96077  1.0000
  H   H1028     1.0  0.19005  0.97914  0.60811  1.0000
  H   H1029     1.0  0.23762  0.83657  0.71295  1.0000
  C   C595      1.0  0.15881  0.68684  0.69580  1.0000
  H   H1030     1.0  0.21874  0.98223  0.60294  1.0000
  H   H1031     1.0  0.25064  0.75212  0.75135  1.0000
  H   H1032     1.0  0.19094  0.78112  0.56274  1.0000
  H   H1033     1.0  0.21186  0.98994  0.81907  1.0000
  H   H1034     1.0  0.22600  0.85832  0.55817  1.0000
  Fe  Fe77      1.0  0.25471  0.71147  0.82864  1.0000
  C   C596      1.0  0.25047  0.76901  0.75978  1.0000
  H   H1035     1.0  0.25896  0.87455  0.65553  1.0000
  H   H1036     1.0  0.12496  0.99090  0.82343  1.0000
  C   C597      1.0  0.26061  0.84121  0.85903  1.0000
  H   H1037     1.0  0.23797  0.88564  0.97031  1.0000
  S   S140      1.0  0.26200  0.74622  0.61229  1.0000
  H   H1038     1.0  0.19836  0.78112  0.96223  1.0000
  H   H1039     1.0  0.25435  0.75678  0.94760  1.0000
  H   H1040     1.0  0.21432  0.72786  0.47624  1.0000
  H   H1041     1.0  0.22718  0.00390  0.79493  1.0000
  Fe  Fe78      1.0  0.26156  0.93894  0.63129  1.0000
  C   C598      1.0  0.14467  0.67855  0.56019  1.0000
  H   H1042     1.0  0.25244  0.81185  0.47794  1.0000
  H   H1043     1.0  0.15607  0.68226  0.57680  1.0000
  H   H1044     1.0  0.12398  0.00189  0.92520  1.0000
  C   C599      1.0  0.22280  0.00105  0.55190  1.0000
  C   C600      1.0  0.26204  0.80785  0.61043  1.0000
  H   H1045     1.0  0.24886  0.77091  0.70456  1.0000
  C   C601      1.0  0.22071  0.00315  0.92946  1.0000
  H   H1046     1.0  0.17050  0.67959  0.51521  1.0000
  C   C602      1.0  0.25934  0.94254  0.95411  1.0000
  H   H1047     1.0  0.25396  0.80925  0.76140  1.0000
  H   H1048     1.0  0.25334  0.86204  0.54608  1.0000
  H   H1049     1.0  0.18891  0.00847  0.64435  1.0000
  H   H1050     1.0  0.20955  0.00738  0.91207  1.0000
  H   H1051     1.0  0.24230  0.00751  0.58817  1.0000
  H   H1052     1.0  0.23076  0.00927  0.83051  1.0000
  H   H1053     1.0  0.21837  0.00942  0.64036  1.0000
  Fe  Fe79      1.0  0.42469  0.09468  0.23493  1.0000
  S   S141      1.0  0.45831  0.10715  0.23422  1.0000
  Fe  Fe80      1.0  0.37556  0.11015  0.23217  1.0000
  S   S142      1.0  0.36563  0.07603  0.23591  1.0000
  S   S143      1.0  0.34853  0.13792  0.22841  1.0000
  Fe  Fe81      1.0  0.39242  0.07165  0.26755  1.0000
  Fe  Fe82      1.0  0.39045  0.02616  0.99280  1.0000
  S   S144      1.0  0.40008  0.10665  0.26660  1.0000
  S   S145      1.0  0.40103  0.10168  0.20064  1.0000
  Fe  Fe83      1.0  0.28034  0.25363  0.11148  1.0000
  H   H1054     1.0  0.30895  0.10610  0.31110  1.0000
  S   S146      1.0  0.29152  0.28759  0.11480  1.0000
  Fe  Fe84      1.0  0.29599  0.20495  0.11143  1.0000
  C   C603      1.0  0.30911  0.28713  0.04515  1.0000
  S   S147      1.0  0.32499  0.17926  0.11368  1.0000
  S   S148      1.0  0.41958  0.07936  0.98599  1.0000
  C   C604      1.0  0.29124  0.28896  0.02326  1.0000
  C   C605      1.0  0.51193  0.04776  0.04685  1.0000
  C   C606      1.0  0.48699  0.05025  0.05102  1.0000
  S   S149      1.0  0.29198  0.22997  0.07843  1.0000
  S   S150      1.0  0.28802  0.22950  0.14449  1.0000
  H   H1055     1.0  0.29856  0.14923  0.00692  1.0000
  H   H1056     1.0  0.34010  0.13527  0.28339  1.0000
  H   H1057     1.0  0.38396  0.17062  0.02379  1.0000
  H   H1058     1.0  0.29398  0.26622  0.17809  1.0000
  C   C607      1.0  0.39204  0.04975  0.36020  1.0000
  C   C608      1.0  0.28592  0.16690  0.34205  1.0000
  H   H1059     1.0  0.30131  0.01001  0.36984  1.0000
  H   H1060     1.0  0.32305  0.27698  0.22680  1.0000
  H   H1061     1.0  0.30654  0.02603  0.46374  1.0000
  C   C609      1.0  0.47886  0.06657  0.22019  1.0000
  H   H1062     1.0  0.30973  0.27101  0.05517  1.0000
  H   H1063     1.0  0.27030  0.33417  0.17457  1.0000
  H   H1064     1.0  0.29288  0.32306  0.34467  1.0000
  H   H1065     1.0  0.34614  0.09430  0.32776  1.0000
  C   C610      1.0  0.32489  0.02528  0.41202  1.0000
  H   H1066     1.0  0.47873  0.06188  0.03629  1.0000
  C   C611      1.0  0.27842  0.33131  0.11240  1.0000
  H   H1067     1.0  0.34368  0.06263  0.36700  1.0000
  H   H1068     1.0  0.35689  0.03131  0.39578  1.0000
  H   H1069     1.0  0.49521  0.03577  0.20639  1.0000
  H   H1070     1.0  0.30586  0.30034  0.06052  1.0000
  C   C612      1.0  0.29962  0.15957  0.02533  1.0000
  S   S151      1.0  0.38685  0.04563  0.17001  1.0000
  H   H1071     1.0  0.42864  0.13933  0.19229  1.0000
  C   C613      1.0  0.48428  0.10287  0.12441  1.0000
  H   H1072     1.0  0.26845  0.26665  0.03687  1.0000
  H   H1073     1.0  0.26581  0.27056  0.25017  1.0000
  C   C614      1.0  0.49556  0.09735  0.97445  1.0000
  H   H1074     1.0  0.32121  0.23680  0.22719  1.0000
  H   H1075     1.0  0.28672  0.20721  0.46622  1.0000
  H   H1076     1.0  0.29143  0.21474  0.23720  1.0000
  C   C615      1.0  0.29501  0.27065  0.19989  1.0000
  H   H1077     1.0  0.29872  0.30403  0.16917  1.0000
  Fe  Fe85      1.0  0.39240  0.06745  0.20593  1.0000
  H   H1078     1.0  0.38697  0.11263  0.37040  1.0000
  C   C616      1.0  0.45181  0.03060  0.39826  1.0000
  S   S152      1.0  0.38973  0.05141  0.30508  1.0000
  Fe  Fe86      1.0  0.40044  0.06814  0.02067  1.0000
  C   C617      1.0  0.34195  0.14891  0.19624  1.0000
  C   C618      1.0  0.32406  0.16492  0.19350  1.0000
  C   C619      1.0  0.31859  0.17414  0.16822  1.0000
  C   C620      1.0  0.33113  0.16760  0.14554  1.0000
  C   C621      1.0  0.34895  0.15152  0.14823  1.0000
  C   C622      1.0  0.35426  0.14213  0.17345  1.0000
  H   H1079     1.0  0.31439  0.17024  0.21094  1.0000
  H   H1080     1.0  0.30471  0.18633  0.16634  1.0000
  H   H1081     1.0  0.35877  0.14639  0.13083  1.0000
  H   H1082     1.0  0.36799  0.12982  0.17521  1.0000
  C   C623      1.0  0.38520  0.08100  0.13609  1.0000
  C   C624      1.0  0.38772  0.09082  0.11105  1.0000
  H   H1083     1.0  0.38011  0.09103  0.15331  1.0000
  H   H1084     1.0  0.38509  0.10842  0.10940  1.0000
  C   C625      1.0  0.46692  0.10232  0.40019  1.0000
  H   H1085     1.0  0.39009  0.09660  0.32423  1.0000
  H   H1086     1.0  0.32257  0.21365  0.28011  1.0000
  N   N35       1.0  0.45936  0.10646  0.12625  1.0000
  C   C626      1.0  0.45283  0.12359  0.14763  1.0000
  H   H1087     1.0  0.29874  0.17655  0.35110  1.0000
  C   C627      1.0  0.45028  0.11502  0.09951  1.0000
  C   C628      1.0  0.44969  0.08522  0.13157  1.0000
  C   C629      1.0  0.45827  0.07279  0.15702  1.0000
  C   C630      1.0  0.42799  0.13196  0.14902  1.0000
  C   C631      1.0  0.45746  0.10129  0.07397  1.0000
  H   H1088     1.0  0.28326  0.18191  0.27073  1.0000
  H   H1089     1.0  0.46272  0.06074  0.22007  1.0000
  C   C632      1.0  0.44568  0.05290  0.16179  1.0000
  C   C633      1.0  0.26464  0.16173  0.24575  1.0000
  C   C634      1.0  0.45057  0.11362  0.04820  1.0000
  H   H1090     1.0  0.37595  0.14188  0.07237  1.0000
  N   N36       1.0  0.31000  0.15039  0.30162  1.0000
  H   H1091     1.0  0.33266  0.14700  0.99215  1.0000
  H   H1092     1.0  0.48388  0.07676  0.32123  1.0000
  H   H1093     1.0  0.45482  0.13201  0.09659  1.0000
  H   H1094     1.0  0.43191  0.11602  0.09927  1.0000
  H   H1095     1.0  0.43144  0.08773  0.13245  1.0000
  H   H1096     1.0  0.45319  0.07350  0.11458  1.0000
  C   C635      1.0  0.33745  0.12238  0.07259  1.0000
  H   H1097     1.0  0.47590  0.06670  0.15462  1.0000
  H   H1098     1.0  0.42265  0.14125  0.13068  1.0000
  H   H1099     1.0  0.41756  0.11828  0.15101  1.0000
  H   H1100     1.0  0.44944  0.08579  0.07340  1.0000
  H   H1101     1.0  0.27523  0.21040  0.19171  1.0000
  S   S153      1.0  0.41775  0.03422  0.02119  1.0000
  C   C636      1.0  0.27979  0.28025  0.25484  1.0000
  H   H1102     1.0  0.34269  0.16571  0.06442  1.0000
  H   H1103     1.0  0.49088  0.09703  0.16828  1.0000
  C   C637      1.0  0.26834  0.28470  0.03446  1.0000
  H   H1104     1.0  0.29570  0.33328  0.10957  1.0000
  H   H1105     1.0  0.44420  0.04303  0.14303  1.0000
  H   H1106     1.0  0.45430  0.04232  0.17732  1.0000
  H   H1107     1.0  0.30755  0.13767  0.34227  1.0000
  C   C638      1.0  0.48949  0.05877  0.97519  1.0000
  H   H1108     1.0  0.29907  0.33302  0.45816  1.0000
  H   H1109     1.0  0.46188  0.02656  0.41666  1.0000
  C   C639      1.0  0.27624  0.16974  0.03110  1.0000
  H   H1110     1.0  0.39992  0.04500  0.07289  1.0000
  H   H1111     1.0  0.48244  0.06051  0.40794  1.0000
  H   H1112     1.0  0.47183  0.09583  0.42048  1.0000
  C   C640      1.0  0.39602  0.05514  0.09042  1.0000
  Fe  Fe87      1.0  0.39599  0.07346  0.45878  1.0000
  S   S154      1.0  0.38422  0.09335  0.42250  1.0000
  H   H1113     1.0  0.27571  0.16268  0.22822  1.0000
  H   H1114     1.0  0.47546  0.11750  0.39811  1.0000
  H   H1115     1.0  0.27094  0.32819  0.45869  1.0000
  H   H1116     1.0  0.32867  0.03502  0.43031  1.0000
  H   H1117     1.0  0.39679  0.02784  0.11727  1.0000
  C   C641      1.0  0.32896  0.24445  0.20998  1.0000
  C   C642      1.0  0.29615  0.14781  0.27657  1.0000
  S   S155      1.0  0.41359  0.03997  0.45547  1.0000
  H   H1118     1.0  0.39122  0.04823  0.40364  1.0000
  H   H1119     1.0  0.44100  0.11506  0.44471  1.0000
  C   C643      1.0  0.50242  0.09559  0.22773  1.0000
  H   H1120     1.0  0.41870  0.12982  0.42656  1.0000
  C   C644      1.0  0.34730  0.15398  0.04770  1.0000
  C   C645      1.0  0.33138  0.08852  0.09973  1.0000
  C   C646      1.0  0.39397  0.04538  0.11559  1.0000
  C   C647      1.0  0.32928  0.13303  0.30076  1.0000
  H   H1121     1.0  0.28373  0.13563  0.32208  1.0000
  H   H1122     1.0  0.44289  0.06351  0.41113  1.0000
  N   N37       1.0  0.33244  0.13564  0.04739  1.0000
  C   C648      1.0  0.27621  0.32940  0.34960  1.0000
  H   H1123     1.0  0.28152  0.14901  0.37912  1.0000
  H   H1124     1.0  0.29744  0.13224  0.05036  1.0000
  H   H1125     1.0  0.26711  0.29166  0.97994  1.0000
  H   H1126     1.0  0.33802  0.07575  0.30189  1.0000
  H   H1127     1.0  0.48034  0.03417  0.04785  1.0000
  H   H1128     1.0  0.37198  0.01468  0.27047  1.0000
  S   S156      1.0  0.41838  0.05945  0.23769  1.0000
  C   C649      1.0  0.38859  0.09505  0.36762  1.0000
  C   C650      1.0  0.29541  0.30941  0.19044  1.0000
  H   H1129     1.0  0.29985  0.03993  0.16398  1.0000
  H   H1130     1.0  0.31845  0.10562  0.27687  1.0000
  H   H1131     1.0  0.28708  0.25770  0.21042  1.0000
  H   H1132     1.0  0.29321  0.02579  0.97677  1.0000
  C   C651      1.0  0.39123  0.06332  0.33760  1.0000
  N   N38       1.0  0.47438  0.08578  0.37841  1.0000
  C   C652      1.0  0.46093  0.09006  0.35288  1.0000
  C   C653      1.0  0.26948  0.21034  0.47135  1.0000
  C   C654      1.0  0.47354  0.06273  0.38829  1.0000
  C   C655      1.0  0.45038  0.05516  0.39301  1.0000
  C   C656      1.0  0.46706  0.07464  0.32849  1.0000
  C   C657      1.0  0.38861  0.08150  0.39016  1.0000
  C   C658      1.0  0.27713  0.22335  0.97556  1.0000
  C   C659      1.0  0.45124  0.07959  0.30473  1.0000
  H   H1133     1.0  0.40552  0.15276  0.17415  1.0000
  H   H1134     1.0  0.46226  0.10715  0.34620  1.0000
  H   H1135     1.0  0.44309  0.08916  0.35642  1.0000
  S   S157      1.0  0.27202  0.22612  0.28841  1.0000
  C   C660      1.0  0.28484  0.32832  0.41881  1.0000
  C   C661      1.0  0.27376  0.21728  0.23432  1.0000
  H   H1136     1.0  0.48259  0.05084  0.37426  1.0000
  H   H1137     1.0  0.43928  0.05829  0.37538  1.0000
  H   H1138     1.0  0.34921  0.02384  0.17138  1.0000
  H   H1139     1.0  0.46622  0.05727  0.33386  1.0000
  H   H1140     1.0  0.43738  0.12080  0.38325  1.0000
  C   C662      1.0  0.29689  0.14656  0.32676  1.0000
  H   H1141     1.0  0.45926  0.12864  0.04668  1.0000
  H   H1142     1.0  0.32207  0.04533  0.14172  1.0000
  H   H1143     1.0  0.45631  0.06876  0.28731  1.0000
  H   H1144     1.0  0.49059  0.11490  0.11049  1.0000
  H   H1145     1.0  0.43249  0.16229  0.17099  1.0000
  C   C663      1.0  0.27699  0.28916  0.28368  1.0000
  H   H1146     1.0  0.39300  0.03219  0.35742  1.0000
  C   C664      1.0  0.31912  0.17245  0.30299  1.0000
  H   H1147     1.0  0.45781  0.11775  0.16809  1.0000
  H   H1148     1.0  0.34819  0.01899  0.23014  1.0000
  H   H1149     1.0  0.48906  0.11432  0.97614  1.0000
  H   H1150     1.0  0.38764  0.02123  0.24163  1.0000
  C   C665      1.0  0.33280  0.17864  0.27846  1.0000
  C   C666      1.0  0.27698  0.16570  0.27208  1.0000
  H   H1151     1.0  0.43414  0.07666  0.31021  1.0000
  C   C667      1.0  0.28147  0.29908  0.23447  1.0000
  C   C668      1.0  0.33936  0.03324  0.38940  1.0000
  C   C669      1.0  0.33802  0.20247  0.28041  1.0000
  C   C670      1.0  0.29583  0.30491  0.41805  1.0000
  H   H1152     1.0  0.32976  0.17348  0.32130  1.0000
  S   S158      1.0  0.37213  0.05962  0.99448  1.0000
  H   H1153     1.0  0.30588  0.11242  0.08663  1.0000
  H   H1154     1.0  0.29616  0.30738  0.24103  1.0000
  H   H1155     1.0  0.29646  0.29877  0.39685  1.0000
  C   C671      1.0  0.39033  0.08599  0.34144  1.0000
  H   H1156     1.0  0.34502  0.16401  0.02931  1.0000
  H   H1157     1.0  0.33747  0.02408  0.37023  1.0000
  H   H1158     1.0  0.27590  0.27538  0.29775  1.0000
  H   H1159     1.0  0.34878  0.16840  0.27755  1.0000
  H   H1160     1.0  0.32374  0.17677  0.25922  1.0000
  H   H1161     1.0  0.33668  0.06760  0.40184  1.0000
  C   C672      1.0  0.33747  0.01168  0.17608  1.0000
  C   C673      1.0  0.42346  0.14753  0.17309  1.0000
  C   C674      1.0  0.38624  0.16558  0.04514  1.0000
  H   H1162     1.0  0.32544  0.28880  0.03608  1.0000
  C   C675      1.0  0.37228  0.14687  0.05120  1.0000
  H   H1163     1.0  0.33739  0.13335  0.09072  1.0000
  H   H1164     1.0  0.50493  0.07609  0.35728  1.0000
  H   H1165     1.0  0.37760  0.13286  0.03776  1.0000
  H   H1166     1.0  0.34814  0.20628  0.26288  1.0000
  H   H1167     1.0  0.34744  0.20539  0.29922  1.0000
  H   H1168     1.0  0.43146  0.09687  0.40099  1.0000
  H   H1169     1.0  0.48306  0.05602  0.07188  1.0000
  C   C676      1.0  0.30971  0.03371  0.14631  1.0000
  H   H1170     1.0  0.32939  0.27577  0.19148  1.0000
  H   H1171     1.0  0.32577  0.23519  0.19115  1.0000
  H   H1172     1.0  0.28047  0.22142  0.01894  1.0000
  C   C677      1.0  0.44203  0.11050  0.40106  1.0000
  H   H1173     1.0  0.26714  0.29133  0.05537  1.0000
  H   H1174     1.0  0.30632  0.15527  0.06809  1.0000
  H   H1175     1.0  0.26714  0.31138  0.23788  1.0000
  C   C678      1.0  0.49812  0.08878  0.37194  1.0000
  H   H1176     1.0  0.31579  0.06060  0.37767  1.0000
  H   H1177     1.0  0.29850  0.03280  0.12859  1.0000
  C   C679      1.0  0.33340  0.05750  0.38372  1.0000
  H   H1178     1.0  0.35710  0.09533  0.29398  1.0000
  H   H1179     1.0  0.48928  0.08645  0.11540  1.0000
  H   H1180     1.0  0.34704  0.24334  0.21364  1.0000
  H   H1181     1.0  0.30726  0.03034  0.40726  1.0000
  H   H1182     1.0  0.34923  0.10732  0.02695  1.0000
  H   H1183     1.0  0.38160  0.17983  0.05865  1.0000
  C   C680      1.0  0.49729  0.05244  0.21245  1.0000
  H   H1184     1.0  0.27646  0.18221  0.04753  1.0000
  H   H1185     1.0  0.31819  0.09510  0.06004  1.0000
  C   C681      1.0  0.30875  0.14534  0.04915  1.0000
  H   H1186     1.0  0.31192  0.31039  0.19998  1.0000
  H   H1187     1.0  0.35434  0.11383  0.07164  1.0000
  H   H1188     1.0  0.32771  0.01894  0.19335  1.0000
  H   H1189     1.0  0.40394  0.16008  0.04857  1.0000
  H   H1190     1.0  0.42908  0.05849  0.16939  1.0000
  H   H1191     1.0  0.34001  0.13453  0.31896  1.0000
  H   H1192     1.0  0.45152  0.09682  0.29827  1.0000
  C   C682      1.0  0.32304  0.10911  0.29816  1.0000
  H   H1193     1.0  0.31298  0.30431  0.42604  1.0000
  H   H1194     1.0  0.36004  0.13468  0.99709  1.0000
  S   S159      1.0  0.39575  0.09056  0.05695  1.0000
  H   H1195     1.0  0.46191  0.13827  0.14445  1.0000
  C   C683      1.0  0.34230  0.09267  0.30593  1.0000
  C   C684      1.0  0.39311  0.07788  0.08815  1.0000
  C   C685      1.0  0.31991  0.26843  0.20749  1.0000
  H   H1196     1.0  0.43500  0.02556  0.40135  1.0000
  N   N39       1.0  0.28293  0.29292  0.20484  1.0000
  H   H1197     1.0  0.31891  0.07735  0.10532  1.0000
  C   C686      1.0  0.26911  0.22245  0.00202  1.0000
  C   C687      1.0  0.43666  0.12455  0.42622  1.0000
  H   H1198     1.0  0.32087  0.11215  0.01897  1.0000
  H   H1199     1.0  0.33633  0.09737  0.11820  1.0000
  H   H1200     1.0  0.44586  0.13933  0.42626  1.0000
  H   H1201     1.0  0.49788  0.12281  0.15662  1.0000
  C   C688      1.0  0.32169  0.10460  0.07852  1.0000
  C   C689      1.0  0.38869  0.05827  0.13854  1.0000
  H   H1202     1.0  0.45919  0.02120  0.38076  1.0000
  H   H1203     1.0  0.30567  0.18585  0.30534  1.0000
  C   C690      1.0  0.48130  0.08834  0.22724  1.0000
  H   H1204     1.0  0.26911  0.17782  0.01269  1.0000
  H   H1205     1.0  0.45625  0.08334  0.17525  1.0000
  H   H1206     1.0  0.26535  0.15710  0.03692  1.0000
  C   C691      1.0  0.33593  0.12070  0.02297  1.0000
  H   H1207     1.0  0.27541  0.17772  0.32851  1.0000
  H   H1208     1.0  0.34990  0.10049  0.97446  1.0000
  C   C692      1.0  0.34246  0.13132  0.99624  1.0000
  H   H1209     1.0  0.34593  0.07843  0.09153  1.0000
  C   C693      1.0  0.39105  0.05881  0.38641  1.0000
  H   H1210     1.0  0.27105  0.32927  0.04412  1.0000
  H   H1211     1.0  0.49915  0.10483  0.36198  1.0000
  H   H1212     1.0  0.29129  0.29807  0.28990  1.0000
  H   H1213     1.0  0.30664  0.14667  0.25825  1.0000
  H   H1214     1.0  0.29089  0.30543  0.01427  1.0000
  H   H1215     1.0  0.28859  0.13202  0.27681  1.0000
  H   H1216     1.0  0.43248  0.11819  0.04783  1.0000
  H   H1217     1.0  0.28635  0.29391  0.42993  1.0000
  Fe  Fe88      1.0  0.43513  0.04493  0.98443  1.0000
  H   H1218     1.0  0.29498  0.26877  0.25477  1.0000
  H   H1219     1.0  0.30989  0.17312  0.02133  1.0000
  H   H1220     1.0  0.45484  0.10299  0.03035  1.0000
  C   C694      1.0  0.49775  0.10523  0.15102  1.0000
  H   H1221     1.0  0.47556  0.09734  0.07318  1.0000
  C   C695      1.0  0.27159  0.31033  0.11539  1.0000
  H   H1222     1.0  0.29612  0.27662  0.00726  1.0000
  H   H1223     1.0  0.29478  0.33827  0.40607  1.0000
  H   H1224     1.0  0.50922  0.09971  0.41225  1.0000
  C   C696      1.0  0.48138  0.08078  0.97751  1.0000
  S   S160      1.0  0.47200  0.03746  0.97779  1.0000
  C   C697      1.0  0.28298  0.33755  0.44809  1.0000
  H   H1225     1.0  0.50452  0.11232  0.23349  1.0000
  H   H1226     1.0  0.26910  0.01682  0.06494  1.0000
  C   C698      1.0  0.26460  0.21492  0.20850  1.0000
  H   H1227     1.0  0.46418  0.08512  0.98151  1.0000
  H   H1228     1.0  0.26819  0.32793  0.40959  1.0000
  C   C699      1.0  0.32123  0.01100  0.15187  1.0000
  H   H1229     1.0  0.26517  0.17480  0.37681  1.0000
  H   H1230     1.0  0.36707  0.01577  0.04793  1.0000
  C   C700      1.0  0.27165  0.16009  0.36511  1.0000
  H   H1231     1.0  0.27763  0.33866  0.20945  1.0000
  C   C701      1.0  0.28413  0.33315  0.18944  1.0000
  H   H1232     1.0  0.26493  0.16585  0.28868  1.0000
  H   H1233     1.0  0.26394  0.02006  0.28856  1.0000
  C   C702      1.0  0.49248  0.06756  0.47190  1.0000
  Fe  Fe89      1.0  0.43391  0.10630  0.73894  1.0000
  S   S161      1.0  0.46754  0.11932  0.74111  1.0000
  Fe  Fe90      1.0  0.38451  0.11906  0.73216  1.0000
  S   S162      1.0  0.37622  0.08428  0.73387  1.0000
  S   S163      1.0  0.35640  0.14570  0.72827  1.0000
  Fe  Fe91      1.0  0.40082  0.08068  0.76804  1.0000
  H   H1234     1.0  0.47809  0.12425  0.80922  1.0000
  S   S164      1.0  0.40691  0.11622  0.76877  1.0000
  S   S165      1.0  0.41205  0.11252  0.70261  1.0000
  H   H1235     1.0  0.28449  0.29249  0.71288  1.0000
  C   C703      1.0  0.26693  0.22010  0.70613  1.0000
  S   S166      1.0  0.29023  0.28793  0.59013  1.0000
  Fe  Fe92      1.0  0.29677  0.20595  0.60863  1.0000
  H   H1236     1.0  0.43002  0.01039  0.90452  1.0000
  S   S167      1.0  0.32601  0.18042  0.61227  1.0000
  H   H1237     1.0  0.28030  0.28351  0.66411  1.0000
  C   C704      1.0  0.26462  0.31527  0.85402  1.0000
  H   H1238     1.0  0.50670  0.06586  0.91476  1.0000
  H   H1239     1.0  0.32757  0.05199  0.68273  1.0000
  S   S168      1.0  0.29111  0.22569  0.57071  1.0000
  S   S169      1.0  0.29041  0.23500  0.63643  1.0000
  H   H1240     1.0  0.32941  0.01824  0.91884  1.0000
  H   H1241     1.0  0.32878  0.08755  0.65943  1.0000
  H   H1242     1.0  0.30445  0.27078  0.53549  1.0000
  C   C705      1.0  0.45456  0.06489  0.85638  1.0000
  H   H1243     1.0  0.49455  0.11908  0.83942  1.0000
  H   H1244     1.0  0.43116  0.08313  0.91439  1.0000
  S   S170      1.0  0.42183  0.04168  0.52070  1.0000
  C   C706      1.0  0.28146  0.32950  0.85423  1.0000
  C   C707      1.0  0.51117  0.10996  0.72826  1.0000
  H   H1245     1.0  0.31754  0.07940  0.53503  1.0000
  H   H1246     1.0  0.43817  0.04921  0.90001  1.0000
  S   S171      1.0  0.40972  0.03321  0.95566  1.0000
  H   H1247     1.0  0.29812  0.32334  0.85966  1.0000
  H   H1248     1.0  0.47234  0.08072  0.91947  1.0000
  H   H1249     1.0  0.27143  0.14378  0.74274  1.0000
  H   H1250     1.0  0.28292  0.33854  0.50338  1.0000
  H   H1251     1.0  0.34701  0.07443  0.63434  1.0000
  H   H1252     1.0  0.27642  0.16859  0.78132  1.0000
  H   H1253     1.0  0.33234  0.12839  0.61124  1.0000
  C   C708      1.0  0.34159  0.07381  0.65561  1.0000
  H   H1254     1.0  0.29703  0.28772  0.80947  1.0000
  C   C709      1.0  0.34795  0.01140  0.69732  1.0000
  H   H1255     1.0  0.26842  0.29841  0.85956  1.0000
  C   C710      1.0  0.39086  0.05805  0.88445  1.0000
  H   H1256     1.0  0.30793  0.24801  0.51222  1.0000
  S   S172      1.0  0.37518  0.06523  0.49372  1.0000
  C   C711      1.0  0.27116  0.31017  0.59924  1.0000
  H   H1257     1.0  0.32901  0.04620  0.56068  1.0000
  Fe  Fe93      1.0  0.43853  0.05294  0.48364  1.0000
  H   H1258     1.0  0.27185  0.25840  0.49143  1.0000
  H   H1259     1.0  0.29341  0.21360  0.73500  1.0000
  C   C712      1.0  0.46495  0.08345  0.89903  1.0000
  H   H1260     1.0  0.35055  0.03574  0.85235  1.0000
  H   H1261     1.0  0.49081  0.14628  0.82535  1.0000
  C   C713      1.0  0.39398  0.05153  0.85736  1.0000
  C   C714      1.0  0.46029  0.02135  0.88861  1.0000
  C   C715      1.0  0.45636  0.04530  0.89915  1.0000
  S   S173      1.0  0.39601  0.09702  0.55634  1.0000
  C   C716      1.0  0.34802  0.15516  0.69593  1.0000
  C   C717      1.0  0.33033  0.17145  0.69347  1.0000
  C   C718      1.0  0.32334  0.17926  0.66793  1.0000
  C   C719      1.0  0.33429  0.17112  0.64472  1.0000
  C   C720      1.0  0.35208  0.15497  0.64724  1.0000
  C   C721      1.0  0.35874  0.14681  0.67269  1.0000
  H   H1262     1.0  0.32208  0.17817  0.71135  1.0000
  H   H1263     1.0  0.30963  0.19172  0.66624  1.0000
  H   H1264     1.0  0.36080  0.14878  0.62943  1.0000
  H   H1265     1.0  0.37234  0.13428  0.67433  1.0000
  C   C722      1.0  0.39350  0.08799  0.63679  1.0000
  C   C723      1.0  0.39156  0.09731  0.61108  1.0000
  H   H1266     1.0  0.38943  0.09795  0.65447  1.0000
  H   H1267     1.0  0.38625  0.11454  0.60909  1.0000
  H   H1268     1.0  0.29123  0.27339  0.75028  1.0000
  H   H1269     1.0  0.38873  0.10143  0.82790  1.0000
  H   H1270     1.0  0.31045  0.08312  0.56999  1.0000
  N   N40       1.0  0.46255  0.11523  0.62549  1.0000
  C   C724      1.0  0.48688  0.11824  0.62568  1.0000
  C   C725      1.0  0.45366  0.11491  0.59681  1.0000
  C   C726      1.0  0.45100  0.13478  0.64016  1.0000
  C   C727      1.0  0.45780  0.09489  0.64023  1.0000
  C   C728      1.0  0.46869  0.07302  0.62863  1.0000
  H   H1271     1.0  0.38190  0.02164  0.69956  1.0000
  C   C729      1.0  0.42545  0.13790  0.63764  1.0000
  C   C730      1.0  0.46925  0.10458  0.57451  1.0000
  C   C731      1.0  0.45663  0.10109  0.54826  1.0000
  C   C732      1.0  0.46584  0.05403  0.64742  1.0000
  H   H1272     1.0  0.48950  0.12830  0.66891  1.0000
  C   C733      1.0  0.41621  0.15851  0.65287  1.0000
  H   H1273     1.0  0.48956  0.13399  0.61583  1.0000
  C   C734      1.0  0.29332  0.01605  0.95772  1.0000
  H   H1274     1.0  0.43807  0.10672  0.59602  1.0000
  H   H1275     1.0  0.44911  0.13191  0.58974  1.0000
  H   H1276     1.0  0.45721  0.15019  0.63302  1.0000
  H   H1277     1.0  0.45462  0.13402  0.66220  1.0000
  H   H1278     1.0  0.46249  0.09615  0.66195  1.0000
  H   H1279     1.0  0.43978  0.09327  0.64034  1.0000
  H   H1280     1.0  0.48663  0.07353  0.62566  1.0000
  H   H1281     1.0  0.46066  0.06918  0.60915  1.0000
  H   H1282     1.0  0.30673  0.27553  0.49968  1.0000
  H   H1283     1.0  0.45934  0.09938  0.84793  1.0000
  H   H1284     1.0  0.41804  0.12384  0.64625  1.0000
  H   H1285     1.0  0.41979  0.13966  0.61638  1.0000
  H   H1286     1.0  0.48208  0.11576  0.57018  1.0000
  H   H1287     1.0  0.47777  0.08862  0.58029  1.0000
  H   H1288     1.0  0.46839  0.09567  0.53207  1.0000
  H   H1289     1.0  0.44516  0.08825  0.55083  1.0000
  H   H1290     1.0  0.44705  0.11648  0.54183  1.0000
  H   H1291     1.0  0.44815  0.05160  0.64945  1.0000
  H   H1292     1.0  0.47445  0.03873  0.63901  1.0000
  H   H1293     1.0  0.47285  0.05711  0.66769  1.0000
  C   C735      1.0  0.44123  0.09432  0.90367  1.0000
  Fe  Fe94      1.0  0.28119  0.25389  0.59883  1.0000
  C   C736      1.0  0.44774  0.08446  0.81188  1.0000
  H   H1294     1.0  0.42322  0.17319  0.64501  1.0000
  H   H1295     1.0  0.39806  0.16087  0.65013  1.0000
  H   H1296     1.0  0.41993  0.15708  0.67480  1.0000
  N   N41       1.0  0.31949  0.15160  0.80501  1.0000
  C   C737      1.0  0.30574  0.16771  0.82270  1.0000
  C   C738      1.0  0.30693  0.14644  0.77946  1.0000
  C   C739      1.0  0.32388  0.13060  0.82054  1.0000
  C   C740      1.0  0.34143  0.15963  0.79843  1.0000
  C   C741      1.0  0.34064  0.18199  0.78425  1.0000
  C   C742      1.0  0.31680  0.17493  0.84931  1.0000
  C   C743      1.0  0.33657  0.11113  0.80514  1.0000
  C   C744      1.0  0.29060  0.16482  0.76756  1.0000
  C   C745      1.0  0.27593  0.21815  0.73230  1.0000
  C   C746      1.0  0.36374  0.18953  0.78192  1.0000
  C   C747      1.0  0.30142  0.19157  0.86494  1.0000
  C   C748      1.0  0.33583  0.08978  0.82047  1.0000
  H   H1297     1.0  0.29000  0.16093  0.82794  1.0000
  H   H1298     1.0  0.30066  0.18302  0.81180  1.0000
  H   H1299     1.0  0.31864  0.14070  0.76318  1.0000
  H   H1300     1.0  0.29667  0.13263  0.78280  1.0000
  H   H1301     1.0  0.30799  0.12515  0.82768  1.0000
  H   H1302     1.0  0.33391  0.13310  0.83898  1.0000
  H   H1303     1.0  0.35188  0.16028  0.81691  1.0000
  H   H1304     1.0  0.35098  0.14772  0.78495  1.0000
  H   H1305     1.0  0.33036  0.19496  0.79529  1.0000
  H   H1306     1.0  0.33410  0.18054  0.76344  1.0000
  H   H1307     1.0  0.32097  0.16092  0.86286  1.0000
  H   H1308     1.0  0.33202  0.18284  0.84509  1.0000
  H   H1309     1.0  0.35415  0.11411  0.80289  1.0000
  H   H1310     1.0  0.32967  0.10852  0.78470  1.0000
  H   H1311     1.0  0.35311  0.02714  0.75017  1.0000
  H   H1312     1.0  0.29858  0.18000  0.76456  1.0000
  H   H1313     1.0  0.27459  0.01928  0.56585  1.0000
  H   H1314     1.0  0.31734  0.27276  0.78836  1.0000
  H   H1315     1.0  0.30713  0.12378  0.64831  1.0000
  H   H1316     1.0  0.37469  0.17726  0.77048  1.0000
  H   H1317     1.0  0.36278  0.20523  0.77093  1.0000
  H   H1318     1.0  0.37099  0.19208  0.80224  1.0000
  H   H1319     1.0  0.28648  0.18405  0.87138  1.0000
  H   H1320     1.0  0.29124  0.33399  0.58360  1.0000
  H   H1321     1.0  0.29641  0.20612  0.85244  1.0000
  H   H1322     1.0  0.49250  0.04114  0.86360  1.0000
  C   C749      1.0  0.28759  0.28535  0.76702  1.0000
  H   H1323     1.0  0.31868  0.08508  0.82115  1.0000
  H   H1324     1.0  0.36646  0.17512  0.54821  1.0000
  S   S174      1.0  0.27329  0.22559  0.92045  1.0000
  H   H1325     1.0  0.30105  0.11313  0.52700  1.0000
  S   S175      1.0  0.40491  0.05408  0.67150  1.0000
  Fe  Fe95      1.0  0.40300  0.07498  0.51996  1.0000
  N   N42       1.0  0.32509  0.12373  0.55541  1.0000
  H   H1326     1.0  0.45411  0.09627  0.79785  1.0000
  C   C750      1.0  0.33802  0.10156  0.55675  1.0000
  C   C751      1.0  0.38569  0.09580  0.87059  1.0000
  C   C752      1.0  0.28126  0.15795  0.74036  1.0000
  H   H1327     1.0  0.30995  0.19715  0.88333  1.0000
  C   C753      1.0  0.30009  0.12768  0.62800  1.0000
  C   C754      1.0  0.38930  0.08931  0.84355  1.0000
  C   C755      1.0  0.30845  0.12689  0.57783  1.0000
  H   H1328     1.0  0.46784  0.09361  0.48233  1.0000
  H   H1329     1.0  0.45088  0.12723  0.91097  1.0000
  H   H1330     1.0  0.48562  0.05840  0.53923  1.0000
  C   C756      1.0  0.39679  0.08450  0.58804  1.0000
  S   S176      1.0  0.38119  0.08895  0.92469  1.0000
  H   H1331     1.0  0.50016  0.10064  0.66144  1.0000
  C   C757      1.0  0.38643  0.08021  0.89112  1.0000
  H   H1332     1.0  0.40677  0.05205  0.57313  1.0000
  H   H1333     1.0  0.39698  0.03432  0.85226  1.0000
  C   C758      1.0  0.48752  0.08149  0.71789  1.0000
  C   C759      1.0  0.31716  0.12058  0.60644  1.0000
  C   C760      1.0  0.46154  0.08312  0.83781  1.0000
  C   C761      1.0  0.44146  0.11505  0.92100  1.0000
  H   H1334     1.0  0.38496  0.15166  0.55809  1.0000
  C   C762      1.0  0.49832  0.04425  0.54035  1.0000
  Fe  Fe96      1.0  0.39320  0.06725  0.95946  1.0000
  C   C763      1.0  0.31304  0.12567  0.52874  1.0000
  C   C764      1.0  0.33229  0.05207  0.66119  1.0000
  H   H1335     1.0  0.35583  0.07598  0.66925  1.0000
  H   H1336     1.0  0.36076  0.04319  0.70582  1.0000
  C   C765      1.0  0.29940  0.27597  0.79226  1.0000
  H   H1337     1.0  0.32179  0.03430  0.85922  1.0000
  C   C766      1.0  0.36569  0.02557  0.70905  1.0000
  H   H1338     1.0  0.39132  0.04590  0.90006  1.0000
  H   H1339     1.0  0.31708  0.05137  0.64874  1.0000
  H   H1340     1.0  0.29479  0.30075  0.76251  1.0000
  H   H1341     1.0  0.27954  0.16465  0.49231  1.0000
  S   S177      1.0  0.42173  0.08687  0.48522  1.0000
  H   H1342     1.0  0.43035  0.09014  0.81646  1.0000
  C   C767      1.0  0.50583  0.06815  0.70822  1.0000
  H   H1343     1.0  0.27701  0.00967  0.95496  1.0000
  H   H1344     1.0  0.34966  0.09921  0.53963  1.0000
  N   N43       1.0  0.34503  0.01094  0.66698  1.0000
  H   H1345     1.0  0.46199  0.04563  0.92058  1.0000
  H   H1346     1.0  0.29556  0.14563  0.62734  1.0000
  H   H1347     1.0  0.29610  0.02701  0.94077  1.0000
  H   H1348     1.0  0.34895  0.03042  0.63156  1.0000
  H   H1349     1.0  0.36571  0.03686  0.65891  1.0000
  H   H1350     1.0  0.47899  0.07975  0.83171  1.0000
  H   H1351     1.0  0.34537  0.06134  0.58344  1.0000
  H   H1352     1.0  0.30286  0.14736  0.47985  1.0000
  C   C768      1.0  0.33883  0.06051  0.56249  1.0000
  H   H1353     1.0  0.37416  0.01794  0.54895  1.0000
  H   H1354     1.0  0.42425  0.12235  0.92403  1.0000
  H   H1355     1.0  0.34627  0.07647  0.81008  1.0000
  H   H1356     1.0  0.34216  0.09146  0.84141  1.0000
  H   H1357     1.0  0.27875  0.13545  0.49201  1.0000
  C   C769      1.0  0.48491  0.08936  0.47735  1.0000
  H   H1358     1.0  0.29301  0.26033  0.79786  1.0000
  H   H1359     1.0  0.45680  0.04945  0.84435  1.0000
  H   H1360     1.0  0.42167  0.33154  0.85562  1.0000
  H   H1361     1.0  0.50317  0.03886  0.51964  1.0000
  C   C770      1.0  0.28962  0.14881  0.49518  1.0000
  H   H1362     1.0  0.35294  0.05796  0.54842  1.0000
  N   N44       1.0  0.46668  0.06230  0.88302  1.0000
  H   H1363     1.0  0.44837  0.06828  0.80147  1.0000
  H   H1364     1.0  0.44893  0.11117  0.94111  1.0000
  H   H1365     1.0  0.27743  0.21686  0.68882  1.0000
  C   C771      1.0  0.30008  0.26495  0.51500  1.0000
  H   H1366     1.0  0.38146  0.03278  0.74718  1.0000
  H   H1367     1.0  0.43294  0.09899  0.88430  1.0000
  H   H1368     1.0  0.32207  0.11303  0.96937  1.0000
  H   H1369     1.0  0.28569  0.15067  0.53806  1.0000
  H   H1370     1.0  0.38234  0.11298  0.87565  1.0000
  H   H1371     1.0  0.27559  0.20795  0.51426  1.0000
  H   H1372     1.0  0.35187  0.13761  0.57655  1.0000
  H   H1373     1.0  0.47481  0.09564  0.88963  1.0000
  H   H1374     1.0  0.30984  0.16189  0.52590  1.0000
  C   C772      1.0  0.49300  0.12851  0.82043  1.0000
  H   H1375     1.0  0.41045  0.03564  0.61841  1.0000
  C   C773      1.0  0.49014  0.10238  0.72817  1.0000
  H   H1376     1.0  0.33223  0.15733  0.56261  1.0000
  C   C774      1.0  0.34906  0.03226  0.65398  1.0000
  C   C775      1.0  0.51204  0.05352  0.97028  1.0000
  H   H1377     1.0  0.34873  0.10046  0.57513  1.0000
  H   H1378     1.0  0.27039  0.17180  0.73199  1.0000
  C   C776      1.0  0.40507  0.05285  0.61643  1.0000
  H   H1379     1.0  0.38460  0.16095  0.52378  1.0000
  C   C777      1.0  0.27581  0.33145  0.59308  1.0000
  H   H1380     1.0  0.29473  0.15355  0.72579  1.0000
  H   H1381     1.0  0.43647  0.06776  0.85956  1.0000
  S   S178      1.0  0.42928  0.07062  0.74070  1.0000
  C   C778      1.0  0.34110  0.14097  0.55852  1.0000
  H   H1382     1.0  0.36501  0.12783  0.52750  1.0000
  H   H1383     1.0  0.47141  0.07554  0.71734  1.0000
  C   C779      1.0  0.37418  0.15882  0.54162  1.0000
  H   H1384     1.0  0.39389  0.33269  0.84252  1.0000
  C   C780      1.0  0.49069  0.05554  0.87756  1.0000
  H   H1385     1.0  0.26944  0.25372  0.52694  1.0000
  H   H1386     1.0  0.49642  0.10550  0.61346  1.0000
  H   H1387     1.0  0.30165  0.14438  0.57908  1.0000
  C   C781      1.0  0.29954  0.14801  0.52364  1.0000
  H   H1388     1.0  0.28501  0.11907  0.62500  1.0000
  H   H1389     1.0  0.33223  0.01757  0.70730  1.0000
  C   C782      1.0  0.39307  0.06710  0.83680  1.0000
  C   C783      1.0  0.35649  0.14364  0.53425  1.0000
  Fe  Fe97      1.0  0.40524  0.07754  0.70667  1.0000
  C   C784      1.0  0.40074  0.06584  0.63953  1.0000
  C   C785      1.0  0.32436  0.08149  0.55567  1.0000
  C   C786      1.0  0.40310  0.06216  0.59074  1.0000
  H   H1390     1.0  0.29391  0.11768  0.57348  1.0000
  H   H1391     1.0  0.32470  0.12198  0.51176  1.0000
  Fe  Fe98      1.0  0.39482  0.03239  0.49264  1.0000
  H   H1392     1.0  0.34697  0.15087  0.51683  1.0000
  H   H1393     1.0  0.32107  0.10264  0.60798  1.0000
  S   S179      1.0  0.39631  0.05803  0.80302  1.0000
  H   H1394     1.0  0.50369  0.05194  0.70042  1.0000
  C   C787      1.0  0.49852  0.11763  0.65372  1.0000
  H   H1395     1.0  0.26743  0.33068  0.78917  1.0000
  H   H1396     1.0  0.45425  0.01982  0.86757  1.0000
  S   S180      1.0  0.27379  0.21917  0.78751  1.0000
  C   C788      1.0  0.33856  0.03302  0.86840  1.0000
  C   C789      1.0  0.26792  0.29451  0.70340  1.0000
  C   C790      1.0  0.36876  0.02236  0.73942  1.0000
  C   C791      1.0  0.27509  0.26504  0.51184  1.0000
  H   H1397     1.0  0.27373  0.32370  0.73911  1.0000
  H   H1398     1.0  0.30973  0.01934  0.66953  1.0000
  C   C792      1.0  0.40889  0.34165  0.84398  1.0000
  H   H1399     1.0  0.27081  0.29951  0.50181  1.0000
  C   C793      1.0  0.50548  0.05064  0.90279  1.0000
  H   H1400     1.0  0.26509  0.31146  0.69567  1.0000
  H   H1401     1.0  0.34499  0.12401  0.95337  1.0000
  H   H1402     1.0  0.47806  0.01542  0.88934  1.0000
  H   H1403     1.0  0.31045  0.00978  0.89454  1.0000
  H   H1404     1.0  0.33948  0.04606  0.88405  1.0000
  H   H1405     1.0  0.51033  0.13221  0.78385  1.0000
  H   H1406     1.0  0.27248  0.26198  0.68528  1.0000
  H   H1407     1.0  0.49100  0.03056  0.55023  1.0000
  C   C794      1.0  0.26799  0.27909  0.67898  1.0000
  H   H1408     1.0  0.36100  0.01029  0.88960  1.0000
  H   H1409     1.0  0.39008  0.01023  0.65085  1.0000
  C   C795      1.0  0.49946  0.10580  0.47623  1.0000
  H   H1410     1.0  0.26833  0.29396  0.53640  1.0000
  C   C796      1.0  0.34421  0.01044  0.88063  1.0000
  H   H1411     1.0  0.49342  0.12264  0.48040  1.0000
  H   H1412     1.0  0.49894  0.03832  0.91588  1.0000
  H   H1413     1.0  0.49826  0.06873  0.86691  1.0000
  S   S181      1.0  0.47485  0.04630  0.47348  1.0000
  C   C797      1.0  0.51330  0.12310  0.80289  1.0000
  H   H1414     1.0  0.51304  0.12642  0.73518  1.0000
  C   C798      1.0  0.33962  0.11622  0.97197  1.0000
  H   H1415     1.0  0.29468  0.22312  0.97227  1.0000
  H   H1416     1.0  0.48254  0.61488  0.01287  1.0000
  Fe  Fe99      1.0  0.43692  0.61270  0.22875  1.0000
  S   S182      1.0  0.43082  0.57742  0.22774  1.0000
  S   S183      1.0  0.47112  0.62308  0.22290  1.0000
  Fe  Fe100     1.0  0.38817  0.62756  0.23616  1.0000
  S   S184      1.0  0.37846  0.59310  0.23530  1.0000
  C   C799      1.0  0.50636  0.56428  0.23260  1.0000
  Fe  Fe101     1.0  0.40814  0.58623  0.26220  1.0000
  S   S185      1.0  0.40983  0.56286  0.29697  1.0000
  Fe  Fe102     1.0  0.40214  0.58757  0.20071  1.0000
  S   S186      1.0  0.39762  0.56486  0.16498  1.0000
  S   S187      1.0  0.41640  0.62105  0.26545  1.0000
  S   S188      1.0  0.40959  0.62254  0.19936  1.0000
  Fe  Fe103     1.0  0.28494  0.40618  0.35732  1.0000
  H   H1417     1.0  0.34313  0.44811  0.00023  1.0000
  Fe  Fe104     1.0  0.30205  0.45182  0.36092  1.0000
  H   H1418     1.0  0.38821  0.54116  0.23143  1.0000
  S   S189      1.0  0.32930  0.47473  0.36151  1.0000
  H   H1419     1.0  0.46317  0.61884  0.12816  1.0000
  H   H1420     1.0  0.33972  0.67179  0.12055  1.0000
  H   H1421     1.0  0.37714  0.52454  0.20542  1.0000
  H   H1422     1.0  0.34260  0.59003  0.42171  1.0000
  S   S190      1.0  0.29548  0.42699  0.39199  1.0000
  S   S191      1.0  0.29561  0.42919  0.32600  1.0000
  H   H1423     1.0  0.37759  0.42576  0.03903  1.0000
  C   C800      1.0  0.33692  0.65739  0.17032  1.0000
  H   H1424     1.0  0.43614  0.59093  0.42150  1.0000
  H   H1425     1.0  0.31386  0.34999  0.19525  1.0000
  H   H1426     1.0  0.47211  0.62019  0.16308  1.0000
  C   C801      1.0  0.26398  0.52865  0.37694  1.0000
  Fe  Fe105     1.0  0.39220  0.58321  0.44692  1.0000
  S   S192      1.0  0.38440  0.60484  0.41099  1.0000
  Fe  Fe106     1.0  0.41150  0.57144  0.00768  1.0000
  S   S193      1.0  0.40535  0.59476  0.04339  1.0000
  S   S194      1.0  0.40903  0.54916  0.44417  1.0000
  S   S195      1.0  0.42777  0.53713  0.00880  1.0000
  H   H1427     1.0  0.32909  0.38175  0.40698  1.0000
  S   S196      1.0  0.26635  0.41165  0.11059  1.0000
  H   H1428     1.0  0.33954  0.47528  0.46028  1.0000
  H   H1429     1.0  0.45257  0.51184  0.18574  1.0000
  H   H1430     1.0  0.49095  0.58160  0.34007  1.0000
  H   H1431     1.0  0.47142  0.52417  0.14257  1.0000
  C   C802      1.0  0.31503  0.65636  0.18591  1.0000
  H   H1432     1.0  0.30832  0.50374  0.29319  1.0000
  H   H1433     1.0  0.44842  0.58347  0.13619  1.0000
  H   H1434     1.0  0.37422  0.63195  0.01263  1.0000
  C   C803      1.0  0.32600  0.63235  0.43854  1.0000
  C   C804      1.0  0.49544  0.62253  0.29960  1.0000
  C   C805      1.0  0.46248  0.55352  0.06398  1.0000
  C   C806      1.0  0.28601  0.49045  0.46561  1.0000
  H   H1435     1.0  0.29609  0.47634  0.45636  1.0000
  C   C807      1.0  0.29214  0.37538  0.43720  1.0000
  S   S197      1.0  0.29292  0.36934  0.35456  1.0000
  C   C808      1.0  0.36578  0.42597  0.02178  1.0000
  H   H1436     1.0  0.49612  0.54785  0.31063  1.0000
  C   C809      1.0  0.27594  0.66923  0.29529  1.0000
  H   H1437     1.0  0.32698  0.47464  0.24621  1.0000
  H   H1438     1.0  0.43397  0.63027  0.42809  1.0000
  H   H1439     1.0  0.37515  0.42107  0.00322  1.0000
  H   H1440     1.0  0.30167  0.62143  0.40971  1.0000
  C   C810      1.0  0.29017  0.37777  0.27895  1.0000
  C   C811      1.0  0.26906  0.43681  0.00896  1.0000
  C   C812      1.0  0.31672  0.37090  0.44525  1.0000
  H   H1441     1.0  0.31681  0.62616  0.45556  1.0000
  H   H1442     1.0  0.29723  0.43898  0.22476  1.0000
  H   H1443     1.0  0.28280  0.44127  0.27138  1.0000
  C   C813      1.0  0.33862  0.48495  0.39277  1.0000
  C   C814      1.0  0.35123  0.50296  0.39304  1.0000
  C   C815      1.0  0.35920  0.51133  0.41746  1.0000
  C   C816      1.0  0.35498  0.50142  0.44186  1.0000
  C   C817      1.0  0.34255  0.48327  0.44159  1.0000
  C   C818      1.0  0.33416  0.47523  0.41721  1.0000
  H   H1444     1.0  0.35486  0.51044  0.37431  1.0000
  H   H1445     1.0  0.36880  0.52527  0.41736  1.0000
  N   N45       1.0  0.48695  0.55409  0.13750  1.0000
  H   H1446     1.0  0.32469  0.46120  0.41727  1.0000
  C   C819      1.0  0.39084  0.59307  0.37917  1.0000
  C   C820      1.0  0.38961  0.60621  0.35622  1.0000
  C   C821      1.0  0.39533  0.59710  0.33081  1.0000
  C   C822      1.0  0.40252  0.57487  0.32835  1.0000
  C   C823      1.0  0.40361  0.56176  0.35125  1.0000
  C   C824      1.0  0.39749  0.57077  0.37646  1.0000
  H   H1447     1.0  0.38427  0.62346  0.35805  1.0000
  H   H1448     1.0  0.39406  0.60730  0.31320  1.0000
  H   H1449     1.0  0.40897  0.54454  0.34956  1.0000
  H   H1450     1.0  0.39759  0.56032  0.39360  1.0000
  C   C825      1.0  0.40055  0.57336  0.13138  1.0000
  C   C826      1.0  0.40200  0.59532  0.12518  1.0000
  C   C827      1.0  0.40365  0.60161  0.09814  1.0000
  C   C828      1.0  0.40410  0.58600  0.07712  1.0000
  C   C829      1.0  0.40313  0.56399  0.08335  1.0000
  C   C830      1.0  0.40118  0.55772  0.11037  1.0000
  H   H1451     1.0  0.40152  0.60747  0.14117  1.0000
  H   H1452     1.0  0.40441  0.61867  0.09345  1.0000
  H   H1453     1.0  0.40365  0.55187  0.06731  1.0000
  H   H1454     1.0  0.40011  0.54071  0.11502  1.0000
  H   H1455     1.0  0.37007  0.64114  0.29242  1.0000
  C   C831      1.0  0.49229  0.60156  0.22218  1.0000
  S   S198      1.0  0.27654  0.44619  0.17317  1.0000
  H   H1456     1.0  0.39086  0.67066  0.40059  1.0000
  S   S199      1.0  0.43498  0.58303  0.97767  1.0000
  H   H1457     1.0  0.27067  0.54162  0.38956  1.0000
  C   C832      1.0  0.48941  0.58139  0.23367  1.0000
  H   H1458     1.0  0.44742  0.56175  0.05438  1.0000
  S   S200      1.0  0.38688  0.56385  0.97549  1.0000
  H   H1459     1.0  0.46456  0.49711  0.42252  1.0000
  H   H1460     1.0  0.47429  0.57905  0.24386  1.0000
  H   H1461     1.0  0.46729  0.55198  0.30066  1.0000
  C   C833      1.0  0.47944  0.61049  0.03405  1.0000
  C   C834      1.0  0.32077  0.50010  0.27711  1.0000
  H   H1462     1.0  0.34365  0.62755  0.44339  1.0000
  H   H1463     1.0  0.49210  0.58774  0.12966  1.0000
  C   C835      1.0  0.47594  0.64008  0.29842  1.0000
  H   H1464     1.0  0.36027  0.54761  0.21914  1.0000
  H   H1465     1.0  0.32883  0.62297  0.39547  1.0000
  H   H1466     1.0  0.35367  0.41388  0.02526  1.0000
  H   H1467     1.0  0.28359  0.43528  0.44427  1.0000
  N   N46       1.0  0.32980  0.47936  0.04402  1.0000
  C   C836      1.0  0.34008  0.45599  0.04352  1.0000
  C   C837      1.0  0.31541  0.48347  0.06867  1.0000
  C   C838      1.0  0.31519  0.48239  0.01929  1.0000
  C   C839      1.0  0.34685  0.49562  0.04262  1.0000
  C   C840      1.0  0.36554  0.49366  0.06404  1.0000
  C   C841      1.0  0.35395  0.44884  0.01830  1.0000
  C   C842      1.0  0.30030  0.50428  0.01747  1.0000
  C   C843      1.0  0.32293  0.47121  0.09489  1.0000
  C   C844      1.0  0.30965  0.48027  0.11922  1.0000
  C   C845      1.0  0.38277  0.50948  0.05812  1.0000
  H   H1468     1.0  0.46128  0.57817  0.09482  1.0000
  H   H1469     1.0  0.49127  0.60879  0.28631  1.0000
  H   H1470     1.0  0.32692  0.44462  0.04501  1.0000
  H   H1471     1.0  0.35082  0.45243  0.06140  1.0000
  H   H1472     1.0  0.31290  0.50132  0.07338  1.0000
  H   H1473     1.0  0.29858  0.47831  0.06455  1.0000
  H   H1474     1.0  0.30411  0.46905  0.01781  1.0000
  H   H1475     1.0  0.32523  0.48120  0.00069  1.0000
  H   H1476     1.0  0.35460  0.49505  0.02234  1.0000
  H   H1477     1.0  0.33891  0.51259  0.04471  1.0000
  H   H1478     1.0  0.37425  0.47700  0.06445  1.0000
  H   H1479     1.0  0.35877  0.49814  0.08424  1.0000
  C   C846      1.0  0.44894  0.59962  0.41144  1.0000
  H   H1480     1.0  0.31271  0.49754  0.12339  1.0000
  S   S201      1.0  0.28039  0.43626  0.04175  1.0000
  H   H1481     1.0  0.28798  0.50575  0.03390  1.0000
  H   H1482     1.0  0.32022  0.45361  0.09264  1.0000
  H   H1483     1.0  0.34058  0.47221  0.09959  1.0000
  H   H1484     1.0  0.28165  0.67359  0.31584  1.0000
  H   H1485     1.0  0.29175  0.47930  0.11567  1.0000
  H   H1486     1.0  0.31459  0.47045  0.13733  1.0000
  H   H1487     1.0  0.39075  0.50539  0.03838  1.0000
  H   H1488     1.0  0.37502  0.52659  0.05766  1.0000
  H   H1489     1.0  0.39574  0.50834  0.07409  1.0000
  H   H1490     1.0  0.36665  0.46021  0.01445  1.0000
  H   H1491     1.0  0.45250  0.63340  0.40057  1.0000
  H   H1492     1.0  0.34968  0.64881  0.18366  1.0000
  C   C847      1.0  0.33101  0.38501  0.42896  1.0000
  H   H1493     1.0  0.43736  0.53846  0.18913  1.0000
  H   H1494     1.0  0.45537  0.58476  0.17106  1.0000
  N   N47       1.0  0.35368  0.51936  0.29649  1.0000
  C   C848      1.0  0.34426  0.49801  0.28983  1.0000
  C   C849      1.0  0.37438  0.51447  0.31321  1.0000
  C   C850      1.0  0.33729  0.53275  0.31418  1.0000
  C   C851      1.0  0.35802  0.53239  0.27171  1.0000
  C   C852      1.0  0.32794  0.66676  0.46351  1.0000
  C   C853      1.0  0.27975  0.44281  0.22807  1.0000
  C   C854      1.0  0.34372  0.55574  0.32345  1.0000
  C   C855      1.0  0.39425  0.50195  0.29881  1.0000
  C   C856      1.0  0.41318  0.49592  0.31861  1.0000
  C   C857      1.0  0.48451  0.57809  0.14530  1.0000
  C   C858      1.0  0.34594  0.55775  0.35409  1.0000
  H   H1495     1.0  0.34333  0.48812  0.30840  1.0000
  H   H1496     1.0  0.35533  0.48757  0.27637  1.0000
  H   H1497     1.0  0.38053  0.52975  0.32115  1.0000
  H   H1498     1.0  0.37065  0.50498  0.33133  1.0000
  H   H1499     1.0  0.33325  0.52305  0.33207  1.0000
  H   H1500     1.0  0.32127  0.53616  0.30342  1.0000
  H   H1501     1.0  0.34323  0.54360  0.26626  1.0000
  H   H1502     1.0  0.37116  0.54339  0.27617  1.0000
  H   H1503     1.0  0.49778  0.55944  0.09672  1.0000
  H   H1504     1.0  0.37770  0.50587  0.24907  1.0000
  H   H1505     1.0  0.46363  0.59938  0.42482  1.0000
  H   H1506     1.0  0.33552  0.62278  0.97497  1.0000
  H   H1507     1.0  0.33059  0.56844  0.31688  1.0000
  H   H1508     1.0  0.35906  0.56034  0.31421  1.0000
  H   H1509     1.0  0.38973  0.48652  0.28938  1.0000
  H   H1510     1.0  0.40066  0.51242  0.28320  1.0000
  H   H1511     1.0  0.40770  0.48567  0.33510  1.0000
  H   H1512     1.0  0.42696  0.48650  0.30785  1.0000
  H   H1513     1.0  0.41944  0.51089  0.32738  1.0000
  C   C859      1.0  0.29730  0.66360  0.43169  1.0000
  H   H1514     1.0  0.31965  0.58498  0.40024  1.0000
  C   C860      1.0  0.37302  0.67078  0.39571  1.0000
  H   H1515     1.0  0.35990  0.54648  0.36154  1.0000
  H   H1516     1.0  0.34920  0.57473  0.35970  1.0000
  H   H1517     1.0  0.33054  0.55398  0.36408  1.0000
  H   H1518     1.0  0.34068  0.64881  0.98947  1.0000
  H   H1519     1.0  0.31011  0.51856  0.01863  1.0000
  H   H1520     1.0  0.31652  0.66349  0.20651  1.0000
  H   H1521     1.0  0.26995  0.48509  0.47191  1.0000
  C   C861      1.0  0.30019  0.34922  0.18037  1.0000
  H   H1522     1.0  0.26918  0.36259  0.25141  1.0000
  C   C862      1.0  0.47259  0.53927  0.18201  1.0000
  C   C863      1.0  0.30972  0.63273  0.18929  1.0000
  H   H1523     1.0  0.49398  0.58107  0.16414  1.0000
  N   N48       1.0  0.32154  0.65693  0.43674  1.0000
  H   H1524     1.0  0.45135  0.51994  0.44102  1.0000
  H   H1525     1.0  0.30063  0.43745  0.98983  1.0000
  C   C864      1.0  0.26836  0.36828  0.27265  1.0000
  C   C865      1.0  0.31552  0.47886  0.26317  1.0000
  C   C866      1.0  0.36051  0.66489  0.42070  1.0000
  C   C867      1.0  0.36150  0.62171  0.00454  1.0000
  H   H1526     1.0  0.48526  0.52967  0.41897  1.0000
  C   C868      1.0  0.35807  0.65527  0.29300  1.0000
  H   H1527     1.0  0.28768  0.39306  0.44139  1.0000
  H   H1528     1.0  0.48780  0.52882  0.18758  1.0000
  H   H1529     1.0  0.35019  0.51189  0.23675  1.0000
  C   C869      1.0  0.47029  0.54119  0.15093  1.0000
  C   C870      1.0  0.46078  0.58889  0.15059  1.0000
  H   H1530     1.0  0.37804  0.64418  0.15328  1.0000
  H   H1531     1.0  0.29076  0.37375  0.41487  1.0000
  C   C871      1.0  0.50502  0.56298  0.97640  1.0000
  H   H1532     1.0  0.51268  0.54801  0.16787  1.0000
  H   H1533     1.0  0.44018  0.51203  0.40875  1.0000
  H   H1534     1.0  0.29844  0.48091  0.25492  1.0000
  H   H1535     1.0  0.28711  0.65249  0.44261  1.0000
  C   C872      1.0  0.28768  0.50552  0.99062  1.0000
  C   C873      1.0  0.51236  0.60467  0.20997  1.0000
  C   C874      1.0  0.43964  0.62345  0.40821  1.0000
  H   H1536     1.0  0.46663  0.59874  0.03389  1.0000
  H   H1537     1.0  0.31557  0.58902  0.43597  1.0000
  C   C875      1.0  0.32470  0.59424  0.41828  1.0000
  H   H1538     1.0  0.31671  0.46523  0.27779  1.0000
  H   H1539     1.0  0.45313  0.54794  0.14642  1.0000
  C   C876      1.0  0.37304  0.53412  0.22416  1.0000
  H   H1540     1.0  0.28293  0.50325  0.45008  1.0000
  H   H1541     1.0  0.26729  0.35400  0.28595  1.0000
  H   H1542     1.0  0.30406  0.36481  0.27684  1.0000
  H   H1543     1.0  0.27392  0.51288  0.38080  1.0000
  H   H1544     1.0  0.47486  0.52072  0.38677  1.0000
  H   H1545     1.0  0.47341  0.55554  0.19161  1.0000
  H   H1546     1.0  0.42534  0.62469  0.39404  1.0000
  H   H1547     1.0  0.47348  0.64633  0.27757  1.0000
  H   H1548     1.0  0.44319  0.62110  0.15476  1.0000
  C   C877      1.0  0.50057  0.60010  0.04737  1.0000
  C   C878      1.0  0.35138  0.66583  0.26908  1.0000
  H   H1549     1.0  0.36723  0.64836  0.42695  1.0000
  C   C879      1.0  0.34934  0.66313  0.31783  1.0000
  H   H1550     1.0  0.49699  0.61662  0.32052  1.0000
  C   C880      1.0  0.36463  0.51929  0.24550  1.0000
  H   H1551     1.0  0.29719  0.65239  0.38850  1.0000
  N   N49       1.0  0.46926  0.56721  0.38465  1.0000
  C   C881      1.0  0.46998  0.55762  0.35641  1.0000
  C   C882      1.0  0.45830  0.55196  0.40276  1.0000
  C   C883      1.0  0.45481  0.58862  0.38377  1.0000
  C   C884      1.0  0.49171  0.57161  0.39576  1.0000
  C   C885      1.0  0.45318  0.52871  0.19390  1.0000
  C   C886      1.0  0.47648  0.57300  0.33390  1.0000
  C   C887      1.0  0.31966  0.61878  0.41360  1.0000
  C   C888      1.0  0.47023  0.52872  0.40627  1.0000
  C   C889      1.0  0.45561  0.51362  0.42049  1.0000
  H   H1552     1.0  0.48602  0.57157  0.29179  1.0000
  C   C890      1.0  0.48182  0.56024  0.30772  1.0000
  C   C891      1.0  0.48504  0.55105  0.10728  1.0000
  H   H1553     1.0  0.45347  0.55244  0.35058  1.0000
  H   H1554     1.0  0.48133  0.54247  0.35520  1.0000
  H   H1555     1.0  0.45666  0.55881  0.42359  1.0000
  H   H1556     1.0  0.44117  0.55031  0.39542  1.0000
  H   H1557     1.0  0.43899  0.58646  0.37307  1.0000
  H   H1558     1.0  0.46285  0.60082  0.37185  1.0000
  H   H1559     1.0  0.49160  0.57137  0.41825  1.0000
  N   N50       1.0  0.27624  0.36179  0.45094  1.0000
  H   H1560     1.0  0.29141  0.36583  0.17854  1.0000
  S   S202      1.0  0.36243  0.65672  0.23762  1.0000
  H   H1561     1.0  0.46251  0.58548  0.32947  1.0000
  H   H1562     1.0  0.37107  0.65861  0.37935  1.0000
  H   H1563     1.0  0.31869  0.51346  0.26222  1.0000
  H   H1564     1.0  0.51228  0.63199  0.05271  1.0000
  H   H1565     1.0  0.33289  0.65793  0.39535  1.0000
  C   C892      1.0  0.27296  0.43681  0.46148  1.0000
  C   C893      1.0  0.33528  0.66604  0.41514  1.0000
  H   H1566     1.0  0.46202  0.53555  0.06161  1.0000
  H   H1567     1.0  0.31912  0.37515  0.46680  1.0000
  H   H1568     1.0  0.50403  0.54872  0.24162  1.0000
  C   C894      1.0  0.28300  0.43772  0.98674  1.0000
  H   H1569     1.0  0.36972  0.60575  0.99771  1.0000
  Fe  Fe107     1.0  0.40476  0.53013  0.97420  1.0000
  H   H1570     1.0  0.35463  0.65486  0.33619  1.0000
  H   H1571     1.0  0.48816  0.53334  0.10188  1.0000
  C   C895      1.0  0.45986  0.61378  0.14903  1.0000
  H   H1572     1.0  0.29426  0.63249  0.20091  1.0000
  H   H1573     1.0  0.47703  0.55856  0.05322  1.0000
  H   H1574     1.0  0.45507  0.52790  0.21618  1.0000
  H   H1575     1.0  0.47869  0.65391  0.31233  1.0000
  C   C896      1.0  0.34865  0.63317  0.98133  1.0000
  H   H1576     1.0  0.46065  0.63299  0.30450  1.0000
  H   H1577     1.0  0.41219  0.66242  0.16670  1.0000
  H   H1578     1.0  0.30083  0.66540  0.17571  1.0000
  Fe  Fe108     1.0  0.45024  0.54851  0.97704  1.0000
  H   H1579     1.0  0.30742  0.62483  0.16931  1.0000
  C   C897      1.0  0.46306  0.56002  0.09383  1.0000
  H   H1580     1.0  0.32325  0.62325  0.20054  1.0000
  H   H1581     1.0  0.44867  0.55366  0.10342  1.0000
  H   H1582     1.0  0.49561  0.58846  0.39082  1.0000
  H   H1583     1.0  0.47294  0.62542  0.04534  1.0000
  C   C898      1.0  0.26546  0.44659  0.20591  1.0000
  H   H1584     1.0  0.41396  0.64895  0.13413  1.0000
  H   H1585     1.0  0.26578  0.53276  0.35538  1.0000
  S   S203      1.0  0.26765  0.46854  0.36073  1.0000
  H   H1586     1.0  0.51104  0.52620  0.14424  1.0000
  H   H1587     1.0  0.33645  0.64666  0.15209  1.0000
  C   C899      1.0  0.27161  0.44412  0.25452  1.0000
  H   H1588     1.0  0.34863  0.38114  0.43458  1.0000
  H   H1589     1.0  0.32643  0.40264  0.43325  1.0000
  H   H1590     1.0  0.35012  0.61870  0.02115  1.0000
  H   H1591     1.0  0.49650  0.59632  0.06839  1.0000
  H   H1592     1.0  0.32293  0.35360  0.44141  1.0000
  C   C900      1.0  0.27138  0.35190  0.35461  1.0000
  H   H1593     1.0  0.29029  0.38429  0.29991  1.0000
  H   H1594     1.0  0.26844  0.36579  0.11016  1.0000
  H   H1595     1.0  0.29274  0.39120  0.26486  1.0000
  H   H1596     1.0  0.27807  0.49114  0.98801  1.0000
  H   H1597     1.0  0.50528  0.58444  0.03653  1.0000
  S   S204      1.0  0.48760  0.54165  0.97969  1.0000
  H   H1598     1.0  0.34485  0.65998  0.46964  1.0000
  H   H1599     1.0  0.50921  0.53874  0.38801  1.0000
  C   C901      1.0  0.28930  0.66534  0.40184  1.0000
  C   C902      1.0  0.38063  0.66067  0.14576  1.0000
  C   C903      1.0  0.50971  0.54440  0.14610  1.0000
  C   C904      1.0  0.51189  0.55620  0.38615  1.0000
  H   H1600     1.0  0.28356  0.65258  0.29010  1.0000
  H   H1601     1.0  0.37494  0.66166  0.12448  1.0000
  C   C905      1.0  0.40545  0.66277  0.14579  1.0000
  S   S205      1.0  0.38343  0.50144  0.97362  1.0000
  C   C906      1.0  0.26433  0.66457  0.39969  1.0000
  H   H1602     1.0  0.27617  0.52064  0.99017  1.0000
  H   H1603     1.0  0.30713  0.34421  0.16034  1.0000
  H   H1604     1.0  0.29931  0.50586  0.97354  1.0000
  S   S206      1.0  0.36494  0.51117  0.47302  1.0000
  H   H1605     1.0  0.34250  0.61726  0.89664  1.0000
  Fe  Fe109     1.0  0.44050  0.60522  0.72868  1.0000
  S   S207      1.0  0.43547  0.56973  0.72455  1.0000
  S   S208      1.0  0.47438  0.61758  0.73026  1.0000
  Fe  Fe110     1.0  0.39120  0.61799  0.73530  1.0000
  S   S209      1.0  0.38265  0.58337  0.73105  1.0000
  H   H1606     1.0  0.27519  0.65559  0.73696  1.0000
  Fe  Fe111     1.0  0.41175  0.57599  0.75851  1.0000
  S   S210      1.0  0.41310  0.55268  0.79311  1.0000
  Fe  Fe112     1.0  0.40712  0.58095  0.69726  1.0000
  S   S211      1.0  0.40291  0.56089  0.65929  1.0000
  S   S212      1.0  0.41876  0.61072  0.76485  1.0000
  S   S213      1.0  0.41353  0.61632  0.69918  1.0000
  Fe  Fe113     1.0  0.28885  0.40572  0.85321  1.0000
  H   H1607     1.0  0.33629  0.66646  0.62405  1.0000
  Fe  Fe114     1.0  0.30625  0.45035  0.86430  1.0000
  C   C907      1.0  0.29910  0.65644  0.67308  1.0000
  S   S214      1.0  0.33680  0.46906  0.86636  1.0000
  H   H1608     1.0  0.32395  0.42689  0.57318  1.0000
  H   H1609     1.0  0.28710  0.51325  0.49850  1.0000
  H   H1610     1.0  0.37317  0.63239  0.90492  1.0000
  C   C908      1.0  0.39326  0.40890  0.87387  1.0000
  S   S215      1.0  0.29831  0.42310  0.89122  1.0000
  S   S216      1.0  0.30006  0.43143  0.82601  1.0000
  C   C909      1.0  0.36401  0.63687  0.95734  1.0000
  H   H1611     1.0  0.39759  0.45360  0.91765  1.0000
  C   C910      1.0  0.27499  0.45361  0.75460  1.0000
  H   H1612     1.0  0.39924  0.39735  0.88987  1.0000
  H   H1613     1.0  0.28592  0.50230  0.78254  1.0000
  C   C911      1.0  0.31266  0.66341  0.48777  1.0000
  Fe  Fe115     1.0  0.41223  0.57188  0.94563  1.0000
  S   S217      1.0  0.40238  0.59392  0.91051  1.0000
  Fe  Fe116     1.0  0.38953  0.58217  0.50833  1.0000
  S   S218      1.0  0.37964  0.60294  0.54512  1.0000
  S   S219      1.0  0.42908  0.53778  0.94263  1.0000
  S   S220      1.0  0.40602  0.54799  0.50977  1.0000
  H   H1614     1.0  0.32517  0.65378  0.90884  1.0000
  H   H1615     1.0  0.29897  0.42600  0.48934  1.0000
  H   H1616     1.0  0.47083  0.64323  0.82425  1.0000
  H   H1617     1.0  0.36619  0.43129  0.78052  1.0000
  S   S221      1.0  0.32738  0.67285  0.85708  1.0000
  H   H1618     1.0  0.33414  0.39588  0.92111  1.0000
  C   C912      1.0  0.46558  0.58895  0.86219  1.0000
  C   C913      1.0  0.48197  0.60339  0.84878  1.0000
  H   H1619     1.0  0.30996  0.67140  0.53028  1.0000
  H   H1620     1.0  0.49950  0.57226  0.58644  1.0000
  C   C914      1.0  0.42603  0.65052  0.82004  1.0000
  H   H1621     1.0  0.46244  0.55192  0.77485  1.0000
  C   C915      1.0  0.35581  0.39526  0.87071  1.0000
  H   H1622     1.0  0.48390  0.58758  0.90043  1.0000
  C   C916      1.0  0.50253  0.53970  0.90718  1.0000
  H   H1623     1.0  0.46151  0.63242  0.79314  1.0000
  H   H1624     1.0  0.45993  0.60736  0.89977  1.0000
  C   C917      1.0  0.35603  0.40828  0.81004  1.0000
  H   H1625     1.0  0.41884  0.44005  0.89677  1.0000
  H   H1626     1.0  0.27204  0.51872  0.80907  1.0000
  C   C918      1.0  0.35638  0.65004  0.82250  1.0000
  H   H1627     1.0  0.50192  0.57009  0.53711  1.0000
  N   N51       1.0  0.47852  0.60819  0.81911  1.0000
  C   C919      1.0  0.27375  0.36842  0.48044  1.0000
  C   C920      1.0  0.28188  0.45176  0.72760  1.0000
  H   H1628     1.0  0.29595  0.67193  0.48459  1.0000
  H   H1629     1.0  0.30968  0.64244  0.71300  1.0000
  C   C921      1.0  0.29824  0.50614  0.55078  1.0000
  H   H1630     1.0  0.29922  0.45150  0.72298  1.0000
  H   H1631     1.0  0.28699  0.45483  0.77063  1.0000
  C   C922      1.0  0.34899  0.47835  0.89651  1.0000
  C   C923      1.0  0.36630  0.49184  0.89473  1.0000
  C   C924      1.0  0.37658  0.49956  0.91812  1.0000
  C   C925      1.0  0.37014  0.49318  0.94361  1.0000
  C   C926      1.0  0.35320  0.47922  0.94532  1.0000
  C   C927      1.0  0.34243  0.47208  0.92197  1.0000
  H   H1632     1.0  0.37196  0.49618  0.87514  1.0000
  H   H1633     1.0  0.38981  0.51003  0.91641  1.0000
  H   H1634     1.0  0.40915  0.64004  0.88415  1.0000
  H   H1635     1.0  0.32935  0.46143  0.92366  1.0000
  C   C928      1.0  0.40516  0.58230  0.87792  1.0000
  C   C929      1.0  0.39843  0.59492  0.85543  1.0000
  C   C930      1.0  0.40090  0.58602  0.82926  1.0000
  C   C931      1.0  0.41005  0.56447  0.82549  1.0000
  C   C932      1.0  0.41657  0.55182  0.84794  1.0000
  C   C933      1.0  0.41416  0.56072  0.87404  1.0000
  H   H1636     1.0  0.39123  0.61156  0.85820  1.0000
  H   H1637     1.0  0.39560  0.59582  0.81207  1.0000
  H   H1638     1.0  0.42353  0.53508  0.84516  1.0000
  H   H1639     1.0  0.41925  0.55079  0.89107  1.0000
  C   C934      1.0  0.39629  0.57315  0.62794  1.0000
  C   C935      1.0  0.39507  0.55964  0.60506  1.0000
  C   C936      1.0  0.39004  0.56870  0.57965  1.0000
  C   C937      1.0  0.38593  0.59132  0.57693  1.0000
  C   C938      1.0  0.38700  0.60489  0.59983  1.0000
  C   C939      1.0  0.39242  0.59585  0.62525  1.0000
  H   H1640     1.0  0.39805  0.54208  0.60701  1.0000
  H   H1641     1.0  0.38897  0.55815  0.56225  1.0000
  H   H1642     1.0  0.38392  0.62243  0.59782  1.0000
  H   H1643     1.0  0.39346  0.60642  0.64275  1.0000
  H   H1644     1.0  0.37972  0.63302  0.79517  1.0000
  C   C940      1.0  0.49728  0.59792  0.72708  1.0000
  C   C941      1.0  0.44030  0.62965  0.82771  1.0000
  C   C942      1.0  0.29806  0.49958  0.48982  1.0000
  C   C943      1.0  0.51248  0.63103  0.81805  1.0000
  S   S222      1.0  0.41417  0.59420  0.48005  1.0000
  C   C944      1.0  0.49476  0.57651  0.71858  1.0000
  H   H1645     1.0  0.37053  0.42966  0.90015  1.0000
  H   H1646     1.0  0.44161  0.62955  0.85005  1.0000
  H   H1647     1.0  0.32452  0.67029  0.75819  1.0000
  H   H1648     1.0  0.47879  0.57195  0.71261  1.0000
  H   H1649     1.0  0.33776  0.66327  0.51950  1.0000
  H   H1650     1.0  0.36249  0.36232  0.88678  1.0000
  C   C945      1.0  0.46917  0.58978  0.80358  1.0000
  H   H1651     1.0  0.31033  0.59637  0.90117  1.0000
  H   H1652     1.0  0.33980  0.42124  0.77364  1.0000
  H   H1653     1.0  0.27362  0.50033  0.92646  1.0000
  S   S223      1.0  0.27207  0.46783  0.86515  1.0000
  C   C946      1.0  0.33900  0.66406  0.67660  1.0000
  H   H1654     1.0  0.29911  0.61489  0.92713  1.0000
  H   H1655     1.0  0.28356  0.35795  0.76056  1.0000
  C   C947      1.0  0.27538  0.65390  0.71463  1.0000
  H   H1656     1.0  0.37870  0.64404  0.96596  1.0000
  C   C948      1.0  0.28724  0.36612  0.52916  1.0000
  C   C949      1.0  0.29866  0.65599  0.70442  1.0000
  H   H1657     1.0  0.49868  0.59490  0.85252  1.0000
  N   N52       1.0  0.33915  0.53171  0.81731  1.0000
  C   C950      1.0  0.34687  0.55029  0.80132  1.0000
  C   C951      1.0  0.35404  0.51084  0.81254  1.0000
  C   C952      1.0  0.31638  0.52777  0.80698  1.0000
  C   C953      1.0  0.33743  0.53716  0.84706  1.0000
  C   C954      1.0  0.35804  0.54549  0.86092  1.0000
  C   C955      1.0  0.33294  0.57271  0.80432  1.0000
  C   C956      1.0  0.30638  0.50735  0.81817  1.0000
  C   C957      1.0  0.37888  0.51288  0.80809  1.0000
  C   C958      1.0  0.39226  0.49055  0.80904  1.0000
  C   C959      1.0  0.35314  0.55275  0.89003  1.0000
  C   C960      1.0  0.34244  0.59025  0.78759  1.0000
  H   H1658     1.0  0.27566  0.52876  0.91932  1.0000
  H   H1659     1.0  0.34749  0.54578  0.77945  1.0000
  H   H1660     1.0  0.36407  0.55324  0.80674  1.0000
  H   H1661     1.0  0.35257  0.49929  0.82937  1.0000
  H   H1662     1.0  0.34873  0.50210  0.79407  1.0000
  H   H1663     1.0  0.31650  0.52617  0.78453  1.0000
  H   H1664     1.0  0.30424  0.54190  0.81181  1.0000
  H   H1665     1.0  0.32326  0.54961  0.85081  1.0000
  H   H1666     1.0  0.33357  0.52255  0.85854  1.0000
  H   H1667     1.0  0.36377  0.55969  0.85043  1.0000
  H   H1668     1.0  0.37167  0.53230  0.86175  1.0000
  H   H1669     1.0  0.31575  0.57178  0.79717  1.0000
  H   H1670     1.0  0.33262  0.57842  0.82565  1.0000
  H   H1671     1.0  0.49699  0.56977  0.78534  1.0000
  H   H1672     1.0  0.31716  0.49207  0.81434  1.0000
  H   H1673     1.0  0.38123  0.51985  0.78787  1.0000
  H   H1674     1.0  0.38587  0.52353  0.82335  1.0000
  H   H1675     1.0  0.38627  0.47937  0.79340  1.0000
  H   H1676     1.0  0.40987  0.49260  0.80513  1.0000
  H   H1677     1.0  0.39104  0.48317  0.82924  1.0000
  H   H1678     1.0  0.34074  0.56719  0.89051  1.0000
  H   H1679     1.0  0.34697  0.53928  0.90166  1.0000
  H   H1680     1.0  0.36848  0.55738  0.90000  1.0000
  H   H1681     1.0  0.34160  0.58609  0.76577  1.0000
  H   H1682     1.0  0.33277  0.60630  0.79101  1.0000
  H   H1683     1.0  0.35983  0.59195  0.79342  1.0000
  H   H1684     1.0  0.51091  0.54429  0.71097  1.0000
  H   H1685     1.0  0.26643  0.51835  0.59037  1.0000
  S   S224      1.0  0.36581  0.57473  0.47517  1.0000
  S   S225      1.0  0.46602  0.54983  0.48190  1.0000
  S   S226      1.0  0.27997  0.42815  0.54161  1.0000
  C   C961      1.0  0.47194  0.54874  0.79387  1.0000
  H   H1686     1.0  0.32838  0.44272  0.52776  1.0000
  C   C962      1.0  0.34983  0.67427  0.94569  1.0000
  C   C963      1.0  0.51307  0.56086  0.71741  1.0000
  H   H1687     1.0  0.30372  0.50905  0.84024  1.0000
  H   H1688     1.0  0.39010  0.67604  0.92330  1.0000
  H   H1689     1.0  0.48176  0.61901  0.86052  1.0000
  H   H1690     1.0  0.34015  0.60784  0.93059  1.0000
  H   H1691     1.0  0.28502  0.44031  0.94357  1.0000
  H   H1692     1.0  0.48363  0.53394  0.79081  1.0000
  H   H1693     1.0  0.34021  0.40292  0.81701  1.0000
  C   C964      1.0  0.33211  0.64358  0.92576  1.0000
  C   C965      1.0  0.33182  0.61518  0.67810  1.0000
  N   N53       1.0  0.31402  0.48915  0.53706  1.0000
  C   C966      1.0  0.31817  0.46991  0.55565  1.0000
  H   H1694     1.0  0.40162  0.64895  0.93220  1.0000
  C   C967      1.0  0.33348  0.66458  0.77606  1.0000
  C   C968      1.0  0.33514  0.49912  0.53124  1.0000
  C   C969      1.0  0.34923  0.50465  0.55621  1.0000
  C   C970      1.0  0.33498  0.45103  0.54571  1.0000
  H   H1695     1.0  0.51312  0.54522  0.48005  1.0000
  H   H1696     1.0  0.27942  0.35951  0.94318  1.0000
  C   C971      1.0  0.40366  0.36373  0.85823  1.0000
  C   C972      1.0  0.36942  0.51582  0.54787  1.0000
  C   C973      1.0  0.33949  0.43375  0.56749  1.0000
  H   H1697     1.0  0.34029  0.36714  0.92738  1.0000
  H   H1698     1.0  0.30266  0.46243  0.55934  1.0000
  H   H1699     1.0  0.32339  0.47534  0.57604  1.0000
  H   H1700     1.0  0.30402  0.50931  0.57172  1.0000
  N   N54       1.0  0.35385  0.65109  0.93504  1.0000
  H   H1701     1.0  0.29800  0.52219  0.54057  1.0000
  C   C974      1.0  0.33795  0.37960  0.91134  1.0000
  H   H1702     1.0  0.34577  0.48831  0.51750  1.0000
  H   H1703     1.0  0.33157  0.51461  0.51994  1.0000
  H   H1704     1.0  0.35535  0.48962  0.56717  1.0000
  H   H1705     1.0  0.33955  0.51584  0.57033  1.0000
  C   C975      1.0  0.30452  0.48147  0.51079  1.0000
  S   S227      1.0  0.27580  0.44951  0.67283  1.0000
  H   H1706     1.0  0.34018  0.65677  0.69675  1.0000
  H   H1707     1.0  0.49367  0.56455  0.82060  1.0000
  C   C976      1.0  0.49021  0.55968  0.57633  1.0000
  H   H1708     1.0  0.42486  0.51776  0.55568  1.0000
  H   H1709     1.0  0.48690  0.62671  0.64095  1.0000
  H   H1710     1.0  0.26451  0.61821  0.79366  1.0000
  H   H1711     1.0  0.37224  0.38336  0.90859  1.0000
  H   H1712     1.0  0.37989  0.50510  0.53393  1.0000
  H   H1713     1.0  0.36427  0.53151  0.53767  1.0000
  H   H1714     1.0  0.37941  0.51930  0.56601  1.0000
  C   C977      1.0  0.28169  0.43172  0.48710  1.0000
  H   H1715     1.0  0.35114  0.42017  0.55973  1.0000
  C   C978      1.0  0.40342  0.43781  0.90774  1.0000
  H   H1716     1.0  0.39810  0.36055  0.87882  1.0000
  H   H1717     1.0  0.28904  0.64346  0.66525  1.0000
  H   H1718     1.0  0.34845  0.47385  0.96480  1.0000
  N   N55       1.0  0.46597  0.56738  0.57493  1.0000
  C   C979      1.0  0.46328  0.58894  0.56047  1.0000
  H   H1719     1.0  0.37058  0.62052  0.94933  1.0000
  C   C980      1.0  0.45314  0.55128  0.55962  1.0000
  C   C981      1.0  0.45710  0.56956  0.60327  1.0000
  C   C982      1.0  0.46634  0.58734  0.62151  1.0000
  C   C983      1.0  0.43960  0.60059  0.55959  1.0000
  C   C984      1.0  0.49678  0.58407  0.96882  1.0000
  Fe  Fe117     1.0  0.26539  0.44703  0.82878  1.0000
  H   H1720     1.0  0.49619  0.55290  0.92133  1.0000
  C   C985      1.0  0.45581  0.58795  0.64942  1.0000
  C   C986      1.0  0.43900  0.62224  0.54467  1.0000
  H   H1721     1.0  0.44605  0.49535  0.55830  1.0000
  H   H1722     1.0  0.46828  0.58657  0.53900  1.0000
  H   H1723     1.0  0.47455  0.60049  0.56918  1.0000
  H   H1724     1.0  0.34691  0.44092  0.58572  1.0000
  H   H1725     1.0  0.34504  0.62953  0.64263  1.0000
  H   H1726     1.0  0.45636  0.55188  0.53763  1.0000
  H   H1727     1.0  0.43512  0.55595  0.56151  1.0000
  H   H1728     1.0  0.43882  0.57266  0.60294  1.0000
  H   H1729     1.0  0.44605  0.51366  0.53019  1.0000
  H   H1730     1.0  0.46287  0.60382  0.61270  1.0000
  H   H1731     1.0  0.47447  0.52050  0.56525  1.0000
  H   H1732     1.0  0.42832  0.59030  0.54868  1.0000
  H   H1733     1.0  0.43315  0.60423  0.58013  1.0000
  C   C987      1.0  0.27870  0.37098  0.92601  1.0000
  C   C988      1.0  0.27422  0.43906  0.96047  1.0000
  C   C989      1.0  0.28854  0.35513  0.50132  1.0000
  H   H1734     1.0  0.46334  0.59990  0.66278  1.0000
  H   H1735     1.0  0.37314  0.36863  0.83479  1.0000
  H   H1736     1.0  0.27626  0.38604  0.48336  1.0000
  C   C990      1.0  0.47851  0.59189  0.47792  1.0000
  H   H1737     1.0  0.43786  0.59296  0.64781  1.0000
  H   H1738     1.0  0.45826  0.57165  0.65905  1.0000
  H   H1739     1.0  0.44477  0.61946  0.52361  1.0000
  H   H1740     1.0  0.42178  0.63003  0.54398  1.0000
  H   H1741     1.0  0.44950  0.63359  0.55519  1.0000
  H   H1742     1.0  0.46514  0.59488  0.78246  1.0000
  H   H1743     1.0  0.43155  0.61562  0.82086  1.0000
  H   H1744     1.0  0.44827  0.59339  0.85606  1.0000
  C   C991      1.0  0.34186  0.59240  0.66966  1.0000
  C   C992      1.0  0.26823  0.43417  0.50984  1.0000
  H   H1745     1.0  0.35902  0.59311  0.66276  1.0000
  C   C993      1.0  0.46350  0.62895  0.81514  1.0000
  H   H1746     1.0  0.33201  0.58543  0.65325  1.0000
  H   H1747     1.0  0.46962  0.57151  0.85645  1.0000
  H   H1748     1.0  0.42434  0.65188  0.79778  1.0000
  H   H1749     1.0  0.49765  0.52399  0.91493  1.0000
  H   H1750     1.0  0.31961  0.64616  0.94199  1.0000
  S   S228      1.0  0.26635  0.40961  0.61312  1.0000
  H   H1751     1.0  0.28868  0.66737  0.57350  1.0000
  H   H1752     1.0  0.27747  0.48957  0.81253  1.0000
  C   C994      1.0  0.38567  0.43090  0.88825  1.0000
  H   H1753     1.0  0.43330  0.66518  0.82822  1.0000
  H   H1754     1.0  0.41932  0.37161  0.86011  1.0000
  H   H1755     1.0  0.42179  0.66408  0.89492  1.0000
  H   H1756     1.0  0.31304  0.50636  0.48220  1.0000
  C   C995      1.0  0.37000  0.41607  0.83413  1.0000
  H   H1757     1.0  0.29018  0.38361  0.93038  1.0000
  C   C996      1.0  0.30954  0.61349  0.90882  1.0000
  H   H1758     1.0  0.40822  0.41154  0.86202  1.0000
  C   C997      1.0  0.32525  0.67092  0.80159  1.0000
  H   H1759     1.0  0.31143  0.64208  0.60279  1.0000
  C   C998      1.0  0.26648  0.45029  0.70651  1.0000
  H   H1760     1.0  0.50436  0.64678  0.81055  1.0000
  H   H1761     1.0  0.45652  0.57869  0.90201  1.0000
  H   H1762     1.0  0.49472  0.54261  0.88705  1.0000
  C   C999      1.0  0.38644  0.37868  0.84195  1.0000
  H   H1763     1.0  0.48440  0.58395  0.62452  1.0000
  H   H1764     1.0  0.34232  0.44141  0.79993  1.0000
  H   H1765     1.0  0.48217  0.63497  0.67557  1.0000
  H   H1766     1.0  0.49147  0.65411  0.65206  1.0000
  H   H1767     1.0  0.28420  0.36189  0.90738  1.0000
  C   C1000     1.0  0.36941  0.64967  0.91149  1.0000
  H   H1768     1.0  0.46042  0.54546  0.81023  1.0000
  H   H1769     1.0  0.36534  0.64450  0.84045  1.0000
  H   H1770     1.0  0.34275  0.62128  0.69391  1.0000
  C   C1001     1.0  0.33278  0.61955  0.91544  1.0000
  C   C1002     1.0  0.36454  0.64351  0.79689  1.0000
  C   C1003     1.0  0.32907  0.63068  0.65366  1.0000
  C   C1004     1.0  0.32193  0.67265  0.51381  1.0000
  H   H1771     1.0  0.49309  0.54493  0.58916  1.0000
  H   H1772     1.0  0.28999  0.47229  0.51455  1.0000
  H   H1773     1.0  0.39545  0.38273  0.82348  1.0000
  C   C1005     1.0  0.33685  0.66401  0.82489  1.0000
  H   H1774     1.0  0.31545  0.61314  0.68681  1.0000
  H   H1775     1.0  0.39696  0.66694  0.87460  1.0000
  H   H1776     1.0  0.34235  0.58129  0.68719  1.0000
  C   C1006     1.0  0.39205  0.65868  0.91661  1.0000
  C   C1007     1.0  0.35889  0.37928  0.89463  1.0000
  H   H1777     1.0  0.38502  0.42226  0.82547  1.0000
  N   N56       1.0  0.32148  0.65435  0.65980  1.0000
  H   H1778     1.0  0.35562  0.65985  0.66767  1.0000
  C   C1008     1.0  0.35322  0.65103  0.77359  1.0000
  H   H1779     1.0  0.36486  0.39440  0.79885  1.0000
  S   S229      1.0  0.36336  0.64437  0.74107  1.0000
  C   C1009     1.0  0.49289  0.63662  0.65787  1.0000
  C   C1010     1.0  0.31971  0.66640  0.63338  1.0000
  H   H1780     1.0  0.36024  0.43060  0.84298  1.0000
  H   H1781     1.0  0.34706  0.41093  0.87797  1.0000
  H   H1782     1.0  0.38246  0.44418  0.87338  1.0000
  S   S230      1.0  0.29823  0.36926  0.84880  1.0000
  H   H1783     1.0  0.30608  0.35321  0.49543  1.0000
  C   C1011     1.0  0.46667  0.59077  0.89296  1.0000
  H   H1784     1.0  0.34372  0.38826  0.85689  1.0000
  N   N57       1.0  0.37642  0.39940  0.85568  1.0000
  C   C1012     1.0  0.35081  0.42673  0.78987  1.0000
  C   C1013     1.0  0.30400  0.65769  0.61179  1.0000
  C   C1014     1.0  0.27679  0.35165  0.84783  1.0000
  H   H1785     1.0  0.31714  0.62329  0.64004  1.0000
  H   H1786     1.0  0.35098  0.45696  0.54037  1.0000
  H   H1787     1.0  0.29722  0.35584  0.54387  1.0000
  H   H1788     1.0  0.40927  0.65014  0.82852  1.0000
  H   H1789     1.0  0.46053  0.55387  0.61413  1.0000
  C   C1015     1.0  0.48463  0.56823  0.80142  1.0000
  C   C1016     1.0  0.44259  0.51264  0.55209  1.0000
  H   H1790     1.0  0.45316  0.58594  0.81185  1.0000
  H   H1791     1.0  0.31657  0.46949  0.50048  1.0000
  H   H1792     1.0  0.49845  0.61403  0.78449  1.0000
  C   C1017     1.0  0.45709  0.52707  0.56844  1.0000
  H   H1793     1.0  0.30177  0.62441  0.89298  1.0000
  H   H1794     1.0  0.45307  0.52532  0.59001  1.0000
  H   H1795     1.0  0.40695  0.42543  0.92371  1.0000
  C   C1018     1.0  0.50048  0.61162  0.80665  1.0000
  H   H1796     1.0  0.29399  0.38228  0.52853  1.0000
  H   H1797     1.0  0.51247  0.63147  0.84042  1.0000
  H   H1798     1.0  0.32381  0.37570  0.89844  1.0000
  C   C1019     1.0  0.50777  0.56249  0.47889  1.0000
  H   H1799     1.0  0.36148  0.65791  0.89359  1.0000
  Fe  Fe118     1.0  0.42925  0.55956  0.47935  1.0000
  C   C1020     1.0  0.50170  0.55484  0.54879  1.0000
  H   H1800     1.0  0.49329  0.54288  0.53645  1.0000
  C   C1021     1.0  0.40578  0.65733  0.89092  1.0000
  H   H1801     1.0  0.30410  0.67139  0.71289  1.0000
  H   H1802     1.0  0.28779  0.65498  0.62051  1.0000
  C   C1022     1.0  0.28411  0.50444  0.80472  1.0000
  C   C1023     1.0  0.29988  0.67390  0.58879  1.0000
  H   H1803     1.0  0.27309  0.48443  0.56266  1.0000
  H   H1804     1.0  0.33659  0.67546  0.96104  1.0000
  H   H1805     1.0  0.26606  0.37089  0.78624  1.0000
  C   C1024     1.0  0.26623  0.36074  0.76753  1.0000
  H   H1806     1.0  0.26619  0.49945  0.53264  1.0000
  H   H1807     1.0  0.31085  0.64590  0.49118  1.0000
  C   C1025     1.0  0.51099  0.60076  0.96697  1.0000
  H   H1808     1.0  0.26995  0.36841  0.53635  1.0000
  H   H1809     1.0  0.51225  0.59677  0.80905  1.0000
  H   H1810     1.0  0.47944  0.58760  0.96446  1.0000
  C   C1026     1.0  0.49432  0.60707  0.47587  1.0000
  C   C1027     1.0  0.48520  0.56952  0.47930  1.0000
  H   H1811     1.0  0.50434  0.61710  0.96157  1.0000
  C   C1028     1.0  0.26494  0.51517  0.91720  1.0000
  H   H1812     1.0  0.46120  0.59755  0.47834  1.0000
  C   C1029     1.0  0.27399  0.50038  0.55287  1.0000
  H   H1813     1.0  0.26995  0.63769  0.70891  1.0000
  H   H1814     1.0  0.28949  0.67208  0.66742  1.0000
  H   H1815     1.0  0.41525  0.34393  0.82338  1.0000
  Fe  Fe119     1.0  0.38403  0.54118  0.47439  1.0000
  H   H1816     1.0  0.26417  0.36570  0.59373  1.0000
  H   H1817     1.0  0.48902  0.62435  0.47466  1.0000
  Fe  Fe120     1.0  0.26375  0.43918  0.88934  1.0000
  H   H1818     1.0  0.29425  0.00006  0.43112  1.0000
  C   C1030     1.0  0.34131  0.72027  0.17965  1.0000
  H   H1819     1.0  0.31194  0.93914  0.20644  1.0000
  H   H1820     1.0  0.37899  0.97984  0.20766  1.0000
  H   H1821     1.0  0.28974  0.71335  0.23115  1.0000
  H   H1822     1.0  0.28771  0.80934  0.45258  1.0000
  H   H1823     1.0  0.30063  0.96067  0.35917  1.0000
  C   C1031     1.0  0.36065  0.97847  0.15994  1.0000
  C   C1032     1.0  0.26535  0.86133  0.98065  1.0000
  H   H1824     1.0  0.27227  0.90585  0.41895  1.0000
  S   S231      1.0  0.28849  0.74597  0.32336  1.0000
  S   S232      1.0  0.26455  0.96814  0.28705  1.0000
  Fe  Fe121     1.0  0.29227  0.94825  0.09975  1.0000
  C   C1033     1.0  0.27146  0.82439  0.10073  1.0000
  S   S233      1.0  0.31954  0.97097  0.09877  1.0000
  H   H1825     1.0  0.29336  0.82841  0.25390  1.0000
  H   H1826     1.0  0.30983  0.68370  0.08804  1.0000
  S   S234      1.0  0.28790  0.92399  0.13283  1.0000
  H   H1827     1.0  0.34076  0.96378  0.00291  1.0000
  H   H1828     1.0  0.35047  0.98221  0.44542  1.0000
  Fe  Fe122     1.0  0.29662  0.71908  0.35313  1.0000
  H   H1829     1.0  0.29642  0.84819  0.35757  1.0000
  C   C1034     1.0  0.30556  0.69814  0.10135  1.0000
  C   C1035     1.0  0.33564  0.68409  0.27015  1.0000
  H   H1830     1.0  0.32512  0.96973  0.39880  1.0000
  H   H1831     1.0  0.26959  0.84418  0.21916  1.0000
  C   C1036     1.0  0.38624  0.97798  0.11989  1.0000
  C   C1037     1.0  0.33575  0.68577  0.13471  1.0000
  H   H1832     1.0  0.31077  0.90313  0.43089  1.0000
  S   S235      1.0  0.28494  0.86564  0.09689  1.0000
  H   H1833     1.0  0.36681  0.68730  0.38848  1.0000
  C   C1038     1.0  0.32583  0.94156  0.22054  1.0000
  H   H1834     1.0  0.27316  0.88136  0.29118  1.0000
  H   H1835     1.0  0.32812  0.90077  0.38619  1.0000
  C   C1039     1.0  0.27219  0.94573  0.97722  1.0000
  C   C1040     1.0  0.31137  0.99615  0.43869  1.0000
  H   H1836     1.0  0.33782  0.72593  0.15878  1.0000
  N   N58       1.0  0.27345  0.87733  0.44461  1.0000
  C   C1041     1.0  0.26772  0.82126  0.01800  1.0000
  H   H1837     1.0  0.30530  0.88765  0.37211  1.0000
  C   C1042     1.0  0.28026  0.88877  0.41956  1.0000
  C   C1043     1.0  0.27907  0.86933  0.17630  1.0000
  H   H1838     1.0  0.27284  0.87998  0.15939  1.0000
  C   C1044     1.0  0.28339  0.83050  0.27249  1.0000
  C   C1045     1.0  0.35539  0.99047  0.02261  1.0000
  C   C1046     1.0  0.34189  0.97310  0.02145  1.0000
  C   C1047     1.0  0.33022  0.96738  0.04433  1.0000
  C   C1048     1.0  0.33217  0.97883  0.06871  1.0000
  C   C1049     1.0  0.28046  0.94591  0.47279  1.0000
  C   C1050     1.0  0.33482  0.69672  0.18361  1.0000
  H   H1839     1.0  0.30360  0.88117  0.98218  1.0000
  H   H1840     1.0  0.32025  0.95372  0.04329  1.0000
  C   C1051     1.0  0.27263  0.85318  0.43914  1.0000
  H   H1841     1.0  0.28753  0.78432  0.19937  1.0000
  H   H1842     1.0  0.27235  0.95058  0.02035  1.0000
  H   H1843     1.0  0.33148  0.73139  0.22016  1.0000
  C   C1052     1.0  0.32851  0.73639  0.19887  1.0000
  H   H1844     1.0  0.31625  0.86547  0.00970  1.0000
  H   H1845     1.0  0.38965  0.99349  0.25395  1.0000
  H   H1846     1.0  0.26562  0.91315  0.25829  1.0000
  C   C1053     1.0  0.26609  0.87588  0.20184  1.0000
  H   H1847     1.0  0.27412  0.88068  0.40116  1.0000
  H   H1848     1.0  0.30768  0.80593  0.42594  1.0000
  H   H1849     1.0  0.31656  0.69784  0.18456  1.0000
  H   H1850     1.0  0.31953  0.95101  0.23854  1.0000
  H   H1851     1.0  0.28948  0.90207  0.23940  1.0000
  C   C1054     1.0  0.27122  0.77767  0.19798  1.0000
  H   H1852     1.0  0.29651  0.79738  0.01459  1.0000
  H   H1853     1.0  0.28706  0.80276  0.04875  1.0000
  Fe  Fe123     1.0  0.27597  0.90236  0.09970  1.0000
  H   H1854     1.0  0.28894  0.89981  0.47077  1.0000
  H   H1855     1.0  0.36632  0.96979  0.40266  1.0000
  H   H1856     1.0  0.32340  0.98474  0.21146  1.0000
  H   H1857     1.0  0.31511  0.70623  0.29563  1.0000
  H   H1858     1.0  0.29443  0.79811  0.28727  1.0000
  H   H1859     1.0  0.32126  0.97177  0.17967  1.0000
  H   H1860     1.0  0.39011  0.99654  0.15617  1.0000
  H   H1861     1.0  0.39162  0.97256  0.44221  1.0000
  S   S236      1.0  0.28418  0.92504  0.06670  1.0000
  H   H1862     1.0  0.26637  0.00173  0.00582  1.0000
  H   H1863     1.0  0.34807  0.97256  0.14589  1.0000
  H   H1864     1.0  0.29332  0.68121  0.39362  1.0000
  H   H1865     1.0  0.33008  0.00552  0.13329  1.0000
  H   H1866     1.0  0.27705  0.85211  0.17038  1.0000
  C   C1055     1.0  0.36960  0.98625  0.41043  1.0000
  N   N59       1.0  0.34342  0.67981  0.16296  1.0000
  H   H1867     1.0  0.31054  0.73717  0.19438  1.0000
  S   S237      1.0  0.37063  0.99649  0.99374  1.0000
  S   S238      1.0  0.27038  0.71667  0.04589  1.0000
  H   H1868     1.0  0.28764  0.70294  0.09920  1.0000
  H   H1869     1.0  0.34684  0.00560  0.08828  1.0000
  H   H1870     1.0  0.26790  0.80882  0.29960  1.0000
  H   H1871     1.0  0.31544  0.87536  0.41898  1.0000
  H   H1872     1.0  0.33025  0.69230  0.25177  1.0000
  H   H1873     1.0  0.39713  0.96379  0.12743  1.0000
  C   C1056     1.0  0.28288  0.88119  0.01843  1.0000
  H   H1874     1.0  0.29687  0.87131  0.17934  1.0000
  H   H1875     1.0  0.29816  0.94459  0.47029  1.0000
  H   H1876     1.0  0.27187  0.78644  0.02616  1.0000
  C   C1057     1.0  0.27481  0.71418  0.99108  1.0000
  H   H1877     1.0  0.33396  0.75299  0.19639  1.0000
  S   S239      1.0  0.29259  0.80204  0.36075  1.0000
  C   C1058     1.0  0.27238  0.71865  0.23325  1.0000
  C   C1059     1.0  0.26834  0.96376  0.23208  1.0000
  C   C1060     1.0  0.32700  0.69201  0.29501  1.0000
  H   H1878     1.0  0.28140  0.72201  0.44934  1.0000
  C   C1061     1.0  0.39197  0.98378  0.42485  1.0000
  S   S240      1.0  0.32396  0.69140  0.35070  1.0000
  C   C1062     1.0  0.34340  0.95354  0.20671  1.0000
  S   S241      1.0  0.29319  0.74161  0.38954  1.0000
  H   H1879     1.0  0.30835  0.99984  0.15558  1.0000
  H   H1880     1.0  0.27168  0.95971  0.18882  1.0000
  H   H1881     1.0  0.31291  0.97824  0.44278  1.0000
  H   H1882     1.0  0.28978  0.94644  0.97544  1.0000
  C   C1063     1.0  0.34526  0.99652  0.06965  1.0000
  C   C1064     1.0  0.27873  0.87986  0.26984  1.0000
  C   C1065     1.0  0.28163  0.90302  0.25947  1.0000
  S   S242      1.0  0.27789  0.95162  0.41808  1.0000
  H   H1883     1.0  0.37458  0.67648  0.18471  1.0000
  C   C1066     1.0  0.31017  0.89925  0.38795  1.0000
  H   H1884     1.0  0.33314  0.92527  0.22728  1.0000
  C   C1067     1.0  0.29670  0.91483  0.27835  1.0000
  H   H1885     1.0  0.29623  0.83784  0.00864  1.0000
  C   C1068     1.0  0.36733  0.99466  0.20437  1.0000
  H   H1886     1.0  0.28585  0.88117  0.04064  1.0000
  H   H1887     1.0  0.35032  0.94277  0.19012  1.0000
  H   H1888     1.0  0.29195  0.85967  0.22694  1.0000
  H   H1889     1.0  0.33395  0.89938  0.00240  1.0000
  H   H1890     1.0  0.30125  0.91560  0.38461  1.0000
  C   C1069     1.0  0.29485  0.83965  0.43338  1.0000
  H   H1891     1.0  0.37310  0.97187  0.10693  1.0000
  H   H1892     1.0  0.29560  0.87122  0.27097  1.0000
  H   H1893     1.0  0.27432  0.89754  0.01417  1.0000
  C   C1070     1.0  0.28856  0.88180  0.46799  1.0000
  H   H1894     1.0  0.27338  0.98894  0.05227  1.0000
  C   C1071     1.0  0.26653  0.94976  0.45035  1.0000
  N   N60       1.0  0.26876  0.86309  0.01078  1.0000
  C   C1072     1.0  0.27916  0.84570  0.35513  1.0000
  H   H1895     1.0  0.40896  0.67831  0.13625  1.0000
  H   H1896     1.0  0.32153  0.89947  0.03520  1.0000
  C   C1073     1.0  0.26957  0.72219  0.46548  1.0000
  C   C1074     1.0  0.30106  0.97788  0.35272  1.0000
  H   H1897     1.0  0.30822  0.98750  0.97748  1.0000
  H   H1898     1.0  0.31336  0.90581  0.27958  1.0000
  H   H1899     1.0  0.29841  0.93146  0.27067  1.0000
  H   H1900     1.0  0.28958  0.91660  0.29885  1.0000
  H   H1901     1.0  0.30749  0.84219  0.44903  1.0000
  H   H1902     1.0  0.29259  0.68027  0.44025  1.0000
  C   C1075     1.0  0.37624  0.99169  0.14348  1.0000
  H   H1903     1.0  0.28177  0.68107  0.28089  1.0000
  H   H1904     1.0  0.29231  0.71408  0.99509  1.0000
  H   H1905     1.0  0.29356  0.83761  0.28850  1.0000
  H   H1906     1.0  0.32853  0.68477  0.46151  1.0000
  H   H1907     1.0  0.40492  0.97698  0.41066  1.0000
  C   C1076     1.0  0.27430  0.00640  0.04723  1.0000
  H   H1908     1.0  0.26855  0.88010  0.35111  1.0000
  H   H1909     1.0  0.37085  0.96348  0.16649  1.0000
  C   C1077     1.0  0.31091  0.69276  0.13080  1.0000
  Fe  Fe124     1.0  0.28148  0.76775  0.35969  1.0000
  H   H1910     1.0  0.30587  0.87555  0.46380  1.0000
  H   H1911     1.0  0.30098  0.84400  0.41335  1.0000
  H   H1912     1.0  0.28603  0.84338  0.04174  1.0000
  C   C1078     1.0  0.30241  0.99301  0.37732  1.0000
  H   H1913     1.0  0.28582  0.98271  0.34096  1.0000
  H   H1914     1.0  0.32968  0.68365  0.41195  1.0000
  H   H1915     1.0  0.39622  0.98810  0.10734  1.0000
  H   H1916     1.0  0.28861  0.81878  0.09741  1.0000
  C   C1079     1.0  0.28172  0.80077  0.02744  1.0000
  H   H1917     1.0  0.35664  0.95560  0.22177  1.0000
  H   H1918     1.0  0.33747  0.98838  0.37812  1.0000
  H   H1919     1.0  0.28777  0.99120  0.38984  1.0000
  H   H1920     1.0  0.30823  0.91564  0.00827  1.0000
  C   C1080     1.0  0.28080  0.84181  0.02020  1.0000
  C   C1081     1.0  0.27263  0.82439  0.35563  1.0000
  H   H1921     1.0  0.30089  0.67946  0.13640  1.0000
  C   C1082     1.0  0.29201  0.81518  0.43240  1.0000
  C   C1083     1.0  0.35093  0.99515  0.42989  1.0000
  H   H1922     1.0  0.35913  0.72102  0.18411  1.0000
  H   H1923     1.0  0.30584  0.70769  0.14280  1.0000
  H   H1924     1.0  0.31451  0.71202  0.09466  1.0000
  H   H1925     1.0  0.34486  0.69922  0.12690  1.0000
  H   H1926     1.0  0.34071  0.69156  0.20410  1.0000
  C   C1084     1.0  0.27871  0.80773  0.28166  1.0000
  H   H1927     1.0  0.28379  0.97087  0.23471  1.0000
  N   N61       1.0  0.34972  0.99015  0.18393  1.0000
  H   H1928     1.0  0.27894  0.81163  0.41762  1.0000
  C   C1085     1.0  0.31800  0.89997  0.01317  1.0000
  C   C1086     1.0  0.32430  0.98732  0.39316  1.0000
  C   C1087     1.0  0.33342  0.97582  0.19543  1.0000
  C   C1088     1.0  0.30526  0.89103  0.41599  1.0000
  H   H1929     1.0  0.31535  0.97899  0.33925  1.0000
  C   C1089     1.0  0.35902  0.00354  0.23226  1.0000
  N   N62       1.0  0.32812  0.00116  0.41791  1.0000
  H   H1930     1.0  0.29178  0.00870  0.04281  1.0000
  C   C1090     1.0  0.27359  0.86077  0.22584  1.0000
  S   S243      1.0  0.26952  0.71347  0.17843  1.0000
  C   C1091     1.0  0.35677  0.00235  0.04674  1.0000
  H   H1931     1.0  0.34974  0.99148  0.24267  1.0000
  H   H1932     1.0  0.37394  0.69461  0.15696  1.0000
  H   H1933     1.0  0.27439  0.72261  0.27645  1.0000
  H   H1934     1.0  0.26804  0.89331  0.20629  1.0000
  H   H1935     1.0  0.39640  0.99992  0.43233  1.0000
  C   C1092     1.0  0.26493  0.84692  0.10173  1.0000
  C   C1093     1.0  0.33394  0.68164  0.31898  1.0000
  C   C1094     1.0  0.30562  0.88049  0.00443  1.0000
  H   H1936     1.0  0.26722  0.00925  0.16369  1.0000
  C   C1095     1.0  0.31263  0.00854  0.46615  1.0000
  H   H1937     1.0  0.37101  0.99710  0.39302  1.0000
  H   H1938     1.0  0.27083  0.76729  0.17946  1.0000
  H   H1939     1.0  0.27072  0.79883  0.26521  1.0000
  H   H1940     1.0  0.26934  0.76735  0.21590  1.0000
  H   H1941     1.0  0.35679  0.00941  0.44104  1.0000
  C   C1096     1.0  0.36832  0.67884  0.16360  1.0000
  H   H1942     1.0  0.36413  0.67669  0.43694  1.0000
  N   N63       1.0  0.26374  0.86657  0.25336  1.0000
  C   C1097     1.0  0.26374  0.72405  0.25890  1.0000
  H   H1943     1.0  0.37781  0.00694  0.19650  1.0000
  H   H1944     1.0  0.36735  0.00671  0.13511  1.0000
  H   H1945     1.0  0.26441  0.84547  0.45595  1.0000
  C   C1098     1.0  0.37830  0.00847  0.25061  1.0000
  H   H1946     1.0  0.27582  0.87734  0.92979  1.0000
  H   H1947     1.0  0.32603  0.71541  0.95296  1.0000
  Fe  Fe125     1.0  0.29721  0.69732  0.85772  1.0000
  C   C1099     1.0  0.30113  0.87499  0.51636  1.0000
  C   C1100     1.0  0.33609  0.68928  0.68047  1.0000
  H   H1948     1.0  0.32463  0.69017  0.51157  1.0000
  H   H1949     1.0  0.39684  0.98511  0.93421  1.0000
  H   H1950     1.0  0.31564  0.67673  0.57895  1.0000
  C   C1101     1.0  0.28575  0.83875  0.76475  1.0000
  N   N64       1.0  0.27278  0.77751  0.75646  1.0000
  H   H1951     1.0  0.45171  0.98890  0.89849  1.0000
  C   C1102     1.0  0.34268  0.69206  0.92459  1.0000
  Fe  Fe126     1.0  0.30178  0.94590  0.59713  1.0000
  H   H1952     1.0  0.30461  0.93420  0.86562  1.0000
  S   S244      1.0  0.32818  0.96983  0.59707  1.0000
  C   C1103     1.0  0.27156  0.94352  0.49851  1.0000
  H   H1953     1.0  0.36770  0.69083  0.70124  1.0000
  S   S245      1.0  0.29658  0.92402  0.63244  1.0000
  C   C1104     1.0  0.27223  0.78295  0.67798  1.0000
  H   H1954     1.0  0.29785  0.75150  0.53307  1.0000
  H   H1955     1.0  0.31878  0.98113  0.69098  1.0000
  H   H1956     1.0  0.29618  0.75750  0.93799  1.0000
  H   H1957     1.0  0.28852  0.74641  0.76954  1.0000
  C   C1105     1.0  0.27006  0.93391  0.70711  1.0000
  C   C1106     1.0  0.28841  0.87402  0.67949  1.0000
  H   H1958     1.0  0.39396  0.96024  0.64438  1.0000
  C   C1107     1.0  0.30694  0.96888  0.87398  1.0000
  H   H1959     1.0  0.36470  0.67923  0.95655  1.0000
  H   H1960     1.0  0.32970  0.00776  0.47426  1.0000
  H   H1961     1.0  0.29465  0.70804  0.73215  1.0000
  H   H1962     1.0  0.28093  0.99942  0.48035  1.0000
  H   H1963     1.0  0.28242  0.94067  0.51569  1.0000
  H   H1964     1.0  0.32106  0.94752  0.84167  1.0000
  H   H1965     1.0  0.28216  0.93156  0.69132  1.0000
  H   H1966     1.0  0.32786  0.94943  0.90226  1.0000
  H   H1967     1.0  0.26684  0.84907  0.67203  1.0000
  H   H1968     1.0  0.31235  0.96447  0.94183  1.0000
  C   C1108     1.0  0.27817  0.82267  0.60808  1.0000
  C   C1109     1.0  0.37168  0.96760  0.91390  1.0000
  H   H1969     1.0  0.34134  0.69732  0.66198  1.0000
  Fe  Fe127     1.0  0.28517  0.90016  0.60140  1.0000
  C   C1110     1.0  0.28268  0.87262  0.49571  1.0000
  S   S246      1.0  0.29440  0.92032  0.56628  1.0000
  C   C1111     1.0  0.31145  0.99708  0.95928  1.0000
  C   C1112     1.0  0.36226  0.99385  0.52202  1.0000
  C   C1113     1.0  0.28891  0.76415  0.77441  1.0000
  C   C1114     1.0  0.35316  0.99716  0.56962  1.0000
  C   C1115     1.0  0.34028  0.97934  0.56755  1.0000
  C   C1116     1.0  0.33801  0.96914  0.54240  1.0000
  C   C1117     1.0  0.34910  0.97627  0.51981  1.0000
  C   C1118     1.0  0.29836  0.99903  0.48736  1.0000
  H   H1970     1.0  0.37426  0.97544  0.89436  1.0000
  H   H1971     1.0  0.32819  0.95541  0.54051  1.0000
  H   H1972     1.0  0.34768  0.96796  0.50059  1.0000
  H   H1973     1.0  0.28322  0.75568  0.72338  1.0000
  C   C1119     1.0  0.38516  0.99414  0.65694  1.0000
  C   C1120     1.0  0.31437  0.98427  0.66953  1.0000
  H   H1974     1.0  0.28468  0.79503  0.67760  1.0000
  H   H1975     1.0  0.29425  0.71651  0.49676  1.0000
  H   H1976     1.0  0.26759  0.88191  0.50379  1.0000
  C   C1121     1.0  0.27213  0.84521  0.60619  1.0000
  C   C1122     1.0  0.26906  0.77965  0.92228  1.0000
  H   H1977     1.0  0.29590  0.86986  0.53655  1.0000
  H   H1978     1.0  0.34851  0.71492  0.70522  1.0000
  H   H1979     1.0  0.30382  0.76247  0.56590  1.0000
  H   H1980     1.0  0.28795  0.89209  0.68096  1.0000
  H   H1981     1.0  0.27873  0.79160  0.50604  1.0000
  C   C1123     1.0  0.44812  0.00601  0.90585  1.0000
  C   C1124     1.0  0.28946  0.98367  0.66635  1.0000
  H   H1982     1.0  0.32230  0.97068  0.65700  1.0000
  H   H1983     1.0  0.39062  0.99081  0.67802  1.0000
  S   S247      1.0  0.29298  0.86322  0.60264  1.0000
  H   H1984     1.0  0.29197  0.68980  0.59643  1.0000
  C   C1125     1.0  0.27503  0.77900  0.54634  1.0000
  C   C1126     1.0  0.26523  0.86711  0.67465  1.0000
  C   C1127     1.0  0.30608  0.94953  0.85438  1.0000
  C   C1128     1.0  0.35172  0.97917  0.92931  1.0000
  S   S248      1.0  0.27591  0.71745  0.67995  1.0000
  S   S249      1.0  0.29127  0.72275  0.89071  1.0000
  C   C1129     1.0  0.27688  0.70914  0.73389  1.0000
  C   C1130     1.0  0.27662  0.82320  0.85735  1.0000
  H   H1985     1.0  0.27628  0.79407  0.55854  1.0000
  H   H1986     1.0  0.28110  0.85523  0.97072  1.0000
  H   H1987     1.0  0.30997  0.68123  0.80318  1.0000
  C   C1131     1.0  0.27955  0.77356  0.72742  1.0000
  H   H1988     1.0  0.41582  0.97796  0.64160  1.0000
  H   H1989     1.0  0.35711  0.97665  0.66302  1.0000
  H   H1990     1.0  0.32678  0.68891  0.91493  1.0000
  N   N65       1.0  0.32994  0.98317  0.91413  1.0000
  H   H1991     1.0  0.36897  0.95018  0.90998  1.0000
  H   H1992     1.0  0.35497  0.00532  0.58881  1.0000
  H   H1993     1.0  0.40691  0.95918  0.91934  1.0000
  H   H1994     1.0  0.39348  0.97985  0.61738  1.0000
  H   H1995     1.0  0.30417  0.77731  0.91438  1.0000
  H   H1996     1.0  0.31859  0.00750  0.63802  1.0000
  H   H1997     1.0  0.34429  0.69049  0.72332  1.0000
  H   H1998     1.0  0.34994  0.96896  0.94748  1.0000
  H   H1999     1.0  0.29544  0.81661  0.60760  1.0000
  C   C1132     1.0  0.27631  0.92948  0.73403  1.0000
  H   H2000     1.0  0.29395  0.82579  0.85815  1.0000
  H   H2001     1.0  0.29573  0.86674  0.69830  1.0000
  H   H2002     1.0  0.30992  0.77728  0.53615  1.0000
  C   C1133     1.0  0.39781  0.97695  0.63896  1.0000
  H   H2003     1.0  0.27778  0.70212  0.77624  1.0000
  H   H2004     1.0  0.34185  0.96442  0.87873  1.0000
  H   H2005     1.0  0.29698  0.78584  0.94833  1.0000
  H   H2006     1.0  0.32297  0.75414  0.81194  1.0000
  H   H2007     1.0  0.31867  0.69517  0.68430  1.0000
  H   H2008     1.0  0.30725  0.98385  0.86175  1.0000
  C   C1134     1.0  0.27029  0.80191  0.85492  1.0000
  H   H2009     1.0  0.27864  0.71171  0.94785  1.0000
  H   H2010     1.0  0.29616  0.84949  0.75369  1.0000
  S   S250      1.0  0.28903  0.72113  0.82450  1.0000
  H   H2011     1.0  0.35517  0.69272  0.90858  1.0000
  C   C1135     1.0  0.26711  0.71283  0.96434  1.0000
  C   C1136     1.0  0.27100  0.80142  0.76485  1.0000
  H   H2012     1.0  0.35700  0.99487  0.93745  1.0000
  H   H2013     1.0  0.28119  0.81910  0.72946  1.0000
  C   C1137     1.0  0.36402  0.00445  0.54697  1.0000
  C   C1138     1.0  0.32156  0.00655  0.66026  1.0000
  H   H2014     1.0  0.39139  0.95992  0.95019  1.0000
  H   H2015     1.0  0.26705  0.79062  0.61167  1.0000
  C   C1139     1.0  0.29305  0.77476  0.93144  1.0000
  H   H2016     1.0  0.29146  0.95232  0.84085  1.0000
  C   C1140     1.0  0.39298  0.96799  0.93047  1.0000
  S   S251      1.0  0.29064  0.77956  0.85367  1.0000
  S   S252      1.0  0.27122  0.71378  0.54662  1.0000
  H   H2017     1.0  0.31628  0.86455  0.51058  1.0000
  H   H2018     1.0  0.29519  0.78062  0.72308  1.0000
  H   H2019     1.0  0.26862  0.84671  0.76530  1.0000
  H   H2020     1.0  0.28409  0.76621  0.79594  1.0000
  H   H2021     1.0  0.35597  0.99135  0.63246  1.0000
  H   H2022     1.0  0.28048  0.99561  0.68029  1.0000
  C   C1141     1.0  0.32746  0.00585  0.90262  1.0000
  H   H2023     1.0  0.27371  0.80295  0.78708  1.0000
  H   H2024     1.0  0.30500  0.89228  0.51787  1.0000
  C   C1142     1.0  0.32766  0.96577  0.89264  1.0000
  H   H2025     1.0  0.37444  0.00505  0.74386  1.0000
  H   H2026     1.0  0.29898  0.00870  0.50640  1.0000
  S   S253      1.0  0.27214  0.93918  0.92241  1.0000
  C   C1143     1.0  0.29808  0.76683  0.54515  1.0000
  H   H2027     1.0  0.33489  0.72721  0.92231  1.0000
  C   C1144     1.0  0.31320  0.76953  0.77371  1.0000
  C   C1145     1.0  0.32802  0.75327  0.79045  1.0000
  H   H2028     1.0  0.28009  0.76659  0.67185  1.0000
  H   H2029     1.0  0.30382  0.80923  0.75061  1.0000
  H   H2030     1.0  0.29136  0.97014  0.88540  1.0000
  H   H2031     1.0  0.29324  0.92373  0.73872  1.0000
  H   H2032     1.0  0.35496  0.71885  0.94794  1.0000
  Fe  Fe128     1.0  0.27977  0.74556  0.85726  1.0000
  H   H2033     1.0  0.28495  0.96712  0.67118  1.0000
  H   H2034     1.0  0.31976  0.76885  0.75294  1.0000
  H   H2035     1.0  0.31463  0.78599  0.78271  1.0000
  H   H2036     1.0  0.32723  0.73631  0.78266  1.0000
  H   H2037     1.0  0.34538  0.75732  0.78941  1.0000
  H   H2038     1.0  0.28009  0.85504  0.49425  1.0000
  C   C1146     1.0  0.28645  0.81636  0.75074  1.0000
  C   C1147     1.0  0.26578  0.78416  0.51759  1.0000
  S   S254      1.0  0.37655  0.00173  0.49331  1.0000
  H   H2039     1.0  0.34446  0.99821  0.86396  1.0000
  H   H2040     1.0  0.29918  0.86835  0.66237  1.0000
  C   C1148     1.0  0.31160  0.98151  0.93412  1.0000
  H   H2041     1.0  0.29218  0.83705  0.78576  1.0000
  H   H2042     1.0  0.26665  0.79699  0.91599  1.0000
  C   C1149     1.0  0.27679  0.71906  0.49233  1.0000
  S   S255      1.0  0.26723  0.96225  0.59809  1.0000
  C   C1150     1.0  0.35005  0.69678  0.70400  1.0000
  C   C1151     1.0  0.35999  0.99269  0.65430  1.0000
  H   H2043     1.0  0.30469  0.98190  0.49179  1.0000
  C   C1152     1.0  0.33947  0.71473  0.93790  1.0000
  H   H2044     1.0  0.29513  0.98400  0.92430  1.0000
  H   H2045     1.0  0.26658  0.76902  0.90445  1.0000
  H   H2046     1.0  0.35178  0.99446  0.70490  1.0000
  H   H2047     1.0  0.28419  0.98736  0.64528  1.0000
  C   C1153     1.0  0.26735  0.70613  0.75902  1.0000
  H   H2048     1.0  0.31365  0.68388  0.63696  1.0000
  H   H2049     1.0  0.26565  0.85752  0.86117  1.0000
  S   S256      1.0  0.27019  0.92850  0.78863  1.0000
  H   H2050     1.0  0.26818  0.99375  0.55079  1.0000
  H   H2051     1.0  0.26431  0.89681  0.97210  1.0000
  H   H2052     1.0  0.26499  0.82345  0.53093  1.0000
  H   H2053     1.0  0.32739  0.00387  0.96311  1.0000
  H   H2054     1.0  0.26431  0.76837  0.55703  1.0000
  H   H2055     1.0  0.26401  0.76794  0.50797  1.0000
  H   H2056     1.0  0.45356  0.00690  0.92728  1.0000
  Fe  Fe129     1.0  0.75483  0.21193  0.11209  1.0000
  S   S257      1.0  0.74012  0.23955  0.08627  1.0000
  C   C1154     1.0  0.55712  0.05122  0.03232  1.0000
  C   C1155     1.0  0.65412  0.01962  0.45286  1.0000
  C   C1156     1.0  0.66104  0.21537  0.99992  1.0000
  C   C1157     1.0  0.73640  0.32196  0.34540  1.0000
  H   H2057     1.0  0.74532  0.31336  0.46810  1.0000
  S   S258      1.0  0.72675  0.21214  0.01591  1.0000
  H   H2058     1.0  0.65960  0.01882  0.30698  1.0000
  S   S259      1.0  0.73664  0.20116  0.14859  1.0000
  C   C1158     1.0  0.59146  0.02929  0.01446  1.0000
  C   C1159     1.0  0.66770  0.02332  0.37706  1.0000
  Fe  Fe130     1.0  0.72243  0.26738  0.34176  1.0000
  C   C1160     1.0  0.76296  0.20376  0.98317  1.0000
  C   C1161     1.0  0.52170  0.10066  0.46950  1.0000
  Fe  Fe131     1.0  0.70333  0.22278  0.34052  1.0000
  S   S260      1.0  0.73683  0.20446  0.33582  1.0000
  S   S261      1.0  0.67426  0.20219  0.34115  1.0000
  Fe  Fe132     1.0  0.74708  0.22772  0.36777  1.0000
  Fe  Fe133     1.0  0.74962  0.21734  0.05100  1.0000
  Fe  Fe134     1.0  0.74292  0.23042  0.30581  1.0000
  C   C1162     1.0  0.72603  0.22587  0.46438  1.0000
  S   S262      1.0  0.71337  0.24462  0.37412  1.0000
  S   S263      1.0  0.70868  0.24737  0.30822  1.0000
  Fe  Fe135     1.0  0.62014  0.13542  0.45273  1.0000
  S   S264      1.0  0.63939  0.10232  0.45252  1.0000
  S   S265      1.0  0.63976  0.16525  0.45105  1.0000
  N   N66       1.0  0.72433  0.28417  0.17141  1.0000
  C   C1163     1.0  0.75793  0.22104  0.43512  1.0000
  C   C1164     1.0  0.55263  0.09103  0.03615  1.0000
  Fe  Fe136     1.0  0.61591  0.08939  0.98304  1.0000
  S   S266      1.0  0.63385  0.07319  0.01880  1.0000
  Fe  Fe137     1.0  0.61216  0.09264  0.42531  1.0000
  S   S267      1.0  0.62007  0.06959  0.39008  1.0000
  H   H2059     1.0  0.71199  0.32113  0.40617  1.0000
  S   S268      1.0  0.59386  0.12614  0.42362  1.0000
  Fe  Fe138     1.0  0.60589  0.08069  0.17385  1.0000
  S   S269      1.0  0.60344  0.10234  0.13697  1.0000
  Fe  Fe139     1.0  0.60465  0.08288  0.23601  1.0000
  H   H2060     1.0  0.70830  0.22752  0.46678  1.0000
  S   S270      1.0  0.60573  0.10612  0.27160  1.0000
  Fe  Fe140     1.0  0.57489  0.05434  0.20502  1.0000
  H   H2061     1.0  0.73957  0.29938  0.26463  1.0000
  S   S271      1.0  0.63224  0.07733  0.20616  1.0000
  S   S272      1.0  0.57913  0.09001  0.20363  1.0000
  C   C1165     1.0  0.76010  0.32259  0.24723  1.0000
  H   H2062     1.0  0.71327  0.18337  0.46679  1.0000
  S   S273      1.0  0.65241  0.01503  0.20826  1.0000
  S   S274      1.0  0.53930  0.12194  0.46807  1.0000
  C   C1166     1.0  0.53961  0.11263  0.04605  1.0000
  H   H2063     1.0  0.53703  0.08708  0.22155  1.0000
  H   H2064     1.0  0.71047  0.04940  0.15317  1.0000
  S   S275      1.0  0.60043  0.04514  0.17341  1.0000
  H   H2065     1.0  0.72224  0.16212  0.06087  1.0000
  C   C1167     1.0  0.74693  0.27757  0.16011  1.0000
  H   H2066     1.0  0.65015  0.15042  0.99244  1.0000
  H   H2067     1.0  0.54050  0.14780  0.04342  1.0000
  S   S276      1.0  0.59851  0.04761  0.23974  1.0000
  C   C1168     1.0  0.61455  0.07959  0.35730  1.0000
  C   C1169     1.0  0.60792  0.10168  0.35300  1.0000
  C   C1170     1.0  0.60444  0.10943  0.32665  1.0000
  C   C1171     1.0  0.60789  0.09526  0.30437  1.0000
  C   C1172     1.0  0.61412  0.07307  0.30867  1.0000
  C   C1173     1.0  0.61737  0.06525  0.33507  1.0000
  H   H2068     1.0  0.60567  0.11288  0.36988  1.0000
  H   H2069     1.0  0.59907  0.12650  0.32356  1.0000
  H   H2070     1.0  0.61681  0.06197  0.29169  1.0000
  H   H2071     1.0  0.62227  0.04808  0.33821  1.0000
  C   C1174     1.0  0.62526  0.08129  0.05162  1.0000
  C   C1175     1.0  0.63178  0.06791  0.07357  1.0000
  C   C1176     1.0  0.62482  0.07386  0.09989  1.0000
  C   C1177     1.0  0.61169  0.09346  0.10437  1.0000
  C   C1178     1.0  0.60527  0.10684  0.08243  1.0000
  C   C1179     1.0  0.61200  0.10079  0.05616  1.0000
  H   H2072     1.0  0.64223  0.05293  0.07015  1.0000
  H   H2073     1.0  0.62991  0.06360  0.11681  1.0000
  H   H2074     1.0  0.59503  0.12196  0.08586  1.0000
  H   H2075     1.0  0.60709  0.11134  0.03950  1.0000
  C   C1180     1.0  0.66439  0.19252  0.37187  1.0000
  C   C1181     1.0  0.64950  0.17637  0.37120  1.0000
  C   C1182     1.0  0.64187  0.16781  0.39523  1.0000
  C   C1183     1.0  0.64852  0.17586  0.42023  1.0000
  C   C1184     1.0  0.66267  0.19271  0.42085  1.0000
  C   C1185     1.0  0.67092  0.20069  0.39685  1.0000
  H   H2076     1.0  0.64384  0.17042  0.35202  1.0000
  H   H2077     1.0  0.63069  0.15513  0.39438  1.0000
  H   H2078     1.0  0.66739  0.19963  0.43993  1.0000
  H   H2079     1.0  0.68208  0.21335  0.39769  1.0000
  H   H2080     1.0  0.70048  0.14318  0.00355  1.0000
  H   H2081     1.0  0.72903  0.03679  0.17822  1.0000
  H   H2082     1.0  0.67305  0.02151  0.16007  1.0000
  H   H2083     1.0  0.76002  0.14369  0.13084  1.0000
  H   H2084     1.0  0.67509  0.04926  0.98779  1.0000
  C   C1186     1.0  0.73505  0.22296  0.43850  1.0000
  H   H2085     1.0  0.68007  0.18789  0.98252  1.0000
  H   H2086     1.0  0.62148  0.03612  0.46062  1.0000
  H   H2087     1.0  0.72382  0.01861  0.25539  1.0000
  H   H2088     1.0  0.72426  0.22183  0.42128  1.0000
  C   C1187     1.0  0.74394  0.20927  0.18162  1.0000
  C   C1188     1.0  0.73001  0.20569  0.20324  1.0000
  C   C1189     1.0  0.73561  0.21162  0.22983  1.0000
  C   C1190     1.0  0.76315  0.31183  0.99298  1.0000
  H   H2089     1.0  0.66323  0.14014  0.02210  1.0000
  H   H2090     1.0  0.71090  0.28465  0.13079  1.0000
  H   H2091     1.0  0.71489  0.19819  0.19942  1.0000
  H   H2092     1.0  0.72486  0.20867  0.24635  1.0000
  H   H2093     1.0  0.66946  0.05836  0.38644  1.0000
  H   H2094     1.0  0.75049  0.27141  0.47172  1.0000
  H   H2095     1.0  0.57039  0.09292  0.03957  1.0000
  H   H2096     1.0  0.72081  0.24501  0.14002  1.0000
  H   H2097     1.0  0.56047  0.06458  0.13244  1.0000
  H   H2098     1.0  0.68224  0.19586  0.04252  1.0000
  H   H2099     1.0  0.68764  0.06782  0.34485  1.0000
  C   C1191     1.0  0.56504  0.04947  0.12040  1.0000
  C   C1192     1.0  0.76020  0.29786  0.41757  1.0000
  C   C1193     1.0  0.63843  0.03530  0.46929  1.0000
  H   H2100     1.0  0.73083  0.28630  0.40131  1.0000
  H   H2101     1.0  0.58800  0.06395  0.02024  1.0000
  H   H2102     1.0  0.53108  0.09857  0.16669  1.0000
  H   H2103     1.0  0.64410  0.05197  0.46960  1.0000
  C   C1194     1.0  0.67981  0.05227  0.34572  1.0000
  C   C1195     1.0  0.65654  0.01771  0.26366  1.0000
  H   H2104     1.0  0.68632  0.14658  0.05485  1.0000
  H   H2105     1.0  0.69869  0.02420  0.42054  1.0000
  Fe  Fe141     1.0  0.57609  0.11549  0.46024  1.0000
  C   C1196     1.0  0.67885  0.04496  0.37501  1.0000
  H   H2106     1.0  0.71972  0.31839  0.13395  1.0000
  H   H2107     1.0  0.65976  0.26903  0.40236  1.0000
  H   H2108     1.0  0.76246  0.28701  0.02407  1.0000
  C   C1197     1.0  0.55181  0.04937  0.09409  1.0000
  H   H2109     1.0  0.66297  0.05500  0.33695  1.0000
  N   N67       1.0  0.67477  0.13544  0.29593  1.0000
  C   C1198     1.0  0.66645  0.11584  0.28180  1.0000
  C   C1199     1.0  0.65891  0.15564  0.29144  1.0000
  C   C1200     1.0  0.69640  0.13951  0.28312  1.0000
  C   C1201     1.0  0.67897  0.13162  0.32571  1.0000
  C   C1202     1.0  0.66104  0.12097  0.34161  1.0000
  C   C1203     1.0  0.68217  0.09442  0.28270  1.0000
  C   C1204     1.0  0.70671  0.16051  0.29282  1.0000
  C   C1205     1.0  0.63399  0.15263  0.29006  1.0000
  C   C1206     1.0  0.61997  0.17462  0.29085  1.0000
  C   C1207     1.0  0.66858  0.11616  0.37063  1.0000
  C   C1208     1.0  0.67038  0.07459  0.27389  1.0000
  C   C1209     1.0  0.72818  0.16305  0.27795  1.0000
  H   H2110     1.0  0.66286  0.11956  0.26015  1.0000
  H   H2111     1.0  0.65036  0.11221  0.29004  1.0000
  H   H2112     1.0  0.66140  0.16830  0.30710  1.0000
  H   H2113     1.0  0.66231  0.16340  0.27190  1.0000
  H   H2114     1.0  0.69433  0.14042  0.26076  1.0000
  H   H2115     1.0  0.70913  0.12565  0.28689  1.0000
  H   H2116     1.0  0.69474  0.12121  0.32884  1.0000
  H   H2117     1.0  0.68149  0.14731  0.33632  1.0000
  H   H2118     1.0  0.65721  0.10517  0.33249  1.0000
  H   H2119     1.0  0.64573  0.13208  0.34279  1.0000
  H   H2120     1.0  0.69616  0.09550  0.26876  1.0000
  H   H2121     1.0  0.68889  0.09127  0.30327  1.0000
  H   H2122     1.0  0.71050  0.15986  0.31476  1.0000
  H   H2123     1.0  0.69546  0.17546  0.28901  1.0000
  H   H2124     1.0  0.63011  0.14426  0.27083  1.0000
  H   H2125     1.0  0.62889  0.14284  0.30685  1.0000
  H   H2126     1.0  0.62406  0.18491  0.27371  1.0000
  H   H2127     1.0  0.60225  0.17181  0.28933  1.0000
  H   H2128     1.0  0.62271  0.18347  0.31011  1.0000
  H   H2129     1.0  0.67279  0.13132  0.38113  1.0000
  H   H2130     1.0  0.65505  0.10946  0.38182  1.0000
  H   H2131     1.0  0.68318  0.10390  0.37096  1.0000
  H   H2132     1.0  0.65695  0.07198  0.28809  1.0000
  H   H2133     1.0  0.66328  0.07690  0.25331  1.0000
  H   H2134     1.0  0.68219  0.05965  0.27374  1.0000
  H   H2135     1.0  0.72518  0.16393  0.25582  1.0000
  H   H2136     1.0  0.73497  0.17843  0.28454  1.0000
  H   H2137     1.0  0.74066  0.14915  0.28235  1.0000
  H   H2138     1.0  0.69655  0.32773  0.43595  1.0000
  C   C1210     1.0  0.66412  0.19045  0.99328  1.0000
  H   H2139     1.0  0.55048  0.09027  0.01383  1.0000
  C   C1211     1.0  0.52167  0.09566  0.14786  1.0000
  H   H2140     1.0  0.55049  0.05207  0.01131  1.0000
  H   H2141     1.0  0.70981  0.15718  0.09279  1.0000
  C   C1212     1.0  0.52924  0.07887  0.46387  1.0000
  H   H2142     1.0  0.68015  0.10940  0.99513  1.0000
  H   H2143     1.0  0.64407  0.19445  0.04664  1.0000
  H   H2144     1.0  0.72713  0.17722  0.42008  1.0000
  H   H2145     1.0  0.66327  0.04377  0.42534  1.0000
  C   C1213     1.0  0.73102  0.30350  0.46828  1.0000
  S   S277      1.0  0.76116  0.18885  0.07686  1.0000
  S   S278      1.0  0.75683  0.25177  0.33762  1.0000
  C   C1214     1.0  0.75532  0.22096  0.23499  1.0000
  C   C1215     1.0  0.71219  0.03705  0.16939  1.0000
  H   H2146     1.0  0.64648  0.21984  0.01275  1.0000
  H   H2147     1.0  0.55742  0.03405  0.08317  1.0000
  C   C1216     1.0  0.72708  0.32327  0.15336  1.0000
  H   H2148     1.0  0.62570  0.15062  0.03165  1.0000
  H   H2149     1.0  0.70005  0.04184  0.18551  1.0000
  C   C1217     1.0  0.65784  0.22875  0.97415  1.0000
  S   S279      1.0  0.59704  0.12250  0.98361  1.0000
  H   H2150     1.0  0.73021  0.31312  0.19501  1.0000
  C   C1218     1.0  0.51840  0.05979  0.21250  1.0000
  N   N68       1.0  0.66368  0.17525  0.01697  1.0000
  H   H2151     1.0  0.54893  0.09135  0.40535  1.0000
  H   H2152     1.0  0.51601  0.07106  0.40515  1.0000
  H   H2153     1.0  0.60969  0.02894  0.01291  1.0000
  C   C1219     1.0  0.70722  0.27824  0.15098  1.0000
  H   H2154     1.0  0.62900  0.18740  0.01741  1.0000
  H   H2155     1.0  0.52967  0.10347  0.13097  1.0000
  H   H2156     1.0  0.69604  0.04304  0.38275  1.0000
  C   C1220     1.0  0.55045  0.13265  0.03671  1.0000
  C   C1221     1.0  0.71348  0.32250  0.42858  1.0000
  H   H2157     1.0  0.52070  0.04560  0.46072  1.0000
  N   N69       1.0  0.72163  0.30053  0.44030  1.0000
  H   H2158     1.0  0.71230  0.13568  0.44572  1.0000
  N   N70       1.0  0.54650  0.07017  0.04878  1.0000
  H   H2159     1.0  0.72160  0.00987  0.14305  1.0000
  C   C1222     1.0  0.70214  0.28714  0.44291  1.0000
  H   H2160     1.0  0.56179  0.03516  0.13272  1.0000
  H   H2161     1.0  0.54616  0.07471  0.45808  1.0000
  H   H2162     1.0  0.69176  0.25652  0.10587  1.0000
  C   C1223     1.0  0.70503  0.25347  0.14687  1.0000
  H   H2163     1.0  0.74166  0.27084  0.42863  1.0000
  C   C1224     1.0  0.74000  0.20748  0.98466  1.0000
  H   H2164     1.0  0.74526  0.32230  0.15097  1.0000
  H   H2165     1.0  0.75865  0.03514  0.25503  1.0000
  H   H2166     1.0  0.67264  0.02124  0.97796  1.0000
  C   C1225     1.0  0.55500  0.06992  0.07750  1.0000
  H   H2167     1.0  0.53865  0.11370  0.06830  1.0000
  C   C1226     1.0  0.72211  0.27250  0.19767  1.0000
  H   H2168     1.0  0.58297  0.04856  0.11609  1.0000
  C   C1227     1.0  0.66467  0.15214  0.00587  1.0000
  H   H2169     1.0  0.66047  0.27143  0.43866  1.0000
  H   H2170     1.0  0.64315  0.03057  0.26299  1.0000
  H   H2171     1.0  0.76328  0.29677  0.34187  1.0000
  C   C1228     1.0  0.53760  0.09236  0.38760  1.0000
  C   C1229     1.0  0.72909  0.32191  0.07690  1.0000
  C   C1230     1.0  0.58260  0.04955  0.03059  1.0000
  C   C1231     1.0  0.68631  0.16417  0.06006  1.0000
  C   C1232     1.0  0.73804  0.28802  0.42182  1.0000
  H   H2172     1.0  0.58435  0.02966  0.99373  1.0000
  H   H2173     1.0  0.65618  0.24646  0.97936  1.0000
  H   H2174     1.0  0.71266  0.32035  0.06906  1.0000
  C   C1233     1.0  0.75864  0.31412  0.34320  1.0000
  C   C1234     1.0  0.69925  0.27633  0.21133  1.0000
  C   C1235     1.0  0.69840  0.26225  0.23639  1.0000
  H   H2175     1.0  0.72652  0.25460  0.19505  1.0000
  H   H2176     1.0  0.70022  0.24570  0.16570  1.0000
  H   H2177     1.0  0.73418  0.27775  0.21286  1.0000
  H   H2178     1.0  0.68572  0.27226  0.19759  1.0000
  H   H2179     1.0  0.68256  0.26638  0.24700  1.0000
  H   H2180     1.0  0.69953  0.24466  0.23061  1.0000
  H   H2181     1.0  0.71214  0.26512  0.25053  1.0000
  C   C1236     1.0  0.68756  0.24950  0.12548  1.0000
  H   H2182     1.0  0.70331  0.31340  0.18154  1.0000
  H   H2183     1.0  0.53418  0.04925  0.09950  1.0000
  H   H2184     1.0  0.61790  0.18255  0.07976  1.0000
  H   H2185     1.0  0.59036  0.04839  0.05091  1.0000
  H   H2186     1.0  0.67107  0.25689  0.13194  1.0000
  H   H2187     1.0  0.73976  0.28757  0.07177  1.0000
  Fe  Fe142     1.0  0.62464  0.04224  0.20809  1.0000
  C   C1237     1.0  0.74439  0.30333  0.07850  1.0000
  H   H2188     1.0  0.67045  0.01865  0.46316  1.0000
  H   H2189     1.0  0.55283  0.03531  0.03993  1.0000
  H   H2190     1.0  0.68030  0.25254  0.42132  1.0000
  H   H2191     1.0  0.67592  0.30273  0.41665  1.0000
  C   C1238     1.0  0.73502  0.34252  0.08516  1.0000
  C   C1239     1.0  0.70818  0.16727  0.07434  1.0000
  H   H2192     1.0  0.57280  0.07271  0.07813  1.0000
  H   H2193     1.0  0.73735  0.01294  0.40695  1.0000
  H   H2194     1.0  0.53727  0.10910  0.37928  1.0000
  H   H2195     1.0  0.61727  0.02446  0.08475  1.0000
  H   H2196     1.0  0.74869  0.28478  0.13983  1.0000
  H   H2197     1.0  0.67585  0.22057  0.01053  1.0000
  H   H2198     1.0  0.60533  0.15753  0.07398  1.0000
  C   C1240     1.0  0.68326  0.17870  0.03483  1.0000
  H   H2199     1.0  0.63886  0.03187  0.41571  1.0000
  H   H2200     1.0  0.67299  0.16892  0.07468  1.0000
  C   C1241     1.0  0.64221  0.18096  0.03178  1.0000
  H   H2201     1.0  0.72998  0.15003  0.40570  1.0000
  H   H2202     1.0  0.64403  0.15287  0.05990  1.0000
  H   H2203     1.0  0.69873  0.17670  0.02295  1.0000
  C   C1242     1.0  0.67079  0.26887  0.42035  1.0000
  C   C1243     1.0  0.72092  0.30850  0.17672  1.0000
  H   H2204     1.0  0.69598  0.29368  0.21789  1.0000
  H   H2205     1.0  0.70895  0.18468  0.08041  1.0000
  H   H2206     1.0  0.69538  0.28447  0.39894  1.0000
  H   H2207     1.0  0.75757  0.31204  0.40388  1.0000
  H   H2208     1.0  0.52238  0.07771  0.14435  1.0000
  S   S280      1.0  0.54110  0.04201  0.20142  1.0000
  H   H2209     1.0  0.70288  0.16366  0.41103  1.0000
  C   C1244     1.0  0.65595  0.02789  0.42360  1.0000
  H   H2210     1.0  0.74927  0.25960  0.15656  1.0000
  C   C1245     1.0  0.68632  0.28693  0.41809  1.0000
  S   S281      1.0  0.71516  0.30420  0.34667  1.0000
  H   H2211     1.0  0.54691  0.08384  0.08933  1.0000
  H   H2212     1.0  0.65015  0.02676  0.37047  1.0000
  C   C1246     1.0  0.61247  0.17122  0.06390  1.0000
  H   H2213     1.0  0.54422  0.08027  0.37216  1.0000
  C   C1247     1.0  0.71990  0.16126  0.41943  1.0000
  C   C1248     1.0  0.63198  0.16224  0.04662  1.0000
  H   H2214     1.0  0.76192  0.27660  0.98997  1.0000
  H   H2215     1.0  0.55149  0.13279  0.01439  1.0000
  H   H2216     1.0  0.51934  0.03643  0.06228  1.0000
  H   H2217     1.0  0.69060  0.28625  0.15612  1.0000
  H   H2218     1.0  0.59943  0.17996  0.05119  1.0000
  H   H2219     1.0  0.65112  0.18685  0.97832  1.0000
  C   C1249     1.0  0.71976  0.15143  0.44758  1.0000
  S   S282      1.0  0.59250  0.08140  0.45957  1.0000
  H   H2220     1.0  0.68682  0.23161  0.12258  1.0000
  C   C1250     1.0  0.68575  0.14380  0.99012  1.0000
  H   H2221     1.0  0.67531  0.01224  0.36139  1.0000
  H   H2222     1.0  0.68969  0.03974  0.33337  1.0000
  H   H2223     1.0  0.51500  0.03984  0.02678  1.0000
  H   H2224     1.0  0.51493  0.07856  0.02907  1.0000
  H   H2225     1.0  0.58748  0.01416  0.02462  1.0000
  C   C1251     1.0  0.64714  0.01165  0.10580  1.0000
  H   H2226     1.0  0.56731  0.13274  0.04546  1.0000
  H   H2227     1.0  0.73715  0.14803  0.45414  1.0000
  C   C1252     1.0  0.75112  0.31130  0.27156  1.0000
  H   H2228     1.0  0.74454  0.33879  0.43089  1.0000
  H   H2229     1.0  0.68461  0.02627  0.12834  1.0000
  C   C1253     1.0  0.52091  0.08130  0.22072  1.0000
  H   H2230     1.0  0.68964  0.16991  0.45900  1.0000
  C   C1254     1.0  0.72684  0.34221  0.43551  1.0000
  H   H2231     1.0  0.65094  0.02836  0.11165  1.0000
  C   C1255     1.0  0.68387  0.12076  0.97888  1.0000
  C   C1256     1.0  0.70657  0.16717  0.46758  1.0000
  H   H2232     1.0  0.74491  0.31450  0.99233  1.0000
  C   C1257     1.0  0.70856  0.01438  0.15811  1.0000
  C   C1258     1.0  0.62225  0.01250  0.10078  1.0000
  H   H2233     1.0  0.61317  0.01768  0.11946  1.0000
  C   C1259     1.0  0.76341  0.21902  0.18676  1.0000
  H   H2234     1.0  0.69176  0.29304  0.46041  1.0000
  C   C1260     1.0  0.68519  0.01432  0.14505  1.0000
  C   C1261     1.0  0.51471  0.06240  0.46516  1.0000
  H   H2235     1.0  0.74608  0.33006  0.23505  1.0000
  H   H2236     1.0  0.70792  0.26979  0.44735  1.0000
  H   H2237     1.0  0.76071  0.15917  0.99521  1.0000
  C   C1262     1.0  0.66593  0.01106  0.28858  1.0000
  H   H2238     1.0  0.52252  0.11390  0.03778  1.0000
  C   C1263     1.0  0.51452  0.08761  0.39626  1.0000
  H   H2239     1.0  0.75211  0.02588  0.22177  1.0000
  H   H2240     1.0  0.74209  0.32330  0.28534  1.0000
  H   H2241     1.0  0.76008  0.11930  0.99201  1.0000
  C   C1264     1.0  0.52163  0.07028  0.04772  1.0000
  N   N71       1.0  0.66880  0.01247  0.40427  1.0000
  C   C1265     1.0  0.75750  0.02036  0.24210  1.0000
  H   H2242     1.0  0.51412  0.08007  0.06492  1.0000
  H   H2243     1.0  0.66872  0.10680  0.54302  1.0000
  S   S283      1.0  0.74166  0.25366  0.59054  1.0000
  H   H2244     1.0  0.53573  0.12187  0.83757  1.0000
  C   C1266     1.0  0.52760  0.07107  0.54519  1.0000
  H   H2245     1.0  0.56510  0.06258  0.50115  1.0000
  N   N72       1.0  0.55560  0.12521  0.80210  1.0000
  C   C1267     1.0  0.67507  0.01431  0.78950  1.0000
  S   S284      1.0  0.72783  0.23085  0.51918  1.0000
  H   H2246     1.0  0.70204  0.12506  0.53536  1.0000
  S   S285      1.0  0.73244  0.21858  0.65342  1.0000
  H   H2247     1.0  0.73263  0.13546  0.96045  1.0000
  H   H2248     1.0  0.53708  0.08622  0.59268  1.0000
  Fe  Fe143     1.0  0.73164  0.24485  0.83528  1.0000
  H   H2249     1.0  0.70883  0.01223  0.87175  1.0000
  H   H2250     1.0  0.52061  0.14293  0.64722  1.0000
  Fe  Fe144     1.0  0.71178  0.20062  0.83620  1.0000
  S   S286      1.0  0.74527  0.18186  0.83576  1.0000
  S   S287      1.0  0.68319  0.17946  0.83458  1.0000
  C   C1268     1.0  0.56468  0.04862  0.51493  1.0000
  H   H2251     1.0  0.67908  0.09957  0.50991  1.0000
  Fe  Fe145     1.0  0.75405  0.20600  0.80501  1.0000
  H   H2252     1.0  0.54930  0.05908  0.59290  1.0000
  S   S288      1.0  0.71980  0.22448  0.86874  1.0000
  S   S289      1.0  0.71989  0.22282  0.80260  1.0000
  Fe  Fe146     1.0  0.61443  0.12782  0.94468  1.0000
  S   S290      1.0  0.63495  0.09556  0.94581  1.0000
  S   S291      1.0  0.63146  0.15888  0.94064  1.0000
  H   H2253     1.0  0.67257  0.04983  0.65952  1.0000
  Fe  Fe147     1.0  0.63082  0.04085  0.71054  1.0000
  H   H2254     1.0  0.67221  0.22538  0.96064  1.0000
  Fe  Fe148     1.0  0.61780  0.09451  0.48695  1.0000
  S   S292      1.0  0.62889  0.07276  0.52211  1.0000
  Fe  Fe149     1.0  0.60674  0.08299  0.92299  1.0000
  S   S293      1.0  0.61111  0.05912  0.88836  1.0000
  H   H2255     1.0  0.74548  0.27568  0.77051  1.0000
  S   S294      1.0  0.58736  0.11572  0.91892  1.0000
  Fe  Fe150     1.0  0.62393  0.08298  0.67834  1.0000
  S   S295      1.0  0.63249  0.10470  0.64422  1.0000
  Fe  Fe151     1.0  0.61905  0.08360  0.73960  1.0000
  S   S296      1.0  0.60402  0.05159  0.73981  1.0000
  S   S297      1.0  0.62615  0.10370  0.77671  1.0000
  Fe  Fe152     1.0  0.58468  0.06441  0.70364  1.0000
  H   H2256     1.0  0.74451  0.29868  0.57577  1.0000
  S   S298      1.0  0.64705  0.07218  0.71231  1.0000
  S   S299      1.0  0.59723  0.09747  0.70592  1.0000
  C   C1269     1.0  0.76356  0.20476  0.73679  1.0000
  C   C1270     1.0  0.52962  0.09646  0.71901  1.0000
  C   C1271     1.0  0.53439  0.12975  0.81745  1.0000
  C   C1272     1.0  0.55435  0.13927  0.77730  1.0000
  H   H2257     1.0  0.72108  0.29925  0.67976  1.0000
  H   H2258     1.0  0.54578  0.10240  0.71915  1.0000
  H   H2259     1.0  0.63793  0.02954  0.49038  1.0000
  C   C1273     1.0  0.68025  0.04252  0.94509  1.0000
  H   H2260     1.0  0.51383  0.05273  0.57761  1.0000
  H   H2261     1.0  0.54214  0.13347  0.76277  1.0000
  H   H2262     1.0  0.54893  0.04122  0.51160  1.0000
  H   H2263     1.0  0.72184  0.30743  0.77532  1.0000
  C   C1274     1.0  0.55134  0.07553  0.58461  1.0000
  C   C1275     1.0  0.61660  0.07129  0.85761  1.0000
  C   C1276     1.0  0.62119  0.09314  0.85673  1.0000
  C   C1277     1.0  0.62533  0.10263  0.83192  1.0000
  C   C1278     1.0  0.62426  0.09053  0.80784  1.0000
  C   C1279     1.0  0.62055  0.06847  0.80893  1.0000
  C   C1280     1.0  0.61669  0.05888  0.83372  1.0000
  H   H2264     1.0  0.62159  0.10268  0.87516  1.0000
  H   H2265     1.0  0.62879  0.11954  0.83130  1.0000
  H   H2266     1.0  0.62054  0.05873  0.79073  1.0000
  H   H2267     1.0  0.61335  0.04193  0.83422  1.0000
  C   C1281     1.0  0.62845  0.08197  0.55598  1.0000
  C   C1282     1.0  0.62434  0.10412  0.56283  1.0000
  C   C1283     1.0  0.62548  0.11090  0.59000  1.0000
  C   C1284     1.0  0.63003  0.09554  0.61052  1.0000
  C   C1285     1.0  0.63342  0.07332  0.60373  1.0000
  C   C1286     1.0  0.63288  0.06660  0.57652  1.0000
  H   H2268     1.0  0.62092  0.11609  0.54717  1.0000
  H   H2269     1.0  0.62289  0.12812  0.59514  1.0000
  H   H2270     1.0  0.63701  0.06138  0.61939  1.0000
  H   H2271     1.0  0.63602  0.04943  0.57135  1.0000
  C   C1287     1.0  0.66941  0.17361  0.86449  1.0000
  C   C1288     1.0  0.67099  0.18635  0.88791  1.0000
  C   C1289     1.0  0.65939  0.18158  0.91117  1.0000
  C   C1290     1.0  0.64631  0.16394  0.91131  1.0000
  C   C1291     1.0  0.64499  0.15101  0.88806  1.0000
  C   C1292     1.0  0.65634  0.15595  0.86468  1.0000
  H   H2272     1.0  0.68090  0.20006  0.88801  1.0000
  H   H2273     1.0  0.66045  0.19174  0.92902  1.0000
  H   H2274     1.0  0.63488  0.13747  0.88795  1.0000
  H   H2275     1.0  0.65488  0.14610  0.84668  1.0000
  H   H2276     1.0  0.70541  0.34224  0.75620  1.0000
  Fe  Fe153     1.0  0.75370  0.20669  0.86675  1.0000
  H   H2277     1.0  0.74761  0.06736  0.91874  1.0000
  H   H2278     1.0  0.71849  0.31307  0.48107  1.0000
  C   C1293     1.0  0.51861  0.05009  0.55615  1.0000
  C   C1294     1.0  0.73764  0.20352  0.93582  1.0000
  C   C1295     1.0  0.52694  0.07549  0.70888  1.0000
  H   H2279     1.0  0.54319  0.15202  0.54840  1.0000
  C   C1296     1.0  0.51801  0.09212  0.96904  1.0000
  H   H2280     1.0  0.72769  0.20294  0.91776  1.0000
  C   C1297     1.0  0.74495  0.21329  0.68520  1.0000
  C   C1298     1.0  0.73143  0.21076  0.70743  1.0000
  C   C1299     1.0  0.74066  0.20677  0.73317  1.0000
  H   H2281     1.0  0.66884  0.19177  0.48668  1.0000
  C   C1300     1.0  0.69559  0.17824  0.51350  1.0000
  H   H2282     1.0  0.70024  0.12618  0.48541  1.0000
  H   H2283     1.0  0.71371  0.21203  0.70472  1.0000
  H   H2284     1.0  0.73004  0.20478  0.75004  1.0000
  C   C1301     1.0  0.55712  0.09553  0.54216  1.0000
  H   H2285     1.0  0.72735  0.14814  0.52896  1.0000
  H   H2286     1.0  0.73080  0.06215  0.94726  1.0000
  C   C1302     1.0  0.66294  0.20492  0.52634  1.0000
  H   H2287     1.0  0.52650  0.11747  0.54068  1.0000
  H   H2288     1.0  0.69743  0.17440  0.53533  1.0000
  H   H2289     1.0  0.66429  0.06905  0.86450  1.0000
  H   H2290     1.0  0.56050  0.14473  0.72191  1.0000
  C   C1303     1.0  0.73848  0.28220  0.48359  1.0000
  H   H2291     1.0  0.67288  0.21900  0.52360  1.0000
  N   N73       1.0  0.73549  0.28163  0.72876  1.0000
  H   H2292     1.0  0.66023  0.17262  0.51060  1.0000
  H   H2293     1.0  0.57129  0.08536  0.83074  1.0000
  C   C1304     1.0  0.72736  0.20705  0.96093  1.0000
  H   H2294     1.0  0.54186  0.08642  0.82625  1.0000
  H   H2295     1.0  0.56021  0.15829  0.84453  1.0000
  C   C1305     1.0  0.57412  0.15436  0.83046  1.0000
  H   H2296     1.0  0.65780  0.06850  0.89974  1.0000
  H   H2297     1.0  0.59802  0.14647  0.86285  1.0000
  H   H2298     1.0  0.54803  0.15642  0.78231  1.0000
  H   H2299     1.0  0.66633  0.10527  0.88447  1.0000
  N   N74       1.0  0.55073  0.07460  0.55418  1.0000
  C   C1306     1.0  0.67131  0.06986  0.88524  1.0000
  H   H2300     1.0  0.57246  0.16609  0.81362  1.0000
  H   H2301     1.0  0.52615  0.07134  0.52279  1.0000
  H   H2302     1.0  0.58745  0.07393  0.58883  1.0000
  C   C1307     1.0  0.74600  0.06928  0.94096  1.0000
  C   C1308     1.0  0.66393  0.01880  0.76493  1.0000
  H   H2303     1.0  0.55845  0.08742  0.63786  1.0000
  C   C1309     1.0  0.59534  0.15809  0.84588  1.0000
  H   H2304     1.0  0.69173  0.07013  0.66442  1.0000
  H   H2305     1.0  0.66409  0.19978  0.54774  1.0000
  H   H2306     1.0  0.51577  0.08488  0.55198  1.0000
  C   C1310     1.0  0.67104  0.18593  0.50765  1.0000
  H   H2307     1.0  0.73531  0.13706  0.49711  1.0000
  C   C1311     1.0  0.75133  0.27158  0.74976  1.0000
  C   C1312     1.0  0.74450  0.09343  0.94920  1.0000
  H   H2308     1.0  0.58860  0.14783  0.77355  1.0000
  S   S300      1.0  0.53513  0.11354  0.96513  1.0000
  H   H2309     1.0  0.56562  0.16977  0.73972  1.0000
  H   H2310     1.0  0.55974  0.04906  0.82016  1.0000
  H   H2311     1.0  0.72927  0.01877  0.71372  1.0000
  C   C1313     1.0  0.57450  0.13034  0.82023  1.0000
  H   H2312     1.0  0.67673  0.06015  0.94060  1.0000
  H   H2313     1.0  0.53652  0.05415  0.88232  1.0000
  H   H2314     1.0  0.73856  0.29856  0.52299  1.0000
  H   H2315     1.0  0.57617  0.05784  0.79315  1.0000
  C   C1314     1.0  0.74941  0.31466  0.58093  1.0000
  H   H2316     1.0  0.64543  0.21031  0.52152  1.0000
  H   H2317     1.0  0.72404  0.27318  0.48816  1.0000
  H   H2318     1.0  0.58809  0.15283  0.72452  1.0000
  H   H2319     1.0  0.73277  0.28796  0.63359  1.0000
  H   H2320     1.0  0.70359  0.01100  0.64785  1.0000
  H   H2321     1.0  0.75087  0.25877  0.69923  1.0000
  H   H2322     1.0  0.65354  0.03346  0.92020  1.0000
  C   C1315     1.0  0.70206  0.01202  0.89252  1.0000
  H   H2323     1.0  0.69822  0.03911  0.94824  1.0000
  H   H2324     1.0  0.58309  0.12315  0.75586  1.0000
  C   C1316     1.0  0.75481  0.33714  0.83284  1.0000
  S   S301      1.0  0.54915  0.05828  0.69563  1.0000
  C   C1317     1.0  0.72325  0.34020  0.76143  1.0000
  Fe  Fe154     1.0  0.57193  0.10687  0.95791  1.0000
  C   C1318     1.0  0.69026  0.05285  0.65839  1.0000
  C   C1319     1.0  0.55785  0.08429  0.81565  1.0000
  S   S302      1.0  0.61019  0.05053  0.67398  1.0000
  H   H2325     1.0  0.74028  0.18380  0.51929  1.0000
  H   H2326     1.0  0.71964  0.33179  0.56497  1.0000
  H   H2327     1.0  0.67601  0.02726  0.80431  1.0000
  C   C1320     1.0  0.68997  0.05109  0.88872  1.0000
  H   H2328     1.0  0.75350  0.34063  0.95170  1.0000
  H   H2329     1.0  0.72205  0.32776  0.82518  1.0000
  C   C1321     1.0  0.55381  0.13706  0.54251  1.0000
  C   C1322     1.0  0.67156  0.11325  0.52266  1.0000
  C   C1323     1.0  0.70426  0.03755  0.67727  1.0000
  H   H2330     1.0  0.72157  0.04149  0.67609  1.0000
  C   C1324     1.0  0.52622  0.07011  0.96704  1.0000
  C   C1325     1.0  0.74448  0.29974  0.83495  1.0000
  C   C1326     1.0  0.71235  0.15171  0.91679  1.0000
  H   H2331     1.0  0.70716  0.15414  0.89543  1.0000
  C   C1327     1.0  0.56715  0.05612  0.54473  1.0000
  H   H2332     1.0  0.69832  0.04127  0.69812  1.0000
  C   C1328     1.0  0.67981  0.09235  0.88908  1.0000
  C   C1329     1.0  0.57265  0.08312  0.59749  1.0000
  H   H2333     1.0  0.76086  0.28500  0.69915  1.0000
  H   H2334     1.0  0.62354  0.01039  0.86058  1.0000
  C   C1330     1.0  0.57331  0.07936  0.62790  1.0000
  C   C1331     1.0  0.57223  0.15263  0.73533  1.0000
  C   C1332     1.0  0.73541  0.33346  0.57466  1.0000
  H   H2335     1.0  0.58431  0.06078  0.54719  1.0000
  H   H2336     1.0  0.57479  0.09761  0.54661  1.0000
  H   H2337     1.0  0.65083  0.04234  0.96982  1.0000
  H   H2338     1.0  0.70947  0.16761  0.92771  1.0000
  H   H2339     1.0  0.69374  0.09421  0.87530  1.0000
  H   H2340     1.0  0.57371  0.10082  0.59406  1.0000
  H   H2341     1.0  0.69585  0.05045  0.63722  1.0000
  H   H2342     1.0  0.74709  0.15040  0.70365  1.0000
  H   H2343     1.0  0.75331  0.27178  0.52176  1.0000
  C   C1333     1.0  0.73980  0.22650  0.48713  1.0000
  S   S303      1.0  0.72399  0.28139  0.83017  1.0000
  H   H2344     1.0  0.58800  0.08617  0.63687  1.0000
  H   H2345     1.0  0.59039  0.12594  0.80992  1.0000
  H   H2346     1.0  0.58123  0.02661  0.48546  1.0000
  H   H2347     1.0  0.57437  0.06158  0.63216  1.0000
  N   N75       1.0  0.69489  0.14765  0.75488  1.0000
  C   C1334     1.0  0.71627  0.15550  0.74550  1.0000
  C   C1335     1.0  0.67917  0.16730  0.76219  1.0000
  C   C1336     1.0  0.69982  0.13495  0.78054  1.0000
  C   C1337     1.0  0.68460  0.13313  0.73439  1.0000
  C   C1338     1.0  0.68810  0.13791  0.70410  1.0000
  C   C1339     1.0  0.73560  0.13742  0.74131  1.0000
  C   C1340     1.0  0.67990  0.12555  0.79407  1.0000
  C   C1341     1.0  0.67169  0.18325  0.73930  1.0000
  C   C1342     1.0  0.65752  0.20315  0.75049  1.0000
  C   C1343     1.0  0.67308  0.12527  0.68609  1.0000
  C   C1344     1.0  0.75372  0.14528  0.72379  1.0000
  C   C1345     1.0  0.68736  0.11162  0.81838  1.0000
  H   H2348     1.0  0.72219  0.16745  0.76042  1.0000
  H   H2349     1.0  0.71385  0.16478  0.72651  1.0000
  H   H2350     1.0  0.66362  0.16218  0.77047  1.0000
  H   H2351     1.0  0.68663  0.17700  0.77843  1.0000
  H   H2352     1.0  0.70765  0.14531  0.79588  1.0000
  H   H2353     1.0  0.71189  0.12057  0.77663  1.0000
  H   H2354     1.0  0.69100  0.11569  0.73714  1.0000
  H   H2355     1.0  0.66650  0.13349  0.73797  1.0000
  H   H2356     1.0  0.70535  0.13277  0.69822  1.0000
  H   H2357     1.0  0.68488  0.15544  0.69930  1.0000
  H   H2358     1.0  0.74322  0.13280  0.76115  1.0000
  H   H2359     1.0  0.72986  0.12248  0.73186  1.0000
  H   H2360     1.0  0.67147  0.11507  0.77969  1.0000
  H   H2361     1.0  0.66775  0.13871  0.80160  1.0000
  H   H2362     1.0  0.68589  0.18937  0.72898  1.0000
  H   H2363     1.0  0.66128  0.17514  0.72448  1.0000
  H   H2364     1.0  0.65289  0.21479  0.73399  1.0000
  H   H2365     1.0  0.64218  0.19806  0.75945  1.0000
  H   H2366     1.0  0.66671  0.21167  0.76628  1.0000
  H   H2367     1.0  0.67634  0.10740  0.68927  1.0000
  H   H2368     1.0  0.65545  0.13036  0.69040  1.0000
  H   H2369     1.0  0.67607  0.12862  0.66454  1.0000
  H   H2370     1.0  0.59422  0.17499  0.85434  1.0000
  H   H2371     1.0  0.54654  0.05880  0.78925  1.0000
  C   C1346     1.0  0.74549  0.14122  0.94726  1.0000
  H   H2372     1.0  0.69915  0.09759  0.81220  1.0000
  H   H2373     1.0  0.69518  0.12172  0.83386  1.0000
  H   H2374     1.0  0.67281  0.10505  0.82750  1.0000
  Fe  Fe155     1.0  0.75265  0.22502  0.61668  1.0000
  H   H2375     1.0  0.59951  0.03806  0.50939  1.0000
  H   H2376     1.0  0.55606  0.09477  0.51975  1.0000
  C   C1347     1.0  0.55923  0.10152  0.79325  1.0000
  C   C1348     1.0  0.74558  0.27660  0.70136  1.0000
  H   H2377     1.0  0.70202  0.13976  0.92572  1.0000
  H   H2378     1.0  0.57586  0.09800  0.78422  1.0000
  H   H2379     1.0  0.54746  0.09791  0.77678  1.0000
  H   H2380     1.0  0.57517  0.12006  0.83857  1.0000
  H   H2381     1.0  0.70151  0.05627  0.90441  1.0000
  H   H2382     1.0  0.72961  0.10156  0.93918  1.0000
  C   C1349     1.0  0.57610  0.13985  0.76145  1.0000
  H   H2383     1.0  0.52886  0.02635  0.88341  1.0000
  C   C1350     1.0  0.73670  0.14319  0.91777  1.0000
  H   H2384     1.0  0.74659  0.02046  0.65241  1.0000
  H   H2385     1.0  0.53115  0.11600  0.63560  1.0000
  C   C1351     1.0  0.71441  0.27058  0.72972  1.0000
  H   H2386     1.0  0.76034  0.06006  0.95098  1.0000
  C   C1352     1.0  0.73059  0.28313  0.67667  1.0000
  C   C1353     1.0  0.73886  0.32208  0.83052  1.0000
  C   C1354     1.0  0.69186  0.14031  0.49668  1.0000
  H   H2387     1.0  0.75411  0.26866  0.64718  1.0000
  C   C1355     1.0  0.70144  0.27280  0.75642  1.0000
  C   C1356     1.0  0.68233  0.25837  0.75576  1.0000
  H   H2388     1.0  0.56668  0.04143  0.55753  1.0000
  H   H2389     1.0  0.69963  0.05020  0.86968  1.0000
  H   H2390     1.0  0.53922  0.03912  0.91328  1.0000
  H   H2391     1.0  0.65533  0.11937  0.51380  1.0000
  H   H2392     1.0  0.70255  0.27708  0.71393  1.0000
  H   H2393     1.0  0.71799  0.25283  0.72500  1.0000
  H   H2394     1.0  0.65643  0.03513  0.76097  1.0000
  C   C1357     1.0  0.73092  0.30619  0.73198  1.0000
  H   H2395     1.0  0.74897  0.31462  0.76883  1.0000
  C   C1358     1.0  0.52892  0.04204  0.89482  1.0000
  H   H2396     1.0  0.74708  0.17567  0.48520  1.0000
  C   C1359     1.0  0.56020  0.06112  0.80373  1.0000
  H   H2397     1.0  0.64267  0.22480  0.96319  1.0000
  H   H2398     1.0  0.70961  0.20963  0.96190  1.0000
  H   H2399     1.0  0.60973  0.15601  0.83220  1.0000
  H   H2400     1.0  0.71878  0.27063  0.67309  1.0000
  H   H2401     1.0  0.71192  0.26773  0.77402  1.0000
  C   C1360     1.0  0.52164  0.12520  0.65172  1.0000
  H   H2402     1.0  0.68866  0.24095  0.75284  1.0000
  H   H2403     1.0  0.67826  0.14471  0.53788  1.0000
  H   H2404     1.0  0.67055  0.26331  0.73921  1.0000
  C   C1361     1.0  0.72831  0.15238  0.50730  1.0000
  C   C1362     1.0  0.76062  0.20023  0.93429  1.0000
  S   S304      1.0  0.60051  0.12826  0.48956  1.0000
  H   H2405     1.0  0.53122  0.14756  0.82192  1.0000
  H   H2406     1.0  0.75210  0.25336  0.74855  1.0000
  Fe  Fe156     1.0  0.75081  0.23152  0.55522  1.0000
  H   H2407     1.0  0.68527  0.09469  0.91028  1.0000
  H   H2408     1.0  0.70474  0.19287  0.51081  1.0000
  H   H2409     1.0  0.67343  0.26001  0.77524  1.0000
  H   H2410     1.0  0.72607  0.03068  0.91501  1.0000
  C   C1363     1.0  0.67155  0.02821  0.92202  1.0000
  C   C1364     1.0  0.54294  0.11676  0.55076  1.0000
  H   H2411     1.0  0.69428  0.28993  0.75947  1.0000
  H   H2412     1.0  0.74604  0.15486  0.90664  1.0000
  H   H2413     1.0  0.73846  0.12738  0.90665  1.0000
  C   C1365     1.0  0.74405  0.28441  0.65104  1.0000
  C   C1366     1.0  0.72142  0.01381  0.91265  1.0000
  S   S305      1.0  0.58965  0.07331  0.96019  1.0000
  N   N76       1.0  0.70560  0.15950  0.49629  1.0000
  C   C1367     1.0  0.68668  0.13169  0.52496  1.0000
  C   C1368     1.0  0.74957  0.28718  0.51045  1.0000
  H   H2414     1.0  0.76097  0.15924  0.73377  1.0000
  H   H2415     1.0  0.74287  0.31478  0.72016  1.0000
  C   C1369     1.0  0.73178  0.31594  0.76101  1.0000
  H   H2416     1.0  0.51850  0.03654  0.96845  1.0000
  H   H2417     1.0  0.71446  0.31171  0.72318  1.0000
  H   H2418     1.0  0.65144  0.03579  0.87349  1.0000
  H   H2419     1.0  0.53101  0.03572  0.55507  1.0000
  H   H2420     1.0  0.74709  0.15830  0.95413  1.0000
  H   H2421     1.0  0.57015  0.13749  0.55260  1.0000
  N   N77       1.0  0.68249  0.02894  0.89485  1.0000
  C   C1370     1.0  0.74533  0.16963  0.50596  1.0000
  C   C1371     1.0  0.66608  0.02361  0.87318  1.0000
  H   H2422     1.0  0.67256  0.01103  0.92921  1.0000
  S   S306      1.0  0.75793  0.20202  0.58118  1.0000
  H   H2423     1.0  0.53061  0.12244  0.67116  1.0000
  C   C1372     1.0  0.58329  0.03139  0.50696  1.0000
  H   H2424     1.0  0.75508  0.29776  0.65268  1.0000
  H   H2425     1.0  0.54049  0.11786  0.57284  1.0000
  H   H2426     1.0  0.55604  0.13720  0.52032  1.0000
  H   H2427     1.0  0.58301  0.01661  0.51956  1.0000
  H   H2428     1.0  0.67594  0.14421  0.48570  1.0000
  H   H2429     1.0  0.67336  0.02483  0.85281  1.0000
  C   C1373     1.0  0.66898  0.03851  0.97172  1.0000
  H   H2430     1.0  0.74990  0.01144  0.75628  1.0000
  H   H2431     1.0  0.51447  0.10534  0.79808  1.0000
  H   H2432     1.0  0.75678  0.01585  0.68638  1.0000
  C   C1374     1.0  0.70181  0.01322  0.67008  1.0000
  H   H2433     1.0  0.54342  0.06583  0.96266  1.0000
  C   C1375     1.0  0.76268  0.22404  0.48387  1.0000
  H   H2434     1.0  0.68415  0.01127  0.67426  1.0000
  H   H2435     1.0  0.67059  0.12120  0.96332  1.0000
  H   H2436     1.0  0.68843  0.15425  0.97267  1.0000
  H   H2437     1.0  0.69956  0.11440  0.96929  1.0000
  H   H2438     1.0  0.74208  0.09450  0.97132  1.0000
  N   N78       1.0  0.68598  0.67485  0.39880  1.0000
  S   S307      1.0  0.63544  0.56855  0.04046  1.0000
  Fe  Fe157     1.0  0.71527  0.44822  0.09506  1.0000
  H   H2439     1.0  0.70380  0.37792  0.98426  1.0000
  S   S308      1.0  0.68845  0.47622  0.09712  1.0000
  Fe  Fe158     1.0  0.72765  0.39910  0.08830  1.0000
  H   H2440     1.0  0.67603  0.56580  0.07908  1.0000
  S   S309      1.0  0.71560  0.36558  0.08244  1.0000
  H   H2441     1.0  0.54320  0.65687  0.26551  1.0000
  H   H2442     1.0  0.68053  0.48363  0.00729  1.0000
  C   C1376     1.0  0.62210  0.67456  0.12733  1.0000
  H   H2443     1.0  0.66603  0.53949  0.01089  1.0000
  S   S310      1.0  0.72098  0.42087  0.12469  1.0000
  S   S311      1.0  0.71812  0.42587  0.05863  1.0000
  Fe  Fe159     1.0  0.61403  0.58214  0.25023  1.0000
  S   S312      1.0  0.60804  0.54672  0.24864  1.0000
  H   H2444     1.0  0.73875  0.48486  0.16846  1.0000
  Fe  Fe160     1.0  0.61108  0.58602  0.18861  1.0000
  S   S313      1.0  0.60427  0.55103  0.18234  1.0000
  C   C1377     1.0  0.74316  0.49935  0.15727  1.0000
  Fe  Fe161     1.0  0.58188  0.55699  0.21785  1.0000
  Fe  Fe162     1.0  0.63118  0.54440  0.21327  1.0000
  S   S314      1.0  0.65907  0.51752  0.21069  1.0000
  S   S315      1.0  0.58649  0.59252  0.22158  1.0000
  S   S316      1.0  0.63945  0.57919  0.21741  1.0000
  H   H2445     1.0  0.61698  0.54350  0.35314  1.0000
  N   N79       1.0  0.69071  0.51397  0.02423  1.0000
  S   S317      1.0  0.73664  0.44882  0.27084  1.0000
  H   H2446     1.0  0.71215  0.64178  0.43277  1.0000
  C   C1378     1.0  0.69397  0.66241  0.14010  1.0000
  H   H2447     1.0  0.72797  0.37633  0.42467  1.0000
  H   H2448     1.0  0.76353  0.38687  0.21987  1.0000
  H   H2449     1.0  0.52173  0.62649  0.34912  1.0000
  C   C1379     1.0  0.68001  0.52858  0.00252  1.0000
  H   H2450     1.0  0.75068  0.65411  0.01687  1.0000
  H   H2451     1.0  0.65614  0.49852  0.05932  1.0000
  H   H2452     1.0  0.72144  0.67045  0.40471  1.0000
  H   H2453     1.0  0.74253  0.37661  0.34812  1.0000
  H   H2454     1.0  0.54251  0.61642  0.39009  1.0000
  C   C1380     1.0  0.66617  0.63277  0.08208  1.0000
  C   C1381     1.0  0.66630  0.64947  0.36619  1.0000
  H   H2455     1.0  0.70363  0.57365  0.08261  1.0000
  H   H2456     1.0  0.54043  0.55144  0.31621  1.0000
  C   C1382     1.0  0.68480  0.64183  0.09928  1.0000
  C   C1383     1.0  0.55862  0.64607  0.26878  1.0000
  C   C1384     1.0  0.51696  0.63132  0.28962  1.0000
  H   H2457     1.0  0.71361  0.35087  0.34840  1.0000
  C   C1385     1.0  0.68028  0.49276  0.02673  1.0000
  H   H2458     1.0  0.70047  0.34931  0.15829  1.0000
  H   H2459     1.0  0.58795  0.65359  0.05899  1.0000
  C   C1386     1.0  0.71795  0.36255  0.41996  1.0000
  C   C1387     1.0  0.53260  0.56019  0.40248  1.0000
  H   H2460     1.0  0.52345  0.61705  0.02435  1.0000
  S   S318      1.0  0.58620  0.57411  0.47144  1.0000
  C   C1388     1.0  0.73565  0.44463  0.21583  1.0000
  C   C1389     1.0  0.74502  0.43985  0.19042  1.0000
  H   H2461     1.0  0.71816  0.44952  0.21736  1.0000
  H   H2462     1.0  0.73479  0.44148  0.17256  1.0000
  H   H2463     1.0  0.56087  0.61012  0.15497  1.0000
  H   H2464     1.0  0.61897  0.61236  0.05756  1.0000
  C   C1390     1.0  0.52935  0.58757  0.20893  1.0000
  H   H2465     1.0  0.53267  0.60597  0.14700  1.0000
  H   H2466     1.0  0.54451  0.58992  0.19880  1.0000
  H   H2467     1.0  0.73181  0.43757  0.00000  1.0000
  H   H2468     1.0  0.56825  0.61676  0.10696  1.0000
  C   C1391     1.0  0.68086  0.48783  0.12880  1.0000
  C   C1392     1.0  0.66517  0.50609  0.12996  1.0000
  C   C1393     1.0  0.65842  0.51541  0.15495  1.0000
  C   C1394     1.0  0.66733  0.50648  0.17893  1.0000
  C   C1395     1.0  0.68325  0.48841  0.17773  1.0000
  C   C1396     1.0  0.69001  0.47911  0.15275  1.0000
  H   H2469     1.0  0.65806  0.51293  0.11150  1.0000
  H   H2470     1.0  0.64625  0.52938  0.15564  1.0000
  H   H2471     1.0  0.69017  0.48138  0.19619  1.0000
  H   H2472     1.0  0.70207  0.46505  0.15204  1.0000
  C   C1397     1.0  0.62848  0.58010  0.07224  1.0000
  C   C1398     1.0  0.63110  0.56715  0.09530  1.0000
  C   C1399     1.0  0.62569  0.57620  0.12081  1.0000
  C   C1400     1.0  0.61734  0.59814  0.12326  1.0000
  H   H2473     1.0  0.63749  0.55015  0.09351  1.0000
  H   H2474     1.0  0.62835  0.56628  0.13853  1.0000
  H   H2475     1.0  0.73721  0.38926  0.02804  1.0000
  C   C1401     1.0  0.61459  0.59204  0.32032  1.0000
  C   C1402     1.0  0.61518  0.56948  0.32409  1.0000
  C   C1403     1.0  0.61601  0.56100  0.35033  1.0000
  H   H2476     1.0  0.61554  0.55852  0.30685  1.0000
  Fe  Fe163     1.0  0.75397  0.43126  0.05958  1.0000
  N   N80       1.0  0.68655  0.51301  0.29287  1.0000
  C   C1404     1.0  0.69932  0.49480  0.30819  1.0000
  C   C1405     1.0  0.69962  0.51934  0.26877  1.0000
  C   C1406     1.0  0.68349  0.53270  0.31155  1.0000
  C   C1407     1.0  0.66394  0.50716  0.28428  1.0000
  C   C1408     1.0  0.66273  0.48475  0.26991  1.0000
  C   C1409     1.0  0.68846  0.48747  0.33431  1.0000
  C   C1410     1.0  0.67235  0.55401  0.29880  1.0000
  C   C1411     1.0  0.71470  0.50105  0.25448  1.0000
  C   C1412     1.0  0.72387  0.50900  0.22823  1.0000
  C   C1413     1.0  0.63880  0.48067  0.26370  1.0000
  C   C1414     1.0  0.70098  0.46673  0.34543  1.0000
  C   C1415     1.0  0.67204  0.57319  0.31880  1.0000
  H   H2477     1.0  0.71597  0.49963  0.31385  1.0000
  H   H2478     1.0  0.70259  0.47999  0.29525  1.0000
  H   H2479     1.0  0.68843  0.52747  0.25329  1.0000
  H   H2480     1.0  0.71102  0.53177  0.27478  1.0000
  H   H2481     1.0  0.69974  0.53637  0.32020  1.0000
  H   H2482     1.0  0.67306  0.52936  0.32903  1.0000
  H   H2483     1.0  0.65273  0.50768  0.30191  1.0000
  H   H2484     1.0  0.65605  0.51971  0.27035  1.0000
  H   H2485     1.0  0.66988  0.47103  0.28250  1.0000
  H   H2486     1.0  0.67138  0.48428  0.25042  1.0000
  H   H2487     1.0  0.68870  0.50031  0.35026  1.0000
  H   H2488     1.0  0.67116  0.48397  0.33061  1.0000
  H   H2489     1.0  0.65504  0.55193  0.29291  1.0000
  H   H2490     1.0  0.68113  0.55867  0.28059  1.0000
  H   H2491     1.0  0.72903  0.49591  0.26772  1.0000
  H   H2492     1.0  0.70600  0.48650  0.24960  1.0000
  H   H2493     1.0  0.73428  0.52260  0.23226  1.0000
  H   H2494     1.0  0.73407  0.49525  0.21845  1.0000
  H   H2495     1.0  0.71027  0.51461  0.21413  1.0000
  H   H2496     1.0  0.63838  0.46474  0.25293  1.0000
  H   H2497     1.0  0.62925  0.48020  0.28260  1.0000
  H   H2498     1.0  0.63088  0.49369  0.25049  1.0000
  H   H2499     1.0  0.71833  0.46962  0.35012  1.0000
  H   H2500     1.0  0.69319  0.46195  0.36433  1.0000
  H   H2501     1.0  0.70080  0.45300  0.33061  1.0000
  H   H2502     1.0  0.66359  0.58806  0.30941  1.0000
  H   H2503     1.0  0.66296  0.56969  0.33733  1.0000
  H   H2504     1.0  0.68910  0.57658  0.32440  1.0000
  S   S319      1.0  0.60896  0.62366  0.00673  1.0000
  H   H2505     1.0  0.64973  0.65387  0.37488  1.0000
  H   H2506     1.0  0.56449  0.54177  0.29704  1.0000
  H   H2507     1.0  0.65504  0.64848  0.15884  1.0000
  H   H2508     1.0  0.65998  0.60561  0.14123  1.0000
  Fe  Fe164     1.0  0.75649  0.42742  0.12124  1.0000
  C   C1416     1.0  0.68982  0.62346  0.14378  1.0000
  H   H2509     1.0  0.64664  0.63765  0.12791  1.0000
  H   H2510     1.0  0.72335  0.52417  0.01782  1.0000
  C   C1417     1.0  0.53468  0.59319  0.29183  1.0000
  H   H2511     1.0  0.68093  0.59715  0.11666  1.0000
  H   H2512     1.0  0.69185  0.53991  0.99527  1.0000
  H   H2513     1.0  0.70075  0.64546  0.37910  1.0000
  C   C1418     1.0  0.61585  0.57503  0.37295  1.0000
  H   H2514     1.0  0.73341  0.34890  0.99204  1.0000
  H   H2515     1.0  0.72397  0.65496  0.11572  1.0000
  H   H2516     1.0  0.75554  0.50522  0.99333  1.0000
  H   H2517     1.0  0.70272  0.40244  0.00473  1.0000
  H   H2518     1.0  0.53604  0.57760  0.40151  1.0000
  N   N81       1.0  0.54018  0.60854  0.06217  1.0000
  H   H2519     1.0  0.70481  0.66948  0.34565  1.0000
  H   H2520     1.0  0.74121  0.66474  0.45173  1.0000
  H   H2521     1.0  0.67057  0.53092  0.05530  1.0000
  C   C1419     1.0  0.74362  0.43518  0.98387  1.0000
  C   C1420     1.0  0.69368  0.55950  0.08008  1.0000
  C   C1421     1.0  0.71879  0.34717  0.15880  1.0000
  C   C1422     1.0  0.53481  0.61185  0.09169  1.0000
  H   H2522     1.0  0.72534  0.34641  0.45733  1.0000
  C   C1423     1.0  0.67029  0.51723  0.97748  1.0000
  H   H2523     1.0  0.70010  0.37652  0.02046  1.0000
  C   C1424     1.0  0.52646  0.56740  0.22049  1.0000
  H   H2524     1.0  0.72472  0.35276  0.17872  1.0000
  H   H2525     1.0  0.56733  0.54383  0.07224  1.0000
  C   C1425     1.0  0.55131  0.54708  0.14528  1.0000
  H   H2526     1.0  0.56711  0.60860  0.37114  1.0000
  H   H2527     1.0  0.75243  0.47951  0.00964  1.0000
  H   H2528     1.0  0.61640  0.66437  0.11048  1.0000
  H   H2529     1.0  0.55595  0.63697  0.37279  1.0000
  C   C1426     1.0  0.70845  0.38473  0.00415  1.0000
  C   C1427     1.0  0.53750  0.61612  0.34658  1.0000
  C   C1428     1.0  0.64728  0.67283  0.12840  1.0000
  H   H2530     1.0  0.55186  0.55731  0.16384  1.0000
  H   H2531     1.0  0.52218  0.60105  0.09772  1.0000
  S   S320      1.0  0.74741  0.42117  0.34093  1.0000
  H   H2532     1.0  0.76082  0.35998  0.10253  1.0000
  H   H2533     1.0  0.74125  0.39077  0.99237  1.0000
  H   H2534     1.0  0.71879  0.35932  0.39794  1.0000
  C   C1429     1.0  0.64953  0.67441  0.02587  1.0000
  H   H2535     1.0  0.68490  0.52791  0.42571  1.0000
  C   C1430     1.0  0.70038  0.54696  0.05417  1.0000
  C   C1431     1.0  0.55413  0.60754  0.11202  1.0000
  C   C1432     1.0  0.74887  0.36775  0.26990  1.0000
  C   C1433     1.0  0.68828  0.52592  0.05111  1.0000
  C   C1434     1.0  0.71635  0.39363  0.28559  1.0000
  H   H2536     1.0  0.53812  0.65427  0.04766  1.0000
  S   S321      1.0  0.73873  0.45707  0.40516  1.0000
  H   H2537     1.0  0.70989  0.41111  0.28736  1.0000
  Fe  Fe165     1.0  0.62614  0.58972  0.00457  1.0000
  H   H2538     1.0  0.57386  0.61762  0.06338  1.0000
  H   H2539     1.0  0.51801  0.64789  0.29869  1.0000
  H   H2540     1.0  0.72487  0.35764  0.14294  1.0000
  H   H2541     1.0  0.65208  0.64550  0.07992  1.0000
  H   H2542     1.0  0.68338  0.58806  0.17738  1.0000
  H   H2543     1.0  0.72923  0.51232  0.15894  1.0000
  C   C1435     1.0  0.61449  0.59763  0.36916  1.0000
  S   S322      1.0  0.54769  0.54595  0.22028  1.0000
  H   H2544     1.0  0.71732  0.50581  0.97532  1.0000
  C   C1436     1.0  0.71510  0.50886  0.01931  1.0000
  H   H2545     1.0  0.55370  0.52953  0.15082  1.0000
  H   H2546     1.0  0.65554  0.50907  0.98309  1.0000
  H   H2547     1.0  0.72292  0.49975  0.03682  1.0000
  H   H2548     1.0  0.56655  0.61539  0.32140  1.0000
  H   H2549     1.0  0.71409  0.48016  0.99186  1.0000
  H   H2550     1.0  0.74960  0.40181  0.28351  1.0000
  C   C1437     1.0  0.72182  0.49577  0.99331  1.0000
  H   H2551     1.0  0.55963  0.58984  0.11256  1.0000
  C   C1438     1.0  0.54199  0.57531  0.97930  1.0000
  H   H2552     1.0  0.51541  0.55917  0.36467  1.0000
  S   S323      1.0  0.61586  0.60329  0.28788  1.0000
  C   C1439     1.0  0.68653  0.58378  0.15583  1.0000
  H   H2553     1.0  0.67061  0.50338  0.42734  1.0000
  C   C1440     1.0  0.75051  0.45561  0.43781  1.0000
  H   H2554     1.0  0.65474  0.62473  0.33936  1.0000
  Fe  Fe166     1.0  0.63295  0.63114  0.97483  1.0000
  H   H2555     1.0  0.53869  0.54891  0.27982  1.0000
  H   H2556     1.0  0.65509  0.46004  0.04359  1.0000
  H   H2557     1.0  0.67781  0.56913  0.15072  1.0000
  H   H2558     1.0  0.69421  0.51485  0.06781  1.0000
  H   H2559     1.0  0.75317  0.36261  0.29091  1.0000
  H   H2560     1.0  0.61317  0.62358  0.34016  1.0000
  C   C1441     1.0  0.57180  0.57655  0.05796  1.0000
  H   H2561     1.0  0.64734  0.52042  0.46460  1.0000
  S   S324      1.0  0.59645  0.62014  0.44272  1.0000
  C   C1442     1.0  0.67791  0.60271  0.13773  1.0000
  H   H2562     1.0  0.70041  0.63142  0.09519  1.0000
  H   H2563     1.0  0.71805  0.38675  0.30619  1.0000
  C   C1443     1.0  0.55392  0.62180  0.27178  1.0000
  S   S325      1.0  0.76364  0.40342  0.08730  1.0000
  H   H2564     1.0  0.63389  0.66742  0.02546  1.0000
  S   S326      1.0  0.61087  0.61016  0.15485  1.0000
  H   H2565     1.0  0.56563  0.58026  0.31234  1.0000
  C   C1444     1.0  0.66917  0.52133  0.43112  1.0000
  H   H2566     1.0  0.57027  0.61249  0.27476  1.0000
  H   H2567     1.0  0.70738  0.61881  0.13869  1.0000
  H   H2568     1.0  0.53743  0.57397  0.06817  1.0000
  H   H2569     1.0  0.68935  0.62639  0.16604  1.0000
  H   H2570     1.0  0.66170  0.54462  0.46302  1.0000
  H   H2571     1.0  0.72673  0.64592  0.15021  1.0000
  N   N82       1.0  0.53841  0.61711  0.29409  1.0000
  H   H2572     1.0  0.54275  0.63241  0.14188  1.0000
  S   S327      1.0  0.61833  0.56371  0.40549  1.0000
  H   H2573     1.0  0.56517  0.55075  0.13224  1.0000
  H   H2574     1.0  0.70427  0.38483  0.27379  1.0000
  C   C1445     1.0  0.54692  0.58468  0.05569  1.0000
  H   H2575     1.0  0.54749  0.61613  0.25201  1.0000
  C   C1446     1.0  0.65624  0.49493  0.03730  1.0000
  H   H2576     1.0  0.69155  0.65862  0.45077  1.0000
  H   H2577     1.0  0.69026  0.48156  0.04062  1.0000
  H   H2578     1.0  0.71848  0.54274  0.05549  1.0000
  C   C1447     1.0  0.74884  0.44315  0.23916  1.0000
  C   C1448     1.0  0.54929  0.55330  0.29704  1.0000
  H   H2579     1.0  0.69649  0.54878  0.09792  1.0000
  H   H2580     1.0  0.71893  0.45950  0.45731  1.0000
  C   C1449     1.0  0.61474  0.61103  0.10024  1.0000
  Fe  Fe167     1.0  0.61078  0.58515  0.44246  1.0000
  H   H2581     1.0  0.66002  0.62141  0.04126  1.0000
  H   H2582     1.0  0.60848  0.62802  0.10203  1.0000
  H   H2583     1.0  0.65981  0.61841  0.09124  1.0000
  S   S328      1.0  0.53631  0.61967  0.47274  1.0000
  H   H2584     1.0  0.56588  0.57710  0.27615  1.0000
  H   H2585     1.0  0.61441  0.60857  0.38643  1.0000
  C   C1450     1.0  0.71941  0.65911  0.13691  1.0000
  C   C1451     1.0  0.67416  0.62591  0.05382  1.0000
  Fe  Fe168     1.0  0.75973  0.44634  0.36907  1.0000
  C   C1452     1.0  0.68462  0.65204  0.38769  1.0000
  C   C1453     1.0  0.61384  0.60609  0.34293  1.0000
  C   C1454     1.0  0.54908  0.62262  0.32064  1.0000
  N   N83       1.0  0.68118  0.64410  0.12939  1.0000
  H   H2586     1.0  0.57927  0.58141  0.07724  1.0000
  H   H2587     1.0  0.54262  0.58092  0.03436  1.0000
  H   H2588     1.0  0.57662  0.66625  0.24290  1.0000
  S   S329      1.0  0.75054  0.45598  0.09356  1.0000
  H   H2589     1.0  0.68160  0.63952  0.04389  1.0000
  C   C1455     1.0  0.62042  0.60207  0.07488  1.0000
  H   H2590     1.0  0.68657  0.61149  0.05487  1.0000
  H   H2591     1.0  0.53433  0.54235  0.98698  1.0000
  H   H2592     1.0  0.70055  0.36755  0.42548  1.0000
  C   C1456     1.0  0.74717  0.35928  0.34659  1.0000
  C   C1457     1.0  0.55552  0.57669  0.29440  1.0000
  H   H2593     1.0  0.68729  0.65798  0.09031  1.0000
  H   H2594     1.0  0.57398  0.65803  0.02677  1.0000
  C   C1458     1.0  0.66708  0.62586  0.35583  1.0000
  C   C1459     1.0  0.57361  0.64879  0.24477  1.0000
  H   H2595     1.0  0.70449  0.57956  0.15285  1.0000
  C   C1460     1.0  0.65726  0.64968  0.13663  1.0000
  H   H2596     1.0  0.69659  0.55805  0.03691  1.0000
  H   H2597     1.0  0.73620  0.39900  0.25120  1.0000
  C   C1461     1.0  0.74681  0.49015  0.99248  1.0000
  H   H2598     1.0  0.55018  0.64055  0.32248  1.0000
  C   C1462     1.0  0.76203  0.36912  0.22315  1.0000
  H   H2599     1.0  0.64597  0.50842  0.02731  1.0000
  H   H2600     1.0  0.65588  0.52899  0.41786  1.0000
  H   H2601     1.0  0.62852  0.47557  0.04146  1.0000
  H   H2602     1.0  0.66820  0.65996  0.34852  1.0000
  H   H2603     1.0  0.64426  0.46963  0.01119  1.0000
  H   H2604     1.0  0.74533  0.49478  0.13565  1.0000
  C   C1463     1.0  0.64541  0.47369  0.03302  1.0000
  H   H2605     1.0  0.59342  0.54642  0.05641  1.0000
  S   S330      1.0  0.65138  0.59769  0.97465  1.0000
  H   H2606     1.0  0.56889  0.54599  0.03584  1.0000
  C   C1464     1.0  0.73868  0.39183  0.27153  1.0000
  C   C1465     1.0  0.55168  0.61980  0.37158  1.0000
  C   C1466     1.0  0.55784  0.62254  0.05338  1.0000
  C   C1467     1.0  0.57222  0.65981  0.04899  1.0000
  C   C1468     1.0  0.52938  0.55228  0.13043  1.0000
  Fe  Fe169     1.0  0.75822  0.44171  0.30742  1.0000
  H   H2607     1.0  0.51391  0.63408  0.26761  1.0000
  C   C1469     1.0  0.70626  0.67485  0.41654  1.0000
  H   H2608     1.0  0.52697  0.62872  0.09547  1.0000
  C   C1470     1.0  0.73663  0.45755  0.46028  1.0000
  H   H2609     1.0  0.55928  0.57181  0.98393  1.0000
  H   H2610     1.0  0.68359  0.62036  0.34760  1.0000
  H   H2611     1.0  0.51468  0.62025  0.20100  1.0000
  C   C1471     1.0  0.70751  0.65867  0.44039  1.0000
  H   H2612     1.0  0.53059  0.55581  0.42392  1.0000
  C   C1472     1.0  0.73343  0.38174  0.00828  1.0000
  H   H2613     1.0  0.74419  0.36739  0.21950  1.0000
  H   H2614     1.0  0.56717  0.65189  0.28699  1.0000
  H   H2615     1.0  0.66314  0.61477  0.37227  1.0000
  C   C1473     1.0  0.54704  0.61444  0.14064  1.0000
  H   H2616     1.0  0.53437  0.59864  0.34635  1.0000
  C   C1474     1.0  0.52775  0.55864  0.98128  1.0000
  C   C1475     1.0  0.55314  0.64750  0.05862  1.0000
  H   H2617     1.0  0.58103  0.58345  0.04134  1.0000
  C   C1476     1.0  0.57546  0.55165  0.05544  1.0000
  H   H2618     1.0  0.73534  0.35789  0.26334  1.0000
  H   H2619     1.0  0.55108  0.65108  0.08049  1.0000
  H   H2620     1.0  0.68148  0.64070  0.40428  1.0000
  H   H2621     1.0  0.52709  0.57014  0.12736  1.0000
  H   H2622     1.0  0.53081  0.54393  0.11041  1.0000
  H   H2623     1.0  0.52279  0.58867  0.30702  1.0000
  H   H2624     1.0  0.56583  0.64343  0.22574  1.0000
  H   H2625     1.0  0.52680  0.58992  0.27201  1.0000
  H   H2626     1.0  0.58979  0.63906  0.24769  1.0000
  H   H2627     1.0  0.66100  0.66819  0.42787  1.0000
  H   H2628     1.0  0.54706  0.54990  0.39431  1.0000
  H   H2629     1.0  0.73682  0.35028  0.02733  1.0000
  H   H2630     1.0  0.56095  0.61995  0.03137  1.0000
  C   C1477     1.0  0.66354  0.52656  0.46062  1.0000
  C   C1478     1.0  0.74229  0.35726  0.00816  1.0000
  H   H2631     1.0  0.69042  0.66555  0.16191  1.0000
  C   C1479     1.0  0.51946  0.61548  0.04610  1.0000
  C   C1480     1.0  0.72484  0.66422  0.46127  1.0000
  S   S331      1.0  0.65504  0.65889  0.97347  1.0000
  H   H2632     1.0  0.75561  0.64870  0.98156  1.0000
  C   C1481     1.0  0.75983  0.65905  0.99903  1.0000
  H   H2633     1.0  0.61539  0.66915  0.14662  1.0000
  H   H2634     1.0  0.75571  0.37452  0.16883  1.0000
  H   H2635     1.0  0.76072  0.51302  0.19003  1.0000
  C   C1482     1.0  0.66312  0.67234  0.00326  1.0000
  H   H2636     1.0  0.74767  0.37770  0.46718  1.0000
  H   H2637     1.0  0.75724  0.40426  0.46687  1.0000
  C   C1483     1.0  0.73077  0.34462  0.34688  1.0000
  H   H2638     1.0  0.75136  0.48121  0.97341  1.0000
  C   C1484     1.0  0.75625  0.34436  0.09539  1.0000
  C   C1485     1.0  0.72188  0.63061  0.64634  1.0000
  S   S332      1.0  0.61646  0.55950  0.53874  1.0000
  Fe  Fe170     1.0  0.71914  0.45891  0.59344  1.0000
  H   H2639     1.0  0.67712  0.54228  0.94868  1.0000
  S   S333      1.0  0.69142  0.48570  0.59783  1.0000
  Fe  Fe171     1.0  0.73485  0.41092  0.58213  1.0000
  H   H2640     1.0  0.52053  0.62036  0.73993  1.0000
  S   S334      1.0  0.72385  0.37758  0.57245  1.0000
  H   H2641     1.0  0.74320  0.65556  0.63343  1.0000
  S   S335      1.0  0.74191  0.43531  0.90195  1.0000
  H   H2642     1.0  0.69753  0.48876  0.74904  1.0000
  H   H2643     1.0  0.62445  0.48301  0.53121  1.0000
  S   S336      1.0  0.72580  0.42981  0.62008  1.0000
  S   S337      1.0  0.72423  0.43920  0.55518  1.0000
  Fe  Fe172     1.0  0.62422  0.58338  0.75279  1.0000
  S   S338      1.0  0.61625  0.54854  0.75536  1.0000
  S   S339      1.0  0.62710  0.60597  0.78868  1.0000
  Fe  Fe173     1.0  0.62161  0.58318  0.69107  1.0000
  S   S340      1.0  0.61282  0.54868  0.68918  1.0000
  H   H2644     1.0  0.55281  0.59263  0.73836  1.0000
  Fe  Fe174     1.0  0.59055  0.55818  0.72383  1.0000
  Fe  Fe175     1.0  0.63944  0.54276  0.72038  1.0000
  S   S341      1.0  0.66502  0.51390  0.71726  1.0000
  S   S342      1.0  0.59705  0.59334  0.72326  1.0000
  S   S343      1.0  0.64970  0.57685  0.72042  1.0000
  H   H2645     1.0  0.64266  0.54728  0.85466  1.0000
  H   H2646     1.0  0.56022  0.63693  0.90894  1.0000
  S   S344      1.0  0.73926  0.42379  0.76875  1.0000
  H   H2647     1.0  0.67599  0.55797  0.78405  1.0000
  H   H2648     1.0  0.68776  0.66363  0.62875  1.0000
  H   H2649     1.0  0.53944  0.60462  0.90708  1.0000
  H   H2650     1.0  0.73260  0.47540  0.70987  1.0000
  H   H2651     1.0  0.61031  0.53452  0.94078  1.0000
  Fe  Fe176     1.0  0.57316  0.60935  0.47391  1.0000
  C   C1486     1.0  0.64877  0.43938  0.71712  1.0000
  H   H2652     1.0  0.63991  0.47958  0.64882  1.0000
  S   S345      1.0  0.63618  0.56748  0.90678  1.0000
  H   H2653     1.0  0.55465  0.61705  0.68720  1.0000
  H   H2654     1.0  0.73170  0.63109  0.59709  1.0000
  H   H2655     1.0  0.75377  0.48533  0.67118  1.0000
  H   H2656     1.0  0.73935  0.38465  0.51823  1.0000
  C   C1487     1.0  0.51675  0.62882  0.66517  1.0000
  H   H2657     1.0  0.74184  0.52108  0.73207  1.0000
  C   C1488     1.0  0.55737  0.55819  0.64472  1.0000
  Fe  Fe177     1.0  0.61982  0.62462  0.47768  1.0000
  H   H2658     1.0  0.58322  0.64186  0.71957  1.0000
  H   H2659     1.0  0.55430  0.58315  0.67516  1.0000
  H   H2660     1.0  0.74672  0.41196  0.51333  1.0000
  C   C1489     1.0  0.68492  0.64646  0.63350  1.0000
  H   H2661     1.0  0.71498  0.62652  0.66616  1.0000
  H   H2662     1.0  0.56651  0.65281  0.62967  1.0000
  H   H2663     1.0  0.68470  0.60707  0.60571  1.0000
  H   H2664     1.0  0.72522  0.50734  0.49844  1.0000
  H   H2665     1.0  0.75493  0.47241  0.76346  1.0000
  C   C1490     1.0  0.73940  0.42774  0.71433  1.0000
  C   C1491     1.0  0.74872  0.43177  0.68945  1.0000
  H   H2666     1.0  0.72267  0.42327  0.71510  1.0000
  H   H2667     1.0  0.73915  0.43020  0.67141  1.0000
  C   C1492     1.0  0.53207  0.63036  0.64050  1.0000
  H   H2668     1.0  0.55071  0.65986  0.67534  1.0000
  C   C1493     1.0  0.73639  0.43579  0.95681  1.0000
  H   H2669     1.0  0.55209  0.58909  0.86224  1.0000
  C   C1494     1.0  0.56777  0.65119  0.71251  1.0000
  H   H2670     1.0  0.73461  0.45815  0.50365  1.0000
  H   H2671     1.0  0.71896  0.43859  0.95223  1.0000
  C   C1495     1.0  0.68554  0.49435  0.63116  1.0000
  C   C1496     1.0  0.67139  0.51335  0.63583  1.0000
  C   C1497     1.0  0.66569  0.51994  0.66228  1.0000
  C   C1498     1.0  0.67384  0.50739  0.68415  1.0000
  C   C1499     1.0  0.68834  0.48866  0.67949  1.0000
  C   C1500     1.0  0.69427  0.48220  0.65309  1.0000
  H   H2672     1.0  0.66466  0.52288  0.61896  1.0000
  H   H2673     1.0  0.65476  0.53457  0.66564  1.0000
  H   H2674     1.0  0.69463  0.47882  0.69626  1.0000
  H   H2675     1.0  0.70530  0.46762  0.64973  1.0000
  C   C1501     1.0  0.61920  0.57182  0.57067  1.0000
  C   C1502     1.0  0.62047  0.55882  0.59374  1.0000
  C   C1503     1.0  0.62231  0.56840  0.61943  1.0000
  C   C1504     1.0  0.62298  0.59102  0.62221  1.0000
  H   H2676     1.0  0.61998  0.54131  0.59170  1.0000
  H   H2677     1.0  0.62349  0.55823  0.63695  1.0000
  C   C1505     1.0  0.64186  0.45882  0.69836  1.0000
  C   C1506     1.0  0.62965  0.59495  0.82131  1.0000
  C   C1507     1.0  0.63551  0.57266  0.82533  1.0000
  C   C1508     1.0  0.63794  0.56450  0.85166  1.0000
  H   H2678     1.0  0.63848  0.56177  0.80818  1.0000
  Fe  Fe178     1.0  0.60959  0.58276  0.50419  1.0000
  N   N84       1.0  0.55895  0.56120  0.88848  1.0000
  C   C1509     1.0  0.56287  0.54682  0.86370  1.0000
  H   H2679     1.0  0.62310  0.62134  0.60091  1.0000
  C   C1510     1.0  0.56225  0.58434  0.88044  1.0000
  C   C1511     1.0  0.57456  0.55471  0.91155  1.0000
  C   C1512     1.0  0.58214  0.52998  0.91454  1.0000
  C   C1513     1.0  0.58519  0.54845  0.84939  1.0000
  C   C1514     1.0  0.55727  0.60236  0.90232  1.0000
  H   H2680     1.0  0.67717  0.56675  0.65824  1.0000
  H   H2681     1.0  0.53510  0.55730  0.56423  1.0000
  C   C1515     1.0  0.59018  0.52983  0.82898  1.0000
  H   H2682     1.0  0.55242  0.55522  0.62346  1.0000
  H   H2683     1.0  0.62009  0.60445  0.55573  1.0000
  H   H2684     1.0  0.56182  0.52937  0.86838  1.0000
  H   H2685     1.0  0.72628  0.65166  0.47726  1.0000
  Fe  Fe179     1.0  0.75937  0.44676  0.55878  1.0000
  H   H2686     1.0  0.57975  0.58551  0.87472  1.0000
  H   H2687     1.0  0.59000  0.56296  0.90995  1.0000
  H   H2688     1.0  0.56721  0.56078  0.93104  1.0000
  H   H2689     1.0  0.59311  0.52413  0.89770  1.0000
  H   H2690     1.0  0.70648  0.59206  0.65961  1.0000
  H   H2691     1.0  0.58480  0.56401  0.83812  1.0000
  H   H2692     1.0  0.59891  0.54805  0.86426  1.0000
  H   H2693     1.0  0.56675  0.59818  0.92105  1.0000
  H   H2694     1.0  0.73235  0.63319  0.54688  1.0000
  C   C1516     1.0  0.62231  0.60390  0.59907  1.0000
  H   H2695     1.0  0.68668  0.61603  0.93503  1.0000
  H   H2696     1.0  0.68918  0.55116  0.50614  1.0000
  H   H2697     1.0  0.66257  0.62247  0.91397  1.0000
  H   H2698     1.0  0.69141  0.54432  0.81115  1.0000
  H   H2699     1.0  0.57691  0.52999  0.81341  1.0000
  H   H2700     1.0  0.60598  0.53192  0.81876  1.0000
  H   H2701     1.0  0.59183  0.51379  0.83924  1.0000
  S   S346      1.0  0.62444  0.60377  0.65417  1.0000
  C   C1517     1.0  0.56453  0.62526  0.67242  1.0000
  H   H2702     1.0  0.69065  0.58073  0.54170  1.0000
  N   N85       1.0  0.67750  0.51902  0.50960  1.0000
  C   C1518     1.0  0.69631  0.50647  0.52445  1.0000
  C   C1519     1.0  0.65591  0.50958  0.51536  1.0000
  H   H2703     1.0  0.75881  0.51112  0.68668  1.0000
  C   C1520     1.0  0.67585  0.54321  0.51623  1.0000
  C   C1521     1.0  0.67628  0.54978  0.54648  1.0000
  C   C1522     1.0  0.71970  0.51330  0.51874  1.0000
  C   C1523     1.0  0.65318  0.49957  0.54358  1.0000
  C   C1524     1.0  0.67554  0.57462  0.54997  1.0000
  C   C1525     1.0  0.73654  0.50338  0.53924  1.0000
  H   H2704     1.0  0.69661  0.48867  0.51951  1.0000
  H   H2705     1.0  0.69386  0.50763  0.54656  1.0000
  C   C1526     1.0  0.54973  0.58160  0.65359  1.0000
  H   H2706     1.0  0.68609  0.64183  0.57086  1.0000
  H   H2707     1.0  0.73692  0.65022  0.69438  1.0000
  H   H2708     1.0  0.66028  0.55146  0.50776  1.0000
  H   H2709     1.0  0.69144  0.54261  0.55682  1.0000
  H   H2710     1.0  0.66169  0.54459  0.55680  1.0000
  H   H2711     1.0  0.71537  0.65659  0.59990  1.0000
  H   H2712     1.0  0.68217  0.50464  0.96830  1.0000
  H   H2713     1.0  0.53032  0.64794  0.63482  1.0000
  H   H2714     1.0  0.66416  0.48414  0.54544  1.0000
  H   H2715     1.0  0.65727  0.51067  0.56021  1.0000
  H   H2716     1.0  0.54961  0.55083  0.84839  1.0000
  H   H2717     1.0  0.66085  0.58282  0.53952  1.0000
  C   C1527     1.0  0.52765  0.53864  0.90528  1.0000
  H   H2718     1.0  0.71998  0.66644  0.65320  1.0000
  H   H2719     1.0  0.75947  0.48194  0.72038  1.0000
  H   H2720     1.0  0.70466  0.56207  0.78878  1.0000
  H   H2721     1.0  0.55427  0.59553  0.61513  1.0000
  H   H2722     1.0  0.65697  0.62654  0.62902  1.0000
  C   C1528     1.0  0.68703  0.45966  0.78566  1.0000
  S   S347      1.0  0.75257  0.39875  0.83891  1.0000
  H   H2723     1.0  0.69305  0.44485  0.77384  1.0000
  S   S348      1.0  0.63575  0.59012  0.47513  1.0000
  C   C1529     1.0  0.68764  0.65822  0.91496  1.0000
  H   H2724     1.0  0.66129  0.64231  0.60008  1.0000
  C   C1530     1.0  0.73587  0.66588  0.92443  1.0000
  C   C1531     1.0  0.65021  0.67219  0.55580  1.0000
  H   H2725     1.0  0.54447  0.64392  0.81656  1.0000
  S   S349      1.0  0.64369  0.65104  0.47789  1.0000
  C   C1532     1.0  0.70291  0.63358  0.57180  1.0000
  C   C1533     1.0  0.64256  0.66157  0.53263  1.0000
  H   H2726     1.0  0.69136  0.66854  0.86128  1.0000
  H   H2727     1.0  0.74844  0.48530  0.79458  1.0000
  C   C1534     1.0  0.75812  0.65730  0.75189  1.0000
  Fe  Fe180     1.0  0.76085  0.43848  0.61970  1.0000
  H   H2728     1.0  0.72545  0.34724  0.78191  1.0000
  H   H2729     1.0  0.69808  0.53676  0.75021  1.0000
  H   H2730     1.0  0.65327  0.49597  0.50093  1.0000
  H   H2731     1.0  0.76070  0.35379  0.50336  1.0000
  H   H2732     1.0  0.62171  0.62625  0.84075  1.0000
  C   C1535     1.0  0.66182  0.64243  0.62225  1.0000
  C   C1536     1.0  0.53648  0.62952  0.80883  1.0000
  C   C1537     1.0  0.69237  0.63591  0.90008  1.0000
  H   H2733     1.0  0.67861  0.42849  0.69465  1.0000
  H   H2734     1.0  0.64045  0.42486  0.71056  1.0000
  C   C1538     1.0  0.57645  0.64868  0.57838  1.0000
  H   H2735     1.0  0.66809  0.57691  0.62576  1.0000
  H   H2736     1.0  0.64168  0.52204  0.51189  1.0000
  H   H2737     1.0  0.62847  0.65216  0.53385  1.0000
  H   H2738     1.0  0.67826  0.41879  0.72881  1.0000
  H   H2739     1.0  0.69527  0.56273  0.62968  1.0000
  H   H2740     1.0  0.73243  0.34955  0.74703  1.0000
  H   H2741     1.0  0.53354  0.54264  0.53270  1.0000
  C   C1539     1.0  0.74173  0.35434  0.58079  1.0000
  H   H2742     1.0  0.65342  0.47142  0.70232  1.0000
  C   C1540     1.0  0.65290  0.66358  0.50784  1.0000
  H   H2743     1.0  0.72887  0.38335  0.67205  1.0000
  C   C1541     1.0  0.62608  0.60896  0.84375  1.0000
  H   H2744     1.0  0.71600  0.51219  0.72317  1.0000
  N   N86       1.0  0.61844  0.46919  0.70043  1.0000
  C   C1542     1.0  0.61485  0.47853  0.72855  1.0000
  C   C1543     1.0  0.61598  0.48813  0.68109  1.0000
  C   C1544     1.0  0.60213  0.45309  0.69245  1.0000
  C   C1545     1.0  0.59363  0.43907  0.71527  1.0000
  C   C1546     1.0  0.59315  0.49356  0.73260  1.0000
  C   C1547     1.0  0.62176  0.48270  0.65118  1.0000
  C   C1548     1.0  0.58053  0.42100  0.70372  1.0000
  C   C1549     1.0  0.58769  0.49687  0.76247  1.0000
  C   C1550     1.0  0.61403  0.50185  0.63293  1.0000
  H   H2745     1.0  0.62862  0.48844  0.73443  1.0000
  H   H2746     1.0  0.61546  0.46546  0.74377  1.0000
  H   H2747     1.0  0.62646  0.50110  0.68785  1.0000
  H   H2748     1.0  0.59873  0.49596  0.68110  1.0000
  H   H2749     1.0  0.58708  0.46170  0.68306  1.0000
  H   H2750     1.0  0.60927  0.44175  0.67640  1.0000
  H   H2751     1.0  0.58247  0.44939  0.72881  1.0000
  H   H2752     1.0  0.60717  0.43127  0.72785  1.0000
  H   H2753     1.0  0.59495  0.50993  0.72408  1.0000
  H   H2754     1.0  0.57896  0.48686  0.72224  1.0000
  H   H2755     1.0  0.61395  0.46811  0.64386  1.0000
  H   H2756     1.0  0.59122  0.40954  0.69086  1.0000
  H   H2757     1.0  0.57419  0.41158  0.72045  1.0000
  H   H2758     1.0  0.56625  0.42810  0.69155  1.0000
  H   H2759     1.0  0.58417  0.48118  0.77160  1.0000
  H   H2760     1.0  0.60163  0.50348  0.77350  1.0000
  H   H2761     1.0  0.57286  0.50876  0.76459  1.0000
  H   H2762     1.0  0.61946  0.49806  0.61196  1.0000
  H   H2763     1.0  0.59577  0.50492  0.63299  1.0000
  H   H2764     1.0  0.62130  0.51693  0.63968  1.0000
  H   H2765     1.0  0.74359  0.66664  0.76126  1.0000
  C   C1551     1.0  0.68256  0.57427  0.63948  1.0000
  H   H2766     1.0  0.52657  0.52978  0.56352  1.0000
  C   C1552     1.0  0.74690  0.49853  0.68510  1.0000
  C   C1553     1.0  0.74320  0.48894  0.71278  1.0000
  S   S350      1.0  0.75361  0.46872  0.59513  1.0000
  H   H2767     1.0  0.75611  0.66600  0.67785  1.0000
  N   N87       1.0  0.70432  0.63084  0.62456  1.0000
  S   S351      1.0  0.61001  0.62332  0.94072  1.0000
  C   C1554     1.0  0.73263  0.65233  0.65078  1.0000
  H   H2768     1.0  0.54805  0.63279  0.58970  1.0000
  H   H2769     1.0  0.58767  0.63091  0.62961  1.0000
  H   H2770     1.0  0.73667  0.48532  0.53923  1.0000
  C   C1555     1.0  0.56558  0.64935  0.68185  1.0000
  H   H2771     1.0  0.68325  0.64634  0.65587  1.0000
  H   H2772     1.0  0.53731  0.62932  0.78645  1.0000
  H   H2773     1.0  0.73585  0.35598  0.65842  1.0000
  H   H2774     1.0  0.76263  0.38222  0.70616  1.0000
  H   H2775     1.0  0.75023  0.35416  0.82887  1.0000
  C   C1556     1.0  0.56589  0.63159  0.59479  1.0000
  C   C1557     1.0  0.68190  0.51617  0.47975  1.0000
  H   H2776     1.0  0.68221  0.45439  0.80593  1.0000
  H   H2777     1.0  0.67933  0.60630  0.65818  1.0000
  H   H2778     1.0  0.52404  0.56773  0.88055  1.0000
  C   C1558     1.0  0.56361  0.62445  0.89271  1.0000
  H   H2779     1.0  0.75945  0.36016  0.90971  1.0000
  C   C1559     1.0  0.69851  0.53043  0.77107  1.0000
  H   H2780     1.0  0.62789  0.65688  0.62378  1.0000
  C   C1560     1.0  0.53676  0.58810  0.73246  1.0000
  H   H2781     1.0  0.55345  0.64488  0.72252  1.0000
  H   H2782     1.0  0.55387  0.62975  0.87451  1.0000
  H   H2783     1.0  0.71019  0.39005  0.48287  1.0000
  H   H2784     1.0  0.64320  0.65971  0.65467  1.0000
  H   H2785     1.0  0.70654  0.63872  0.52890  1.0000
  C   C1561     1.0  0.73940  0.37336  0.65745  1.0000
  H   H2786     1.0  0.61804  0.50910  0.54827  1.0000
  C   C1562     1.0  0.68071  0.61815  0.91389  1.0000
  H   H2787     1.0  0.75423  0.64014  0.74876  1.0000
  H   H2788     1.0  0.53166  0.57175  0.91490  1.0000
  C   C1563     1.0  0.75052  0.48876  0.77283  1.0000
  H   H2789     1.0  0.74484  0.36914  0.95479  1.0000
  H   H2790     1.0  0.58501  0.53089  0.95846  1.0000
  C   C1564     1.0  0.69238  0.54986  0.79000  1.0000
  S   S352      1.0  0.59500  0.61753  0.50893  1.0000
  H   H2791     1.0  0.69306  0.65602  0.93636  1.0000
  H   H2792     1.0  0.62537  0.61169  0.88711  1.0000
  H   H2793     1.0  0.53273  0.52531  0.89079  1.0000
  H   H2794     1.0  0.70218  0.61577  0.56852  1.0000
  H   H2795     1.0  0.73543  0.61754  0.64205  1.0000
  C   C1565     1.0  0.71733  0.40423  0.49256  1.0000
  C   C1566     1.0  0.62041  0.59436  0.57339  1.0000
  C   C1567     1.0  0.63402  0.57847  0.87409  1.0000
  C   C1568     1.0  0.56032  0.59835  0.63601  1.0000
  S   S353      1.0  0.55666  0.54637  0.72301  1.0000
  Fe  Fe181     1.0  0.62701  0.58941  0.94275  1.0000
  H   H2796     1.0  0.73517  0.37934  0.63683  1.0000
  C   C1569     1.0  0.67364  0.43302  0.71564  1.0000
  C   C1570     1.0  0.71436  0.63856  0.59897  1.0000
  C   C1571     1.0  0.74550  0.45683  0.48657  1.0000
  H   H2797     1.0  0.64491  0.44331  0.73851  1.0000
  H   H2798     1.0  0.71907  0.46757  0.74969  1.0000
  H   H2799     1.0  0.67439  0.57900  0.57173  1.0000
  H   H2800     1.0  0.68291  0.44679  0.72272  1.0000
  H   H2801     1.0  0.57558  0.55507  0.64665  1.0000
  H   H2802     1.0  0.64541  0.45247  0.67760  1.0000
  C   C1572     1.0  0.62812  0.60074  0.87005  1.0000
  H   H2803     1.0  0.71923  0.46627  0.79954  1.0000
  C   C1573     1.0  0.62955  0.49395  0.54768  1.0000
  H   H2804     1.0  0.73256  0.50983  0.55984  1.0000
  H   H2805     1.0  0.58152  0.61703  0.67458  1.0000
  C   C1574     1.0  0.73225  0.50654  0.73240  1.0000
  H   H2806     1.0  0.72207  0.51491  0.79983  1.0000
  H   H2807     1.0  0.62852  0.48535  0.56710  1.0000
  H   H2808     1.0  0.66937  0.66145  0.91576  1.0000
  C   C1575     1.0  0.76043  0.66224  0.91770  1.0000
  H   H2809     1.0  0.59449  0.64785  0.58236  1.0000
  C   C1576     1.0  0.53520  0.56097  0.89696  1.0000
  H   H2810     1.0  0.57842  0.59352  0.63575  1.0000
  H   H2811     1.0  0.53154  0.58358  0.65125  1.0000
  H   H2812     1.0  0.68631  0.63682  0.87893  1.0000
  C   C1577     1.0  0.74718  0.65113  0.67612  1.0000
  H   H2813     1.0  0.72552  0.65976  0.88306  1.0000
  H   H2814     1.0  0.60040  0.50788  0.94234  1.0000
  H   H2815     1.0  0.76106  0.66470  0.73211  1.0000
  C   C1578     1.0  0.69842  0.60768  0.62057  1.0000
  C   C1579     1.0  0.56972  0.63494  0.62554  1.0000
  C   C1580     1.0  0.53363  0.59653  0.97242  1.0000
  C   C1581     1.0  0.69183  0.59595  0.64641  1.0000
  C   C1582     1.0  0.76214  0.35632  0.59329  1.0000
  H   H2816     1.0  0.71260  0.59737  0.61158  1.0000
  H   H2817     1.0  0.70660  0.41010  0.50965  1.0000
  H   H2818     1.0  0.68554  0.51905  0.77293  1.0000
  C   C1583     1.0  0.53412  0.56656  0.72443  1.0000
  C   C1584     1.0  0.64424  0.66001  0.63233  1.0000
  H   H2819     1.0  0.57350  0.61527  0.58813  1.0000
  H   H2820     1.0  0.68407  0.60233  0.90288  1.0000
  C   C1585     1.0  0.75159  0.43306  0.93562  1.0000
  H   H2821     1.0  0.71746  0.41762  0.47776  1.0000
  N   N88       1.0  0.55615  0.62220  0.64401  1.0000
  H   H2822     1.0  0.57381  0.64557  0.55652  1.0000
  H   H2823     1.0  0.56889  0.66540  0.58335  1.0000
  N   N89       1.0  0.72925  0.49926  0.76098  1.0000
  H   H2824     1.0  0.71673  0.65966  0.54999  1.0000
  C   C1586     1.0  0.71550  0.64178  0.54802  1.0000
  H   H2825     1.0  0.65009  0.54624  0.96380  1.0000
  H   H2826     1.0  0.72007  0.53129  0.51972  1.0000
  H   H2827     1.0  0.69850  0.48915  0.80139  1.0000
  H   H2828     1.0  0.54587  0.61451  0.81667  1.0000
  C   C1587     1.0  0.74064  0.39752  0.50307  1.0000
  H   H2829     1.0  0.75331  0.50752  0.53394  1.0000
  H   H2830     1.0  0.65585  0.52542  0.93827  1.0000
  C   C1588     1.0  0.52568  0.54556  0.55271  1.0000
  H   H2831     1.0  0.73113  0.50598  0.67637  1.0000
  C   C1589     1.0  0.66294  0.53386  0.95581  1.0000
  C   C1590     1.0  0.75172  0.42906  0.73811  1.0000
  C   C1591     1.0  0.75619  0.38961  0.47962  1.0000
  C   C1592     1.0  0.72169  0.51906  0.77802  1.0000
  H   H2832     1.0  0.73342  0.53178  0.77620  1.0000
  C   C1593     1.0  0.71250  0.48266  0.76067  1.0000
  C   C1594     1.0  0.70516  0.47515  0.78866  1.0000
  H   H2833     1.0  0.67228  0.46798  0.77548  1.0000
  H   H2834     1.0  0.58146  0.62349  0.88795  1.0000
  H   H2835     1.0  0.56813  0.51981  0.91456  1.0000
  S   S354      1.0  0.55060  0.61839  0.97159  1.0000
  Fe  Fe182     1.0  0.76181  0.41958  0.80489  1.0000
  H   H2836     1.0  0.53448  0.53425  0.92556  1.0000
  H   H2837     1.0  0.75959  0.63669  0.67524  1.0000
  H   H2838     1.0  0.71028  0.63057  0.90006  1.0000
  H   H2839     1.0  0.54976  0.54648  0.65781  1.0000
  C   C1595     1.0  0.75950  0.35703  0.95334  1.0000
  H   H2840     1.0  0.58023  0.65597  0.67298  1.0000
  C   C1596     1.0  0.72202  0.67258  0.89891  1.0000
  H   H2841     1.0  0.64181  0.67096  0.57469  1.0000
  C   C1597     1.0  0.59523  0.52564  0.94068  1.0000
  H   H2842     1.0  0.73082  0.65056  0.93300  1.0000
  H   H2843     1.0  0.76133  0.35444  0.69766  1.0000
  H   H2844     1.0  0.69720  0.52354  0.47418  1.0000
  C   C1598     1.0  0.51694  0.60006  0.47548  1.0000
  H   H2845     1.0  0.52160  0.63938  0.68211  1.0000
  H   H2846     1.0  0.54084  0.57200  0.47698  1.0000
  C   C1599     1.0  0.52357  0.57768  0.47713  1.0000
  H   H2847     1.0  0.51713  0.61199  0.67285  1.0000
  C   C1600     1.0  0.51841  0.60377  0.73358  1.0000
  H   H2848     1.0  0.68486  0.49842  0.47446  1.0000
  H   H2849     1.0  0.56838  0.66860  0.71854  1.0000
  H   H2850     1.0  0.52474  0.62169  0.62323  1.0000
  H   H2851     1.0  0.76349  0.64898  0.90236  1.0000
  C   C1601     1.0  0.67090  0.67625  0.50658  1.0000
  Fe  Fe183     1.0  0.58794  0.61199  0.97287  1.0000
  S   S355      1.0  0.60368  0.57766  0.97281  1.0000
  H   H2852     1.0  0.72403  0.79843  0.15108  1.0000
  S   S356      1.0  0.72140  0.75297  0.04813  1.0000
  C   C1602     1.0  0.68320  0.68192  0.00391  1.0000
  S   S357      1.0  0.71879  0.75274  0.11431  1.0000
  H   H2853     1.0  0.63817  0.69586  0.45766  1.0000
  Fe  Fe184     1.0  0.71359  0.72912  0.07995  1.0000
  S   S358      1.0  0.68405  0.70894  0.07953  1.0000
  C   C1603     1.0  0.69212  0.00843  0.41494  1.0000
  S   S359      1.0  0.74797  0.71225  0.08282  1.0000
  H   H2854     1.0  0.72194  0.85803  0.09204  1.0000
  H   H2855     1.0  0.73688  0.90875  0.13653  1.0000
  H   H2856     1.0  0.69045  0.70742  0.38517  1.0000
  H   H2857     1.0  0.71960  0.87039  0.39482  1.0000
  H   H2858     1.0  0.74036  0.89150  0.03548  1.0000
  C   C1604     1.0  0.65978  0.97753  0.37676  1.0000
  Fe  Fe185     1.0  0.73045  0.77484  0.08255  1.0000
  C   C1605     1.0  0.73517  0.83212  0.33801  1.0000
  H   H2859     1.0  0.70565  0.97782  0.39580  1.0000
  H   H2860     1.0  0.74818  0.78341  0.13705  1.0000
  H   H2861     1.0  0.74921  0.81141  0.14720  1.0000
  H   H2862     1.0  0.67018  0.71662  0.42032  1.0000
  S   S360      1.0  0.69435  0.98617  0.32135  1.0000
  H   H2863     1.0  0.61752  0.99623  0.09414  1.0000
  H   H2864     1.0  0.69281  0.89293  0.42354  1.0000
  H   H2865     1.0  0.64777  0.00331  0.45333  1.0000
  H   H2866     1.0  0.70750  0.71913  0.34241  1.0000
  C   C1606     1.0  0.72998  0.67990  0.14492  1.0000
  C   C1607     1.0  0.68177  0.99087  0.24096  1.0000
  C   C1608     1.0  0.69113  0.98420  0.26587  1.0000
  C   C1609     1.0  0.68315  0.99422  0.28975  1.0000
  H   H2867     1.0  0.70818  0.69160  0.42434  1.0000
  H   H2868     1.0  0.73615  0.99386  0.23994  1.0000
  H   H2869     1.0  0.71864  0.84595  0.28386  1.0000
  C   C1610     1.0  0.69274  0.98593  0.11077  1.0000
  H   H2870     1.0  0.63283  0.95779  0.38557  1.0000
  Fe  Fe186     1.0  0.75371  0.73750  0.11496  1.0000
  H   H2871     1.0  0.69519  0.95026  0.10894  1.0000
  H   H2872     1.0  0.74014  0.89966  0.43769  1.0000
  H   H2873     1.0  0.72345  0.69383  0.13217  1.0000
  C   C1611     1.0  0.70897  0.99525  0.39639  1.0000
  H   H2874     1.0  0.69884  0.94562  0.06028  1.0000
  H   H2875     1.0  0.73401  0.98966  0.42808  1.0000
  C   C1612     1.0  0.70278  0.90061  0.40834  1.0000
  C   C1613     1.0  0.65593  0.68608  0.04881  1.0000
  H   H2876     1.0  0.71795  0.83034  0.34170  1.0000
  H   H2877     1.0  0.67786  0.69999  0.44901  1.0000
  C   C1614     1.0  0.67612  0.69544  0.04964  1.0000
  C   C1615     1.0  0.68975  0.69333  0.02703  1.0000
  H   H2878     1.0  0.69134  0.99922  0.09565  1.0000
  H   H2879     1.0  0.74172  0.80398  0.01654  1.0000
  C   C1616     1.0  0.73847  0.88317  0.42884  1.0000
  S   S361      1.0  0.74424  0.95831  0.14906  1.0000
  H   H2880     1.0  0.70532  0.70048  0.02737  1.0000
  H   H2881     1.0  0.71679  0.79987  0.99810  1.0000
  S   S362      1.0  0.72765  0.93086  0.29406  1.0000
  H   H2882     1.0  0.72831  0.87472  0.44316  1.0000
  C   C1617     1.0  0.74086  0.72157  0.43197  1.0000
  C   C1618     1.0  0.72820  0.72613  0.45512  1.0000
  H   H2883     1.0  0.73439  0.73191  0.99797  1.0000
  H   H2884     1.0  0.70920  0.86633  0.25969  1.0000
  C   C1619     1.0  0.74537  0.72383  0.19056  1.0000
  C   C1620     1.0  0.64326  0.70918  0.44489  1.0000
  H   H2885     1.0  0.72664  0.68413  0.16644  1.0000
  H   H2886     1.0  0.70446  0.97130  0.26659  1.0000
  H   H2887     1.0  0.74108  0.94994  0.24668  1.0000
  C   C1621     1.0  0.74982  0.78807  0.18038  1.0000
  N   N90       1.0  0.67874  0.99241  0.13501  1.0000
  C   C1622     1.0  0.73841  0.85200  0.08584  1.0000
  C   C1623     1.0  0.66573  0.70261  0.43227  1.0000
  S   S363      1.0  0.74717  0.71048  0.27067  1.0000
  S   S364      1.0  0.74781  0.74964  0.33162  1.0000
  H   H2888     1.0  0.71784  0.89386  0.15483  1.0000
  H   H2889     1.0  0.71826  0.96407  0.07206  1.0000
  H   H2890     1.0  0.70490  0.76802  0.29494  1.0000
  H   H2891     1.0  0.73577  0.91079  0.17296  1.0000
  C   C1624     1.0  0.75481  0.71856  0.23826  1.0000
  H   H2892     1.0  0.72379  0.94081  0.46720  1.0000
  H   H2893     1.0  0.74813  0.67736  0.14220  1.0000
  C   C1625     1.0  0.75767  0.84750  0.41833  1.0000
  H   H2894     1.0  0.70863  0.00168  0.37563  1.0000
  H   H2895     1.0  0.65225  0.68513  0.14337  1.0000
  H   H2896     1.0  0.75659  0.81969  0.19630  1.0000
  H   H2897     1.0  0.71049  0.98410  0.11656  1.0000
  Fe  Fe187     1.0  0.75604  0.73739  0.05284  1.0000
  H   H2898     1.0  0.74917  0.86879  0.14031  1.0000
  H   H2899     1.0  0.73803  0.86273  0.26882  1.0000
  H   H2900     1.0  0.70634  0.91710  0.41568  1.0000
  H   H2901     1.0  0.72488  0.95764  0.20147  1.0000
  C   C1626     1.0  0.73626  0.89818  0.01515  1.0000
  Fe  Fe188     1.0  0.72121  0.95838  0.32400  1.0000
  C   C1627     1.0  0.65442  0.99511  0.12822  1.0000
  C   C1628     1.0  0.75166  0.94938  0.22936  1.0000
  H   H2902     1.0  0.67710  0.97421  0.37057  1.0000
  C   C1629     1.0  0.68853  0.96423  0.09636  1.0000
  C   C1630     1.0  0.74579  0.80674  0.20163  1.0000
  C   C1631     1.0  0.68302  0.97614  0.15753  1.0000
  C   C1632     1.0  0.66430  0.00750  0.23977  1.0000
  H   H2903     1.0  0.72553  0.91373  0.01767  1.0000
  H   H2904     1.0  0.56888  0.67749  0.05395  1.0000
  H   H2905     1.0  0.65200  0.94619  0.36062  1.0000
  C   C1633     1.0  0.66898  0.95634  0.15812  1.0000
  C   C1634     1.0  0.67818  0.93957  0.17884  1.0000
  H   H2906     1.0  0.74908  0.87121  0.17630  1.0000
  H   H2907     1.0  0.68941  0.70340  0.32239  1.0000
  H   H2908     1.0  0.69385  0.68035  0.98659  1.0000
  H   H2909     1.0  0.64836  0.97938  0.12181  1.0000
  H   H2910     1.0  0.70064  0.96974  0.15795  1.0000
  H   H2911     1.0  0.67990  0.98443  0.17735  1.0000
  C   C1635     1.0  0.66529  0.68157  0.41458  1.0000
  C   C1636     1.0  0.74773  0.82118  0.24759  1.0000
  H   H2912     1.0  0.67170  0.69391  0.36533  1.0000
  H   H2913     1.0  0.65995  0.94567  0.39571  1.0000
  S   S365      1.0  0.72242  0.81170  0.08429  1.0000
  C   C1637     1.0  0.74192  0.85295  0.33331  1.0000
  H   H2914     1.0  0.65180  0.96198  0.16409  1.0000
  H   H2915     1.0  0.66831  0.94791  0.13834  1.0000
  H   H2916     1.0  0.67828  0.94714  0.19933  1.0000
  H   H2917     1.0  0.66772  0.92573  0.17920  1.0000
  H   H2918     1.0  0.69526  0.93308  0.17353  1.0000
  C   C1638     1.0  0.72421  0.88630  0.40281  1.0000
  H   H2919     1.0  0.63054  0.71299  0.42900  1.0000
  Fe  Fe189     1.0  0.75480  0.72871  0.36799  1.0000
  H   H2920     1.0  0.68807  0.98299  0.22269  1.0000
  H   H2921     1.0  0.69243  0.99920  0.43410  1.0000
  H   H2922     1.0  0.75069  0.88373  0.08835  1.0000
  C   C1639     1.0  0.68763  0.69112  0.37652  1.0000
  H   H2923     1.0  0.73656  0.94541  0.42032  1.0000
  H   H2924     1.0  0.73341  0.72392  0.17428  1.0000
  H   H2925     1.0  0.64494  0.68818  0.06577  1.0000
  S   S366      1.0  0.72222  0.87592  0.33353  1.0000
  C   C1640     1.0  0.65761  0.99142  0.40313  1.0000
  C   C1641     1.0  0.74334  0.82958  0.08049  1.0000
  H   H2926     1.0  0.73303  0.89427  0.38685  1.0000
  Fe  Fe190     1.0  0.73435  0.90951  0.33021  1.0000
  C   C1642     1.0  0.70044  0.96205  0.06932  1.0000
  H   H2927     1.0  0.74528  0.79767  0.34200  1.0000
  H   H2928     1.0  0.65088  0.68432  0.40065  1.0000
  C   C1643     1.0  0.73943  0.71861  0.21692  1.0000
  H   H2929     1.0  0.65042  0.98620  0.36008  1.0000
  H   H2930     1.0  0.61562  0.69181  0.12380  1.0000
  S   S367      1.0  0.74491  0.96199  0.01594  1.0000
  C   C1644     1.0  0.73250  0.99597  0.40718  1.0000
  H   H2931     1.0  0.74078  0.77383  0.18547  1.0000
  C   C1645     1.0  0.73243  0.78502  0.23833  1.0000
  C   C1646     1.0  0.72511  0.78530  0.26828  1.0000
  C   C1647     1.0  0.72683  0.83713  0.24236  1.0000
  H   H2932     1.0  0.74829  0.84683  0.39900  1.0000
  H   H2933     1.0  0.71132  0.73324  0.45325  1.0000
  N   N91       1.0  0.76101  0.87088  0.42568  1.0000
  C   C1648     1.0  0.70993  0.76740  0.27346  1.0000
  C   C1649     1.0  0.72306  0.85405  0.26507  1.0000
  H   H2934     1.0  0.64424  0.72395  0.45787  1.0000
  C   C1650     1.0  0.75469  0.86665  0.08357  1.0000
  C   C1651     1.0  0.74126  0.94010  0.46313  1.0000
  S   S368      1.0  0.72404  0.93639  0.36010  1.0000
  C   C1652     1.0  0.74843  0.94268  0.43656  1.0000
  H   H2935     1.0  0.66351  0.98060  0.42006  1.0000
  H   H2936     1.0  0.72853  0.81398  0.19825  1.0000
  H   H2937     1.0  0.71696  0.78852  0.22632  1.0000
  H   H2938     1.0  0.73841  0.76783  0.23278  1.0000
  H   H2939     1.0  0.71575  0.80114  0.27356  1.0000
  H   H2940     1.0  0.73931  0.78294  0.28236  1.0000
  H   H2941     1.0  0.72877  0.84616  0.22338  1.0000
  H   H2942     1.0  0.71188  0.82819  0.24031  1.0000
  C   C1653     1.0  0.73501  0.79626  0.99819  1.0000
  C   C1654     1.0  0.74544  0.73071  0.98104  1.0000
  C   C1655     1.0  0.73937  0.00769  0.25358  1.0000
  S   S369      1.0  0.72927  0.72749  0.40007  1.0000
  H   H2943     1.0  0.69296  0.90256  0.38936  1.0000
  N   N92       1.0  0.74936  0.80036  0.23083  1.0000
  H   H2944     1.0  0.69487  0.76971  0.26060  1.0000
  H   H2945     1.0  0.71858  0.75103  0.26918  1.0000
  H   H2946     1.0  0.73921  0.77829  0.99940  1.0000
  C   C1656     1.0  0.75612  0.95355  0.18110  1.0000
  H   H2947     1.0  0.75220  0.90952  0.98048  1.0000
  H   H2948     1.0  0.74411  0.98557  0.39419  1.0000
  C   C1657     1.0  0.75723  0.90265  0.00039  1.0000
  H   H2949     1.0  0.69323  0.97460  0.05503  1.0000
  C   C1658     1.0  0.65052  0.95546  0.38002  1.0000
  H   H2950     1.0  0.72288  0.71450  0.22077  1.0000
  C   C1659     1.0  0.73459  0.89960  0.15531  1.0000
  H   H2951     1.0  0.64490  0.00022  0.14677  1.0000
  H   H2952     1.0  0.67078  0.96303  0.09222  1.0000
  C   C1660     1.0  0.74252  0.95394  0.20372  1.0000
  C   C1661     1.0  0.74231  0.79591  0.15233  1.0000
  C   C1662     1.0  0.75193  0.88002  0.15748  1.0000
  H   H2953     1.0  0.63946  0.99491  0.40601  1.0000
  S   S370      1.0  0.75619  0.96683  0.32703  1.0000
  C   C1663     1.0  0.70536  0.70273  0.33356  1.0000
  H   H2954     1.0  0.74721  0.84037  0.43353  1.0000
  H   H2955     1.0  0.71098  0.00284  0.17514  1.0000
  H   H2956     1.0  0.65544  0.00693  0.08650  1.0000
  C   C1664     1.0  0.76258  0.71217  0.43446  1.0000
  C   C1665     1.0  0.75676  0.95787  0.98376  1.0000
  H   H2957     1.0  0.74405  0.00126  0.27390  1.0000
  H   H2958     1.0  0.72698  0.88643  0.00349  1.0000
  C   C1666     1.0  0.70623  0.68553  0.35564  1.0000
  S   S371      1.0  0.75472  0.92876  0.08010  1.0000
  H   H2959     1.0  0.74868  0.81774  0.26951  1.0000
  H   H2960     1.0  0.68860  0.67798  0.12964  1.0000
  C   C1667     1.0  0.75060  0.81359  0.33807  1.0000
  H   H2961     1.0  0.65336  0.67725  0.10846  1.0000
  H   H2962     1.0  0.71889  0.69853  0.31901  1.0000
  Fe  Fe191     1.0  0.75969  0.94254  0.36074  1.0000
  H   H2963     1.0  0.71989  0.68032  0.47094  1.0000
  Fe  Fe192     1.0  0.76292  0.93806  0.29900  1.0000
  H   H2964     1.0  0.72272  0.68522  0.36538  1.0000
  H   H2965     1.0  0.74119  0.82321  0.97324  1.0000
  H   H2966     1.0  0.76313  0.80130  0.97481  1.0000
  H   H2967     1.0  0.76310  0.86890  0.98863  1.0000
  H   H2968     1.0  0.75442  0.67641  0.99434  1.0000
  H   H2969     1.0  0.76102  0.80720  0.39275  1.0000
  H   H2970     1.0  0.76223  0.83043  0.24386  1.0000
  H   H2971     1.0  0.72333  0.83067  0.83917  1.0000
  S   S372      1.0  0.71823  0.73810  0.55238  1.0000
  C   C1668     1.0  0.74318  0.95410  0.96150  1.0000
  S   S373      1.0  0.72096  0.73363  0.61837  1.0000
  N   N93       1.0  0.71666  0.99596  0.68476  1.0000
  Fe  Fe193     1.0  0.71028  0.71341  0.58305  1.0000
  C   C1669     1.0  0.75655  0.93659  0.48440  1.0000
  Fe  Fe194     1.0  0.73238  0.75631  0.58729  1.0000
  S   S374      1.0  0.74290  0.69313  0.58043  1.0000
  H   H2972     1.0  0.65804  0.87426  0.60707  1.0000
  H   H2973     1.0  0.69127  0.96035  0.77937  1.0000
  C   C1670     1.0  0.67889  0.68638  0.52981  1.0000
  H   H2974     1.0  0.74145  0.77860  0.66306  1.0000
  S   S375      1.0  0.75189  0.75091  0.82869  1.0000
  S   S376      1.0  0.73954  0.72968  0.89971  1.0000
  H   H2975     1.0  0.68547  0.72191  0.82540  1.0000
  Fe  Fe195     1.0  0.74013  0.91034  0.83297  1.0000
  H   H2976     1.0  0.74953  0.79766  0.83185  1.0000
  H   H2977     1.0  0.73351  0.71168  0.66931  1.0000
  H   H2978     1.0  0.63293  0.98202  0.85505  1.0000
  H   H2979     1.0  0.71131  0.83698  0.55688  1.0000
  S   S377      1.0  0.69961  0.98834  0.82537  1.0000
  S   S378      1.0  0.73004  0.93664  0.86371  1.0000
  H   H2980     1.0  0.63035  0.90272  0.62608  1.0000
  H   H2981     1.0  0.74162  0.94736  0.91879  1.0000
  H   H2982     1.0  0.74686  0.97521  0.67826  1.0000
  C   C1671     1.0  0.63798  0.99892  0.85488  1.0000
  C   C1672     1.0  0.67237  0.98107  0.75103  1.0000
  C   C1673     1.0  0.68385  0.97668  0.77537  1.0000
  C   C1674     1.0  0.68525  0.99329  0.79467  1.0000
  C   C1675     1.0  0.69943  0.87680  0.62884  1.0000
  S   S379      1.0  0.75993  0.96816  0.82923  1.0000
  H   H2983     1.0  0.67089  0.96796  0.73656  1.0000
  H   H2984     1.0  0.72291  0.95524  0.56316  1.0000
  H   H2985     1.0  0.64826  0.88057  0.57362  1.0000
  H   H2986     1.0  0.74458  0.80427  0.64911  1.0000
  C   C1676     1.0  0.74205  0.99981  0.90311  1.0000
  Fe  Fe196     1.0  0.72509  0.95917  0.82824  1.0000
  C   C1677     1.0  0.75221  0.95059  0.93566  1.0000
  H   H2987     1.0  0.74872  0.83578  0.93268  1.0000
  C   C1678     1.0  0.62857  0.89623  0.60521  1.0000
  N   N94       1.0  0.74431  0.80247  0.92048  1.0000
  H   H2988     1.0  0.72564  0.95364  0.96430  1.0000
  H   H2989     1.0  0.70684  0.85114  0.52514  1.0000
  H   H2990     1.0  0.70065  0.78996  0.65809  1.0000
  Fe  Fe197     1.0  0.75150  0.71888  0.55171  1.0000
  H   H2991     1.0  0.74724  0.92620  0.74713  1.0000
  H   H2992     1.0  0.72912  0.68715  0.89100  1.0000
  C   C1679     1.0  0.69349  0.69672  0.92190  1.0000
  C   C1680     1.0  0.74759  0.85340  0.83286  1.0000
  H   H2993     1.0  0.74601  0.87416  0.48162  1.0000
  C   C1681     1.0  0.70386  0.89657  0.61144  1.0000
  H   H2994     1.0  0.73816  0.98292  0.89813  1.0000
  H   H2995     1.0  0.68606  0.86572  0.57695  1.0000
  H   H2996     1.0  0.68935  0.71806  0.87447  1.0000
  C   C1682     1.0  0.66912  0.70618  0.92535  1.0000
  C   C1683     1.0  0.66649  0.90632  0.59183  1.0000
  C   C1684     1.0  0.73685  0.73064  0.95466  1.0000
  H   H2997     1.0  0.72768  0.72579  0.49848  1.0000
  H   H2998     1.0  0.71919  0.73215  0.95156  1.0000
  H   H2999     1.0  0.73407  0.83644  0.61212  1.0000
  H   H3000     1.0  0.71213  0.76152  0.86531  1.0000
  H   H3001     1.0  0.73543  0.79975  0.87825  1.0000
  C   C1685     1.0  0.73764  0.98991  0.66939  1.0000
  H   H3002     1.0  0.70097  0.91108  0.62500  1.0000
  H   H3003     1.0  0.72020  0.86783  0.93545  1.0000
  H   H3004     1.0  0.74483  0.79938  0.73384  1.0000
  C   C1686     1.0  0.70456  0.97567  0.68653  1.0000
  H   H3005     1.0  0.68288  0.88303  0.54871  1.0000
  H   H3006     1.0  0.65897  0.69373  0.93334  1.0000
  S   S380      1.0  0.74270  0.71417  0.76728  1.0000
  C   C1687     1.0  0.69524  0.96686  0.65968  1.0000
  C   C1688     1.0  0.74683  0.92567  0.70389  1.0000
  H   H3007     1.0  0.73313  0.87172  0.64432  1.0000
  S   S381      1.0  0.67920  0.69567  0.58454  1.0000
  C   C1689     1.0  0.73790  0.71380  0.71242  1.0000
  C   C1690     1.0  0.68286  0.94682  0.66478  1.0000
  C   C1691     1.0  0.66270  0.00221  0.74552  1.0000
  C   C1692     1.0  0.66868  0.68428  0.55460  1.0000
  C   C1693     1.0  0.69923  0.91842  0.57056  1.0000
  H   H3008     1.0  0.69575  0.95983  0.54794  1.0000
  H   H3009     1.0  0.70652  0.83095  0.93530  1.0000
  H   H3010     1.0  0.71537  0.96190  0.69525  1.0000
  H   H3011     1.0  0.68428  0.69290  0.82105  1.0000
  C   C1694     1.0  0.75526  0.81369  0.83071  1.0000
  S   S382      1.0  0.72861  0.87659  0.83825  1.0000
  H   H3012     1.0  0.71703  0.91485  0.56614  1.0000
  C   C1695     1.0  0.73969  0.82687  0.91712  1.0000
  C   C1696     1.0  0.68048  0.70696  0.83511  1.0000
  H   H3013     1.0  0.70866  0.96190  0.64536  1.0000
  H   H3014     1.0  0.73387  0.98479  0.64839  1.0000
  C   C1697     1.0  0.74859  0.83022  0.60112  1.0000
  H   H3015     1.0  0.75033  0.98476  0.77104  1.0000
  H   H3016     1.0  0.73956  0.77675  0.94841  1.0000
  H   H3017     1.0  0.70259  0.97489  0.57788  1.0000
  S   S383      1.0  0.72782  0.79284  0.59553  1.0000
  C   C1698     1.0  0.69288  0.87983  0.56744  1.0000
  C   C1699     1.0  0.74532  0.71183  0.68569  1.0000
  C   C1700     1.0  0.75358  0.00790  0.66679  1.0000
  H   H3018     1.0  0.72037  0.71539  0.71637  1.0000
  H   H3019     1.0  0.72669  0.97223  0.73513  1.0000
  H   H3020     1.0  0.70089  0.78918  0.85809  1.0000
  H   H3021     1.0  0.66930  0.95089  0.67938  1.0000
  H   H3022     1.0  0.67553  0.94132  0.64562  1.0000
  H   H3023     1.0  0.69431  0.93324  0.67285  1.0000
  H   H3024     1.0  0.72178  0.89556  0.60720  1.0000
  H   H3025     1.0  0.72572  0.82175  0.69243  1.0000
  Fe  Fe198     1.0  0.76225  0.72989  0.86413  1.0000
  H   H3026     1.0  0.69039  0.97880  0.70039  1.0000
  C   C1701     1.0  0.68685  0.68222  0.87569  1.0000
  H   H3027     1.0  0.69709  0.99526  0.89527  1.0000
  C   C1702     1.0  0.75012  0.80879  0.59078  1.0000
  C   C1703     1.0  0.65107  0.88766  0.59398  1.0000
  H   H3028     1.0  0.64991  0.73193  0.94753  1.0000
  H   H3029     1.0  0.74690  0.76117  0.74933  1.0000
  H   H3030     1.0  0.68346  0.97926  0.64988  1.0000
  H   H3031     1.0  0.66175  0.71211  0.90596  1.0000
  H   H3032     1.0  0.71297  0.85957  0.66419  1.0000
  Fe  Fe199     1.0  0.75415  0.71519  0.61323  1.0000
  H   H3033     1.0  0.69297  0.69580  0.52852  1.0000
  H   H3034     1.0  0.72099  0.79408  0.70141  1.0000
  C   C1704     1.0  0.73747  0.72195  0.48077  1.0000
  H   H3035     1.0  0.66856  0.68309  0.87718  1.0000
  C   C1705     1.0  0.73467  0.79028  0.89711  1.0000
  C   C1706     1.0  0.74452  0.79566  0.66866  1.0000
  H   H3036     1.0  0.75421  0.83754  0.65879  1.0000
  C   C1707     1.0  0.71517  0.83607  0.91724  1.0000
  C   C1708     1.0  0.71664  0.87166  0.55864  1.0000
  S   S384      1.0  0.65039  0.00783  0.71370  1.0000
  C   C1709     1.0  0.71076  0.78375  0.90009  1.0000
  H   H3037     1.0  0.71457  0.88875  0.66562  1.0000
  C   C1710     1.0  0.71279  0.86107  0.91698  1.0000
  C   C1711     1.0  0.75601  0.92978  0.72931  1.0000
  H   H3038     1.0  0.67975  0.94624  0.59070  1.0000
  C   C1712     1.0  0.66746  0.72551  0.94522  1.0000
  H   H3039     1.0  0.66979  0.98749  0.87002  1.0000
  H   H3040     1.0  0.67401  0.72028  0.96536  1.0000
  H   H3041     1.0  0.74481  0.77454  0.89310  1.0000
  H   H3042     1.0  0.65878  0.91719  0.57581  1.0000
  H   H3043     1.0  0.72075  0.86714  0.89884  1.0000
  H   H3044     1.0  0.70308  0.71025  0.91577  1.0000
  H   H3045     1.0  0.69968  0.69232  0.94244  1.0000
  H   H3046     1.0  0.69503  0.86715  0.91625  1.0000
  H   H3047     1.0  0.70681  0.83059  0.89870  1.0000
  C   C1713     1.0  0.75812  0.92985  0.68039  1.0000
  C   C1714     1.0  0.72113  0.00340  0.71332  1.0000
  H   H3048     1.0  0.75146  0.98173  0.72163  1.0000
  C   C1715     1.0  0.70163  0.77592  0.87318  1.0000
  H   H3049     1.0  0.71063  0.77014  0.91463  1.0000
  H   H3050     1.0  0.69919  0.79735  0.90763  1.0000
  H   H3051     1.0  0.68473  0.77104  0.87604  1.0000
  C   C1716     1.0  0.75100  0.72899  0.93245  1.0000
  H   H3052     1.0  0.62056  0.90936  0.59226  1.0000
  C   C1717     1.0  0.65692  0.00088  0.87495  1.0000
  C   C1718     1.0  0.76202  0.86453  0.47766  1.0000
  H   H3053     1.0  0.75889  0.82526  0.70764  1.0000
  H   H3054     1.0  0.61771  0.88270  0.60579  1.0000
  H   H3055     1.0  0.74614  0.83200  0.89753  1.0000
  H   H3056     1.0  0.73444  0.84420  0.53790  1.0000
  C   C1719     1.0  0.71605  0.87407  0.65216  1.0000
  C   C1720     1.0  0.72398  0.80504  0.68451  1.0000
  C   C1721     1.0  0.69708  0.94107  0.58516  1.0000
  C   C1722     1.0  0.74044  0.83242  0.83479  1.0000
  S   S385      1.0  0.74548  0.92609  0.64881  1.0000
  H   H3057     1.0  0.73091  0.91925  0.70251  1.0000
  H   H3058     1.0  0.70743  0.94061  0.60370  1.0000
  H   H3059     1.0  0.71094  0.70197  0.85686  1.0000
  H   H3060     1.0  0.72332  0.88340  0.54479  1.0000
  H   H3061     1.0  0.66243  0.70921  0.83871  1.0000
  C   C1723     1.0  0.73542  0.98692  0.73120  1.0000
  H   H3062     1.0  0.70526  0.81763  0.64934  1.0000
  S   S386      1.0  0.73120  0.93223  0.79760  1.0000
  H   H3063     1.0  0.67682  0.73886  0.93777  1.0000
  H   H3064     1.0  0.68875  0.81267  0.67823  1.0000
  S   S387      1.0  0.74686  0.93335  0.51743  1.0000
  C   C1724     1.0  0.75294  0.71340  0.73405  1.0000
  C   C1725     1.0  0.69312  0.70326  0.86169  1.0000
  H   H3065     1.0  0.66495  0.91625  0.61078  1.0000
  C   C1726     1.0  0.73585  0.79483  0.94696  1.0000
  H   H3066     1.0  0.69087  0.92035  0.55049  1.0000
  C   C1727     1.0  0.71721  0.84968  0.54370  1.0000
  H   H3067     1.0  0.65060  0.99806  0.89537  1.0000
  C   C1728     1.0  0.70504  0.95878  0.56735  1.0000
  C   C1729     1.0  0.74040  0.99705  0.75864  1.0000
  S   S388      1.0  0.76154  0.90110  0.58015  1.0000
  H   H3068     1.0  0.70079  0.86131  0.61702  1.0000
  H   H3069     1.0  0.71765  0.79773  0.94812  1.0000
  H   H3070     1.0  0.72775  0.86932  0.57635  1.0000
  H   H3071     1.0  0.68283  0.87950  0.63791  1.0000
  C   C1730     1.0  0.70344  0.80639  0.66639  1.0000
  N   N95       1.0  0.69057  0.89983  0.58569  1.0000
  H   H3072     1.0  0.75887  0.87684  0.89513  1.0000
  H   H3073     1.0  0.64318  0.00248  0.83410  1.0000
  H   H3074     1.0  0.75885  0.86433  0.69585  1.0000
  H   H3075     1.0  0.72488  0.00218  0.76948  1.0000
  H   H3076     1.0  0.75493  0.99903  0.91920  1.0000
  H   H3077     1.0  0.74879  0.00689  0.88481  1.0000
  N   N96       1.0  0.69751  0.67743  0.90285  1.0000
  H   H3078     1.0  0.71690  0.00773  0.93267  1.0000
  H   H3079     1.0  0.75930  0.84699  0.47542  1.0000
  H   H3080     1.0  0.70518  0.00753  0.72392  1.0000
  C   C1731     1.0  0.75934  0.71297  0.48332  1.0000
  H   H3081     1.0  0.73411  0.67892  0.94016  1.0000
  C   C1732     1.0  0.76012  0.77170  0.75497  1.0000
  C   C1733     1.0  0.76117  0.78988  0.73445  1.0000
  H   H3082     1.0  0.75914  0.76598  0.70186  1.0000
  H   H3083     1.0  0.75823  0.87454  0.94536  1.0000
  H   H3084     1.0  0.75640  0.77899  0.77524  1.0000
  H   H3085     1.0  0.75765  0.90342  0.91121  1.0000
  C   C1734     1.0  0.74505  0.80520  0.97297  1.0000
  H   H3086     1.0  0.67882  0.67821  0.48761  1.0000
  H   H3087     1.0  0.64808  0.67649  0.62593  1.0000
  Fe  Fe200     1.0  0.90083  0.09038  0.42298  1.0000
  S   S389      1.0  0.90741  0.12558  0.42614  1.0000
  S   S390      1.0  0.89708  0.07058  0.38472  1.0000
  Fe  Fe201     1.0  0.88401  0.12738  0.46110  1.0000
  H   H3088     1.0  0.80238  0.28132  0.17736  1.0000
  S   S391      1.0  0.89564  0.06619  0.01704  1.0000
  H   H3089     1.0  0.83435  0.01081  0.22663  1.0000
  H   H3090     1.0  0.94336  0.08458  0.28866  1.0000
  H   H3091     1.0  0.94544  0.07500  0.02375  1.0000
  H   H3092     1.0  0.86191  0.10796  0.06582  1.0000
  H   H3093     1.0  0.97081  0.01953  0.98808  1.0000
  H   H3094     1.0  0.88171  0.18415  0.02586  1.0000
  Fe  Fe202     1.0  0.89593  0.04551  0.19765  1.0000
  S   S392      1.0  0.88153  0.08062  0.19551  1.0000
  Fe  Fe203     1.0  0.94295  0.05866  0.20705  1.0000
  S   S393      1.0  0.93155  0.09418  0.20519  1.0000
  S   S394      1.0  0.97900  0.04832  0.21589  1.0000
  Fe  Fe204     1.0  0.90363  0.08620  0.23118  1.0000
  S   S395      1.0  0.89556  0.10926  0.26661  1.0000
  Fe  Fe205     1.0  0.91108  0.08471  0.16993  1.0000
  S   S396      1.0  0.91165  0.10592  0.13325  1.0000
  S   S397      1.0  0.91611  0.05091  0.23518  1.0000
  S   S398      1.0  0.92424  0.04938  0.16989  1.0000
  C   C1735     1.0  0.97935  0.08216  0.29506  1.0000
  H   H3095     1.0  0.79267  0.17869  0.29036  1.0000
  H   H3096     1.0  0.77487  0.15654  0.45232  1.0000
  C   C1736     1.0  0.79354  0.13223  0.11932  1.0000
  H   H3097     1.0  0.86488  0.26110  0.06294  1.0000
  C   C1737     1.0  0.99766  0.06859  0.21838  1.0000
  C   C1738     1.0  0.99290  0.08926  0.20707  1.0000
  H   H3098     1.0  0.78760  0.19853  0.31712  1.0000
  H   H3099     1.0  0.95076  0.11436  0.03054  1.0000
  H   H3100     1.0  0.93516  0.02882  0.07385  1.0000
  H   H3101     1.0  0.97745  0.09313  0.19660  1.0000
  H   H3102     1.0  0.99761  0.01644  0.06684  1.0000
  C   C1739     1.0  0.01116  0.07414  0.13490  1.0000
  H   H3103     1.0  0.83164  0.04700  0.22639  1.0000
  C   C1740     1.0  0.96164  0.04976  0.06631  1.0000
  H   H3104     1.0  0.78887  0.15741  0.98377  1.0000
  C   C1741     1.0  0.88093  0.20603  0.06147  1.0000
  C   C1742     1.0  0.91540  0.23719  0.05259  1.0000
  H   H3105     1.0  0.98207  0.12655  0.25144  1.0000
  C   C1743     1.0  0.84667  0.24704  0.01481  1.0000
  C   C1744     1.0  0.76912  0.22469  0.21334  1.0000
  H   H3106     1.0  0.82544  0.13082  0.07272  1.0000
  C   C1745     1.0  0.90067  0.07713  0.04925  1.0000
  C   C1746     1.0  0.90753  0.09810  0.05243  1.0000
  C   C1747     1.0  0.91129  0.10653  0.07833  1.0000
  C   C1748     1.0  0.90811  0.09411  0.10121  1.0000
  C   C1749     1.0  0.90134  0.07309  0.09812  1.0000
  C   C1750     1.0  0.89767  0.06461  0.07216  1.0000
  H   H3107     1.0  0.90971  0.10792  0.03500  1.0000
  H   H3108     1.0  0.91646  0.12282  0.08068  1.0000
  H   H3109     1.0  0.89867  0.06346  0.11569  1.0000
  H   H3110     1.0  0.89226  0.04839  0.06983  1.0000
  C   C1751     1.0  0.89815  0.08170  0.35221  1.0000
  C   C1752     1.0  0.89693  0.06772  0.32976  1.0000
  C   C1753     1.0  0.89648  0.07599  0.30348  1.0000
  C   C1754     1.0  0.89712  0.09837  0.29941  1.0000
  C   C1755     1.0  0.89859  0.11241  0.32185  1.0000
  C   C1756     1.0  0.89931  0.10407  0.34821  1.0000
  H   H3111     1.0  0.89597  0.05041  0.33272  1.0000
  H   H3112     1.0  0.89509  0.06507  0.28642  1.0000
  H   H3113     1.0  0.89907  0.12976  0.31883  1.0000
  H   H3114     1.0  0.90028  0.11496  0.36540  1.0000
  C   C1757     1.0  0.84888  0.15435  0.03091  1.0000
  C   C1758     1.0  0.85754  0.14986  0.00515  1.0000
  C   C1759     1.0  0.85051  0.16319  0.98353  1.0000
  C   C1760     1.0  0.83372  0.18012  0.98743  1.0000
  C   C1761     1.0  0.82448  0.18409  0.01309  1.0000
  H   H3115     1.0  0.85525  0.14458  0.04763  1.0000
  H   H3116     1.0  0.87025  0.13655  0.00230  1.0000
  C   C1762     1.0  0.87053  0.01401  0.14084  1.0000
  C   C1763     1.0  0.77504  0.32880  0.34260  1.0000
  N   N97       1.0  0.83603  0.12182  0.11309  1.0000
  Fe  Fe206     1.0  0.79404  0.20209  0.07439  1.0000
  H   H3117     1.0  0.87476  0.17457  0.12011  1.0000
  C   C1764     1.0  0.81130  0.07564  0.21479  1.0000
  H   H3118     1.0  0.78141  0.04683  0.21777  1.0000
  H   H3119     1.0  0.99501  0.03808  0.01102  1.0000
  C   C1765     1.0  0.82938  0.11573  0.08471  1.0000
  C   C1766     1.0  0.76914  0.28868  0.00350  1.0000
  H   H3120     1.0  0.00190  0.04954  0.04230  1.0000
  H   H3121     1.0  0.83854  0.25849  0.02995  1.0000
  H   H3122     1.0  0.82802  0.16200  0.42097  1.0000
  N   N98       1.0  0.96696  0.04693  0.03661  1.0000
  H   H3123     1.0  0.85225  0.14837  0.09648  1.0000
  H   H3124     1.0  0.79054  0.11490  0.12192  1.0000
  H   H3125     1.0  0.81169  0.19725  0.01601  1.0000
  C   C1767     1.0  0.96823  0.10980  0.02504  1.0000
  H   H3126     1.0  0.85036  0.15496  0.14848  1.0000
  H   H3127     1.0  0.83109  0.24079  0.07085  1.0000
  C   C1768     1.0  0.86385  0.14515  0.13775  1.0000
  H   H3128     1.0  0.97265  0.12226  0.38676  1.0000
  H   H3129     1.0  0.78980  0.13679  0.09801  1.0000
  H   H3130     1.0  0.81318  0.01155  0.18658  1.0000
  H   H3131     1.0  0.79218  0.32253  0.34079  1.0000
  H   H3132     1.0  0.78447  0.23178  0.21720  1.0000
  H   H3133     1.0  0.94876  0.06372  0.06952  1.0000
  H   H3134     1.0  0.91251  0.24905  0.06956  1.0000
  H   H3135     1.0  0.85321  0.25609  0.12299  1.0000
  H   H3136     1.0  0.95491  0.13374  0.34228  1.0000
  N   N99       1.0  0.98258  0.10528  0.30383  1.0000
  H   H3137     1.0  0.78600  0.16150  0.03319  1.0000
  C   C1769     1.0  0.95629  0.07447  0.29999  1.0000
  H   H3138     1.0  0.78826  0.16518  0.36362  1.0000
  H   H3139     1.0  0.98463  0.03333  0.41210  1.0000
  S   S399      1.0  0.91285  0.11944  0.98009  1.0000
  H   H3140     1.0  0.79232  0.14277  0.40977  1.0000
  S   S400      1.0  0.78574  0.28272  0.08937  1.0000
  N   N100      1.0  0.82220  0.16280  0.37792  1.0000
  C   C1770     1.0  0.84284  0.17380  0.37256  1.0000
  C   C1771     1.0  0.79104  0.16173  0.44638  1.0000
  H   H3141     1.0  0.93864  0.04566  0.29438  1.0000
  C   C1772     1.0  0.82566  0.13815  0.37507  1.0000
  C   C1773     1.0  0.84275  0.12854  0.35397  1.0000
  C   C1774     1.0  0.86200  0.16886  0.39316  1.0000
  H   H3142     1.0  0.76479  0.30221  0.28297  1.0000
  C   C1775     1.0  0.76665  0.28307  0.17824  1.0000
  H   H3143     1.0  0.95885  0.04894  0.26891  1.0000
  C   C1776     1.0  0.84129  0.10402  0.34964  1.0000
  C   C1777     1.0  0.85576  0.13488  0.11103  1.0000
  H   H3144     1.0  0.83898  0.19192  0.37248  1.0000
  H   H3145     1.0  0.84929  0.16962  0.35215  1.0000
  H   H3146     1.0  0.90621  0.15425  0.04390  1.0000
  C   C1778     1.0  0.78454  0.14532  0.02346  1.0000
  H   H3147     1.0  0.96924  0.03293  0.11939  1.0000
  H   H3148     1.0  0.00463  0.12068  0.19964  1.0000
  H   H3149     1.0  0.83125  0.13061  0.39463  1.0000
  C   C1779     1.0  0.81518  0.16863  0.40648  1.0000
  H   H3150     1.0  0.85971  0.13073  0.36111  1.0000
  S   S401      1.0  0.96707  0.12616  0.45605  1.0000
  H   H3151     1.0  0.85900  0.17943  0.41139  1.0000
  H   H3152     1.0  0.86331  0.15158  0.39974  1.0000
  H   H3153     1.0  0.94326  0.12109  0.38574  1.0000
  H   H3154     1.0  0.99287  0.11956  0.34184  1.0000
  H   H3155     1.0  0.98318  0.07962  0.27328  1.0000
  H   H3156     1.0  0.84061  0.13648  0.33415  1.0000
  C   C1780     1.0  0.77675  0.33938  0.25533  1.0000
  H   H3157     1.0  0.00764  0.12769  0.29927  1.0000
  C   C1781     1.0  0.83983  0.25674  0.10754  1.0000
  H   H3158     1.0  0.82443  0.10071  0.34304  1.0000
  H   H3159     1.0  0.85296  0.09776  0.33366  1.0000
  H   H3160     1.0  0.84577  0.09501  0.36850  1.0000
  N   N101      1.0  0.79859  0.01494  0.22616  1.0000
  C   C1782     1.0  0.00838  0.10484  0.20874  1.0000
  H   H3161     1.0  0.78811  0.32752  0.10427  1.0000
  C   C1783     1.0  0.98830  0.05041  0.41637  1.0000
  H   H3162     1.0  0.79653  0.08057  0.20218  1.0000
  H   H3163     1.0  0.80862  0.08202  0.23569  1.0000
  C   C1784     1.0  0.85675  0.22561  0.02821  1.0000
  C   C1785     1.0  0.79328  0.16012  0.41573  1.0000
  H   H3164     1.0  0.93407  0.03934  0.02632  1.0000
  H   H3165     1.0  0.80774  0.15109  0.32344  1.0000
  H   H3166     1.0  0.88352  0.19075  0.37467  1.0000
  H   H3167     1.0  0.87023  0.12466  0.10287  1.0000
  C   C1786     1.0  0.81767  0.13634  0.12651  1.0000
  C   C1787     1.0  0.88166  0.16044  0.13228  1.0000
  C   C1788     1.0  0.96609  0.12176  0.29047  1.0000
  C   C1789     1.0  0.83266  0.17174  0.03512  1.0000
  H   H3168     1.0  0.81270  0.09105  0.14653  1.0000
  H   H3169     1.0  0.87098  0.13219  0.15153  1.0000
  C   C1790     1.0  0.96616  0.12200  0.25919  1.0000
  H   H3170     1.0  0.88867  0.16228  0.36433  1.0000
  H   H3171     1.0  0.97443  0.08864  0.05869  1.0000
  C   C1791     1.0  0.94839  0.13894  0.24830  1.0000
  H   H3172     1.0  0.96886  0.13855  0.29770  1.0000
  H   H3173     1.0  0.94894  0.11928  0.29624  1.0000
  C   C1792     1.0  0.88418  0.17356  0.38153  1.0000
  H   H3174     1.0  0.99413  0.08436  0.03183  1.0000
  H   H3175     1.0  0.78731  0.28475  0.00416  1.0000
  H   H3176     1.0  0.96290  0.10581  0.25073  1.0000
  H   H3177     1.0  0.78901  0.29104  0.14672  1.0000
  H   H3178     1.0  0.97839  0.12243  0.03338  1.0000
  C   C1793     1.0  0.77718  0.14635  0.13693  1.0000
  H   H3179     1.0  0.88799  0.16667  0.15171  1.0000
  H   H3180     1.0  0.89569  0.15162  0.12132  1.0000
  H   H3181     1.0  0.94882  0.13879  0.22591  1.0000
  H   H3182     1.0  0.93177  0.13508  0.25458  1.0000
  H   H3183     1.0  0.95123  0.15560  0.25570  1.0000
  C   C1794     1.0  0.84286  0.10195  0.12983  1.0000
  C   C1795     1.0  0.82578  0.08494  0.13215  1.0000
  C   C1796     1.0  0.84640  0.10031  0.06877  1.0000
  C   C1797     1.0  0.83660  0.06318  0.14262  1.0000
  C   C1798     1.0  0.83749  0.09490  0.04077  1.0000
  H   H3184     1.0  0.85864  0.09352  0.12222  1.0000
  H   H3185     1.0  0.84685  0.10685  0.15087  1.0000
  H   H3186     1.0  0.81804  0.08128  0.11254  1.0000
  S   S402      1.0  0.78304  0.22930  0.04637  1.0000
  H   H3187     1.0  0.89720  0.17104  0.39733  1.0000
  H   H3188     1.0  0.85027  0.08461  0.07938  1.0000
  C   C1799     1.0  0.81609  0.05076  0.21476  1.0000
  H   H3189     1.0  0.84955  0.05632  0.12846  1.0000
  H   H3190     1.0  0.84416  0.06531  0.16282  1.0000
  H   H3191     1.0  0.82410  0.05121  0.14415  1.0000
  H   H3192     1.0  0.83451  0.10992  0.02857  1.0000
  H   H3193     1.0  0.84978  0.08346  0.03010  1.0000
  C   C1800     1.0  0.99074  0.03832  0.03274  1.0000
  H   H3194     1.0  0.82197  0.08688  0.04233  1.0000
  H   H3195     1.0  0.96964  0.10963  0.00274  1.0000
  C   C1801     1.0  0.78846  0.27912  0.16327  1.0000
  C   C1802     1.0  0.80398  0.17225  0.35938  1.0000
  C   C1803     1.0  0.84528  0.23978  0.08514  1.0000
  H   H3196     1.0  0.83675  0.23125  0.97745  1.0000
  H   H3197     1.0  0.79578  0.04520  0.24896  1.0000
  C   C1804     1.0  0.95439  0.02826  0.99227  1.0000
  C   C1805     1.0  0.95879  0.11610  0.34675  1.0000
  H   H3198     1.0  0.97640  0.05422  0.07784  1.0000
  S   S403      1.0  0.82419  0.17846  0.06833  1.0000
  C   C1806     1.0  0.95913  0.11373  0.37741  1.0000
  H   H3199     1.0  0.81954  0.13565  0.14887  1.0000
  C   C1807     1.0  0.98688  0.08309  0.13324  1.0000
  C   C1808     1.0  0.82935  0.24235  0.99349  1.0000
  H   H3200     1.0  0.81891  0.04534  0.19360  1.0000
  C   C1809     1.0  0.95137  0.03239  0.02299  1.0000
  H   H3201     1.0  0.81879  0.15381  0.12117  1.0000
  H   H3202     1.0  0.84669  0.22340  0.09449  1.0000
  C   C1810     1.0  0.96336  0.06918  0.02375  1.0000
  H   H3203     1.0  0.95244  0.07503  0.32176  1.0000
  H   H3204     1.0  0.83738  0.27346  0.09906  1.0000
  H   H3205     1.0  0.96751  0.03969  0.30216  1.0000
  H   H3206     1.0  0.88507  0.16138  0.06842  1.0000
  H   H3207     1.0  0.81391  0.10762  0.08439  1.0000
  C   C1811     1.0  0.97630  0.08746  0.03649  1.0000
  S   S404      1.0  0.78898  0.22264  0.11204  1.0000
  H   H3208     1.0  0.82562  0.08311  0.20635  1.0000
  C   C1812     1.0  0.79684  0.03964  0.22747  1.0000
  S   S405      1.0  0.85736  0.15542  0.46426  1.0000
  H   H3209     1.0  0.78943  0.21992  0.45553  1.0000
  H   H3210     1.0  0.86298  0.21445  0.01155  1.0000
  C   C1813     1.0  0.95537  0.05074  0.29077  1.0000
  H   H3211     1.0  0.98276  0.08960  0.11283  1.0000
  H   H3212     1.0  0.94335  0.04989  0.11633  1.0000
  H   H3213     1.0  0.98312  0.09635  0.14840  1.0000
  H   H3214     1.0  0.96214  0.01448  0.07640  1.0000
  H   H3215     1.0  0.82434  0.25338  0.11760  1.0000
  H   H3216     1.0  0.96828  0.06834  0.00229  1.0000
  H   H3217     1.0  0.81365  0.18673  0.40970  1.0000
  H   H3218     1.0  0.86596  0.19902  0.06888  1.0000
  N   N102      1.0  0.87472  0.22805  0.04890  1.0000
  C   C1814     1.0  0.86698  0.24414  0.07084  1.0000
  H   H3219     1.0  0.77325  0.03060  0.18035  1.0000
  H   H3220     1.0  0.80966  0.13146  0.37038  1.0000
  C   C1815     1.0  0.89274  0.18824  0.04271  1.0000
  H   H3221     1.0  0.95240  0.01598  0.03214  1.0000
  H   H3222     1.0  0.97971  0.05604  0.43520  1.0000
  Fe  Fe207     1.0  0.89982  0.08650  0.98016  1.0000
  Fe  Fe208     1.0  0.77475  0.24889  0.08395  1.0000
  H   H3223     1.0  0.80430  0.15098  0.45643  1.0000
  H   H3224     1.0  0.99129  0.07037  0.30573  1.0000
  C   C1816     1.0  0.77350  0.32894  0.01108  1.0000
  H   H3225     1.0  0.88164  0.02671  0.13987  1.0000
  H   H3226     1.0  0.96114  0.09620  0.38299  1.0000
  H   H3227     1.0  0.98164  0.06109  0.39972  1.0000
  C   C1817     1.0  0.95243  0.03026  0.08065  1.0000
  H   H3228     1.0  0.87978  0.24443  0.08697  1.0000
  H   H3229     1.0  0.89139  0.20771  0.07978  1.0000
  H   H3230     1.0  0.84303  0.21760  0.03728  1.0000
  H   H3231     1.0  0.77281  0.20332  0.00136  1.0000
  H   H3232     1.0  0.79500  0.01435  0.14176  1.0000
  C   C1818     1.0  0.98138  0.10767  0.33432  1.0000
  H   H3233     1.0  0.79062  0.26223  0.15477  1.0000
  S   S406      1.0  0.92830  0.07864  0.45121  1.0000
  H   H3234     1.0  0.76962  0.32546  0.03247  1.0000
  H   H3235     1.0  0.98709  0.09188  0.34410  1.0000
  H   H3236     1.0  0.94512  0.10728  0.33870  1.0000
  H   H3237     1.0  0.80102  0.13592  0.02397  1.0000
  C   C1819     1.0  0.98925  0.10745  0.46603  1.0000
  H   H3238     1.0  0.92105  0.22101  0.06108  1.0000
  C   C1820     1.0  0.78914  0.18074  0.31223  1.0000
  H   H3239     1.0  0.85948  0.25541  0.00445  1.0000
  C   C1821     1.0  0.77789  0.01273  0.18012  1.0000
  H   H3240     1.0  0.79207  0.17879  0.45349  1.0000
  Fe  Fe209     1.0  0.93326  0.11403  0.45676  1.0000
  H   H3241     1.0  0.82334  0.17477  0.32215  1.0000
  H   H3242     1.0  0.97621  0.06986  0.13742  1.0000
  C   C1822     1.0  0.77651  0.14862  0.99438  1.0000
  C   C1823     1.0  0.80772  0.16870  0.32871  1.0000
  C   C1824     1.0  0.99776  0.01549  0.04448  1.0000
  H   H3243     1.0  0.80066  0.19020  0.36331  1.0000
  C   C1825     1.0  0.89417  0.23641  0.03510  1.0000
  H   H3244     1.0  0.79160  0.32507  0.00897  1.0000
  S   S407      1.0  0.87517  0.09294  0.45547  1.0000
  H   H3245     1.0  0.77432  0.22177  0.17037  1.0000
  C   C1826     1.0  0.00537  0.11012  0.29528  1.0000
  H   H3246     1.0  0.94349  0.02076  0.12071  1.0000
  C   C1827     1.0  0.77163  0.32589  0.09662  1.0000
  H   H3247     1.0  0.77893  0.17004  0.40676  1.0000
  H   H3248     1.0  0.94923  0.24508  0.04886  1.0000
  H   H3249     1.0  0.88991  0.25343  0.02812  1.0000
  H   H3250     1.0  0.79238  0.28895  0.40002  1.0000
  C   C1828     1.0  0.01092  0.11289  0.46312  1.0000
  H   H3251     1.0  0.77327  0.17393  0.31621  1.0000
  H   H3252     1.0  0.78232  0.33645  0.27664  1.0000
  C   C1829     1.0  0.93430  0.24444  0.03590  1.0000
  H   H3253     1.0  0.82261  0.25788  0.98400  1.0000
  H   H3254     1.0  0.79190  0.33481  0.24366  1.0000
  H   H3255     1.0  0.95259  0.04368  0.98087  1.0000
  H   H3256     1.0  0.00755  0.10749  0.27322  1.0000
  S   S408      1.0  0.87299  0.01836  0.19653  1.0000
  H   H3257     1.0  0.91234  0.17005  0.07351  1.0000
  H   H3258     1.0  0.89836  0.22672  0.01638  1.0000
  H   H3259     1.0  0.76792  0.27246  0.19626  1.0000
  H   H3260     1.0  0.77931  0.16400  0.13452  1.0000
  H   H3261     1.0  0.77950  0.14204  0.15852  1.0000
  C   C1830     1.0  0.95216  0.03374  0.11115  1.0000
  H   H3262     1.0  0.93838  0.23265  0.01907  1.0000
  H   H3263     1.0  0.92012  0.02256  0.98418  1.0000
  H   H3264     1.0  0.90795  0.19357  0.03390  1.0000
  H   H3265     1.0  0.76717  0.34013  0.19683  1.0000
  S   S409      1.0  0.76971  0.21792  0.40277  1.0000
  H   H3266     1.0  0.92986  0.26098  0.02753  1.0000
  C   C1831     1.0  0.77705  0.28120  0.40426  1.0000
  H   H3267     1.0  0.81549  0.23476  0.00274  1.0000
  H   H3268     1.0  0.76870  0.30958  0.23432  1.0000
  H   H3269     1.0  0.77270  0.13665  0.03522  1.0000
  C   C1832     1.0  0.89946  0.16725  0.05816  1.0000
  H   H3270     1.0  0.78834  0.11521  0.98375  1.0000
  C   C1833     1.0  0.93692  0.01418  0.98106  1.0000
  C   C1834     1.0  0.77311  0.12643  0.98042  1.0000
  C   C1835     1.0  0.77170  0.22149  0.45791  1.0000
  H   H3271     1.0  0.77044  0.27518  0.38494  1.0000
  H   H3272     1.0  0.82228  0.01524  0.25905  1.0000
  H   H3273     1.0  0.78123  0.26704  0.41770  1.0000
  H   H3274     1.0  0.76775  0.30305  0.43668  1.0000
  C   C1836     1.0  0.01313  0.05167  0.41982  1.0000
  H   H3275     1.0  0.01360  0.06509  0.15409  1.0000
  S   S410      1.0  0.76394  0.22750  0.26806  1.0000
  H   H3276     1.0  0.86749  0.01057  0.09758  1.0000
  C   C1837     1.0  0.76578  0.30534  0.08813  1.0000
  H   H3277     1.0  0.76495  0.30036  0.18510  1.0000
  Fe  Fe210     1.0  0.89376  0.08545  0.91876  1.0000
  S   S411      1.0  0.90627  0.11829  0.91391  1.0000
  S   S412      1.0  0.88430  0.06383  0.88409  1.0000
  Fe  Fe211     1.0  0.90336  0.08463  0.48409  1.0000
  S   S413      1.0  0.91054  0.11928  0.49207  1.0000
  S   S414      1.0  0.90274  0.05997  0.51720  1.0000
  C   C1838     1.0  0.00310  0.06430  0.72429  1.0000
  H   H3278     1.0  0.79485  0.20573  0.71720  1.0000
  H   H3279     1.0  0.81858  0.09949  0.70072  1.0000
  C   C1839     1.0  0.78217  0.30774  0.84480  1.0000
  C   C1840     1.0  0.80560  0.30518  0.66878  1.0000
  S   S415      1.0  0.86332  0.15951  0.95202  1.0000
  Fe  Fe212     1.0  0.88278  0.03550  0.69860  1.0000
  S   S416      1.0  0.86337  0.06826  0.69683  1.0000
  Fe  Fe213     1.0  0.92652  0.05627  0.70575  1.0000
  S   S417      1.0  0.90990  0.09040  0.70418  1.0000
  S   S418      1.0  0.96336  0.04838  0.71215  1.0000
  Fe  Fe214     1.0  0.88465  0.07793  0.73125  1.0000
  S   S419      1.0  0.86930  0.09927  0.76507  1.0000
  Fe  Fe215     1.0  0.89033  0.07737  0.66999  1.0000
  S   S420      1.0  0.88132  0.09850  0.63396  1.0000
  S   S421      1.0  0.90246  0.04440  0.73514  1.0000
  S   S422      1.0  0.90860  0.04388  0.66938  1.0000
  C   C1841     1.0  0.88331  0.16538  0.85926  1.0000
  H   H3280     1.0  0.82346  0.18598  0.89539  1.0000
  C   C1842     1.0  0.83870  0.05992  0.52617  1.0000
  H   H3281     1.0  0.98734  0.09420  0.83798  1.0000
  H   H3282     1.0  0.78240  0.32102  0.69652  1.0000
  C   C1843     1.0  0.98106  0.06957  0.71626  1.0000
  C   C1844     1.0  0.97382  0.09140  0.71096  1.0000
  C   C1845     1.0  0.98841  0.10778  0.71389  1.0000
  C   C1846     1.0  0.99082  0.12558  0.53983  1.0000
  H   H3283     1.0  0.83347  0.03227  0.49998  1.0000
  H   H3284     1.0  0.95700  0.09572  0.70457  1.0000
  H   H3285     1.0  0.98261  0.12462  0.70986  1.0000
  H   H3286     1.0  0.83517  0.01095  0.85046  1.0000
  H   H3287     1.0  0.78116  0.28411  0.79022  1.0000
  H   H3288     1.0  0.81633  0.03352  0.57004  1.0000
  H   H3289     1.0  0.80961  0.10880  0.93807  1.0000
  C   C1847     1.0  0.86563  0.17989  0.87543  1.0000
  H   H3290     1.0  0.97151  0.07172  0.57058  1.0000
  C   C1848     1.0  0.99982  0.05520  0.95957  1.0000
  H   H3291     1.0  0.80015  0.09111  0.64382  1.0000
  H   H3292     1.0  0.91228  0.18241  0.86892  1.0000
  C   C1849     1.0  0.83025  0.03724  0.52137  1.0000
  C   C1850     1.0  0.89646  0.07070  0.54951  1.0000
  C   C1851     1.0  0.88570  0.09165  0.55289  1.0000
  C   C1852     1.0  0.88104  0.10000  0.57893  1.0000
  C   C1853     1.0  0.88705  0.08739  0.60164  1.0000
  C   C1854     1.0  0.89756  0.06632  0.59819  1.0000
  C   C1855     1.0  0.90215  0.05795  0.57218  1.0000
  H   H3293     1.0  0.88090  0.10140  0.53544  1.0000
  H   H3294     1.0  0.87280  0.11628  0.58146  1.0000
  H   H3295     1.0  0.90214  0.05643  0.61548  1.0000
  H   H3296     1.0  0.91027  0.04163  0.56963  1.0000
  C   C1856     1.0  0.88153  0.07455  0.85131  1.0000
  C   C1857     1.0  0.87482  0.09665  0.84683  1.0000
  C   C1858     1.0  0.87117  0.10420  0.82029  1.0000
  C   C1859     1.0  0.87468  0.08979  0.79818  1.0000
  C   C1860     1.0  0.88168  0.06782  0.80277  1.0000
  C   C1861     1.0  0.88490  0.06020  0.82920  1.0000
  H   H3297     1.0  0.87198  0.10774  0.86382  1.0000
  H   H3298     1.0  0.86570  0.12119  0.81685  1.0000
  H   H3299     1.0  0.88425  0.05661  0.78600  1.0000
  H   H3300     1.0  0.89009  0.04311  0.83257  1.0000
  C   C1862     1.0  0.84470  0.15733  0.54466  1.0000
  C   C1863     1.0  0.85324  0.15079  0.51925  1.0000
  C   C1864     1.0  0.84660  0.16278  0.49632  1.0000
  C   C1865     1.0  0.83111  0.18109  0.49887  1.0000
  C   C1866     1.0  0.82262  0.18764  0.52427  1.0000
  H   H3301     1.0  0.85000  0.14811  0.56237  1.0000
  H   H3302     1.0  0.86506  0.13660  0.51743  1.0000
  H   H3303     1.0  0.76706  0.13185  0.72093  1.0000
  N   N103      1.0  0.83076  0.14182  0.67786  1.0000
  C   C1867     1.0  0.82985  0.11870  0.66750  1.0000
  C   C1868     1.0  0.85103  0.15069  0.66657  1.0000
  C   C1869     1.0  0.83363  0.14073  0.70819  1.0000
  C   C1870     1.0  0.81011  0.15657  0.67124  1.0000
  C   C1871     1.0  0.79760  0.15144  0.64472  1.0000
  C   C1872     1.0  0.83726  0.16260  0.72293  1.0000
  C   C1873     1.0  0.85137  0.15390  0.63566  1.0000
  C   C1874     1.0  0.87372  0.16031  0.62644  1.0000
  H   H3304     1.0  0.77585  0.29520  0.74280  1.0000
  C   C1875     1.0  0.83374  0.16104  0.75333  1.0000
  H   H3305     1.0  0.84609  0.10915  0.67074  1.0000
  H   H3306     1.0  0.82736  0.11823  0.64532  1.0000
  H   H3307     1.0  0.85321  0.16711  0.67528  1.0000
  H   H3308     1.0  0.86609  0.13992  0.67240  1.0000
  H   H3309     1.0  0.84783  0.12867  0.71367  1.0000
  H   H3310     1.0  0.81888  0.13465  0.71750  1.0000
  H   H3311     1.0  0.79777  0.15634  0.68766  1.0000
  H   H3312     1.0  0.81400  0.17393  0.67043  1.0000
  H   H3313     1.0  0.79004  0.13580  0.64625  1.0000
  H   H3314     1.0  0.80854  0.15008  0.62700  1.0000
  H   H3315     1.0  0.79664  0.11591  0.68427  1.0000
  H   H3316     1.0  0.82581  0.17627  0.71527  1.0000
  H   H3317     1.0  0.85446  0.16666  0.72000  1.0000
  H   H3318     1.0  0.84808  0.13890  0.62426  1.0000
  H   H3319     1.0  0.83890  0.16743  0.63001  1.0000
  H   H3320     1.0  0.88696  0.14712  0.63093  1.0000
  H   H3321     1.0  0.87318  0.16292  0.60430  1.0000
  H   H3322     1.0  0.87765  0.17574  0.63653  1.0000
  H   H3323     1.0  0.80424  0.07831  0.82096  1.0000
  C   C1876     1.0  0.82338  0.13425  0.91699  1.0000
  H   H3324     1.0  0.85684  0.05868  0.52758  1.0000
  H   H3325     1.0  0.81637  0.15822  0.75760  1.0000
  H   H3326     1.0  0.84495  0.14751  0.76196  1.0000
  H   H3327     1.0  0.83727  0.17661  0.76340  1.0000
  N   N104      1.0  0.95711  0.11644  0.56733  1.0000
  C   C1877     1.0  0.94452  0.13746  0.55830  1.0000
  C   C1878     1.0  0.95201  0.09816  0.54819  1.0000
  C   C1879     1.0  0.95045  0.11036  0.59528  1.0000
  H   H3328     1.0  0.82817  0.19035  0.97068  1.0000
  C   C1880     1.0  0.91920  0.13903  0.56201  1.0000
  C   C1881     1.0  0.96816  0.07700  0.54955  1.0000
  H   H3329     1.0  0.94522  0.05209  0.54555  1.0000
  C   C1882     1.0  0.90820  0.16048  0.55087  1.0000
  H   H3330     1.0  0.94744  0.14010  0.53647  1.0000
  H   H3331     1.0  0.95079  0.15181  0.56879  1.0000
  H   H3332     1.0  0.95153  0.10362  0.52684  1.0000
  H   H3333     1.0  0.93507  0.09348  0.55174  1.0000
  H   H3334     1.0  0.77844  0.21369  0.67193  1.0000
  H   H3335     1.0  0.78736  0.25582  0.77992  1.0000
  C   C1883     1.0  0.79125  0.32550  0.67839  1.0000
  H   H3336     1.0  0.00051  0.05730  0.49416  1.0000
  H   H3337     1.0  0.91217  0.12540  0.55124  1.0000
  H   H3338     1.0  0.91475  0.13847  0.58361  1.0000
  H   H3339     1.0  0.98414  0.07982  0.54029  1.0000
  H   H3340     1.0  0.77436  0.14594  0.50298  1.0000
  H   H3341     1.0  0.81010  0.22111  0.92560  1.0000
  C   C1884     1.0  0.00098  0.08083  0.87600  1.0000
  H   H3342     1.0  0.91486  0.17472  0.56100  1.0000
  H   H3343     1.0  0.91076  0.16135  0.52877  1.0000
  H   H3344     1.0  0.89021  0.16150  0.55458  1.0000
  H   H3345     1.0  0.97226  0.04414  0.53252  1.0000
  H   H3346     1.0  0.98652  0.04834  0.62434  1.0000
  H   H3347     1.0  0.76713  0.17099  0.65586  1.0000
  H   H3348     1.0  0.01138  0.11614  0.96201  1.0000
  H   H3349     1.0  0.87927  0.14811  0.85931  1.0000
  C   C1885     1.0  0.81941  0.06909  0.81302  1.0000
  Fe  Fe216     1.0  0.88561  0.12804  0.95019  1.0000
  H   H3350     1.0  0.85131  0.05390  0.62503  1.0000
  H   H3351     1.0  0.99985  0.08426  0.61846  1.0000
  H   H3352     1.0  0.78479  0.32958  0.78184  1.0000
  Fe  Fe217     1.0  0.93232  0.10648  0.94416  1.0000
  C   C1886     1.0  0.77893  0.16914  0.63887  1.0000
  S   S423      1.0  0.78780  0.23262  0.61923  1.0000
  H   H3353     1.0  0.00889  0.04746  0.72839  1.0000
  C   C1887     1.0  0.96082  0.09264  0.86543  1.0000
  H   H3354     1.0  0.81436  0.30866  0.65000  1.0000
  H   H3355     1.0  0.99122  0.10483  0.57545  1.0000
  C   C1888     1.0  0.82955  0.17589  0.54729  1.0000
  C   C1889     1.0  0.81233  0.10561  0.68080  1.0000
  H   H3356     1.0  0.92453  0.12072  0.64116  1.0000
  C   C1890     1.0  0.98772  0.09340  0.95162  1.0000
  H   H3357     1.0  0.77986  0.09322  0.94807  1.0000
  H   H3358     1.0  0.83339  0.07213  0.82672  1.0000
  C   C1891     1.0  0.77656  0.33010  0.84007  1.0000
  N   N105      1.0  0.84441  0.18686  0.86049  1.0000
  C   C1892     1.0  0.82853  0.19804  0.88065  1.0000
  C   C1893     1.0  0.83521  0.16636  0.84995  1.0000
  C   C1894     1.0  0.84946  0.20155  0.83754  1.0000
  C   C1895     1.0  0.83088  0.21913  0.82860  1.0000
  C   C1896     1.0  0.83745  0.21687  0.89747  1.0000
  C   C1897     1.0  0.81316  0.16945  0.83400  1.0000
  H   H3359     1.0  0.85415  0.05219  0.57547  1.0000
  C   C1898     1.0  0.83683  0.22982  0.80237  1.0000
  C   C1899     1.0  0.81885  0.23107  0.91143  1.0000
  H   H3360     1.0  0.81288  0.20450  0.87079  1.0000
  H   H3361     1.0  0.84700  0.15720  0.83598  1.0000
  H   H3362     1.0  0.87361  0.19450  0.88267  1.0000
  H   H3363     1.0  0.86392  0.21072  0.84265  1.0000
  H   H3364     1.0  0.85460  0.19148  0.81942  1.0000
  H   H3365     1.0  0.82835  0.23227  0.84415  1.0000
  H   H3366     1.0  0.81488  0.21233  0.82538  1.0000
  H   H3367     1.0  0.84884  0.20993  0.91352  1.0000
  H   H3368     1.0  0.84667  0.22750  0.88472  1.0000
  H   H3369     1.0  0.88414  0.17062  0.83801  1.0000
  H   H3370     1.0  0.95774  0.07571  0.85936  1.0000
  H   H3371     1.0  0.81566  0.17754  0.81454  1.0000
  C   C1900     1.0  0.83731  0.03138  0.80032  1.0000
  C   C1901     1.0  0.95330  0.12758  0.61795  1.0000
  H   H3372     1.0  0.82392  0.24312  0.79733  1.0000
  H   H3373     1.0  0.85285  0.23699  0.80450  1.0000
  H   H3374     1.0  0.83778  0.21765  0.78553  1.0000
  H   H3375     1.0  0.80684  0.23849  0.89637  1.0000
  C   C1902     1.0  0.76983  0.31665  0.59342  1.0000
  C   C1903     1.0  0.80746  0.08579  0.66355  1.0000
  S   S424      1.0  0.78825  0.29353  0.60048  1.0000
  C   C1904     1.0  0.98138  0.11955  0.56745  1.0000
  S   S425      1.0  0.81990  0.18420  0.57960  1.0000
  H   H3376     1.0  0.94527  0.13350  0.66019  1.0000
  H   H3377     1.0  0.98487  0.11558  0.52307  1.0000
  H   H3378     1.0  0.98494  0.13306  0.58152  1.0000
  H   H3379     1.0  0.81091  0.20192  0.52603  1.0000
  H   H3380     1.0  0.81362  0.07796  0.50123  1.0000
  H   H3381     1.0  0.96573  0.06880  0.63659  1.0000
  H   H3382     1.0  0.90598  0.16277  0.89376  1.0000
  H   H3383     1.0  0.83309  0.15513  0.86696  1.0000
  H   H3384     1.0  0.86218  0.17073  0.89397  1.0000
  H   H3385     1.0  0.84228  0.03972  0.78183  1.0000
  Fe  Fe218     1.0  0.77725  0.26005  0.59100  1.0000
  C   C1905     1.0  0.95916  0.05792  0.53436  1.0000
  C   C1906     1.0  0.77537  0.27769  0.74767  1.0000
  C   C1907     1.0  0.76813  0.16021  0.51562  1.0000
  H   H3386     1.0  0.79561  0.07628  0.67412  1.0000
  S   S426      1.0  0.77557  0.19821  0.76855  1.0000
  H   H3387     1.0  0.95342  0.06277  0.51379  1.0000
  H   H3388     1.0  0.98567  0.14300  0.53531  1.0000
  H   H3389     1.0  0.77347  0.22423  0.50125  1.0000
  H   H3390     1.0  0.91802  0.15354  0.86203  1.0000
  S   S427      1.0  0.96774  0.11400  0.94066  1.0000
  H   H3391     1.0  0.98312  0.05315  0.66010  1.0000
  H   H3392     1.0  0.79514  0.29168  0.66431  1.0000
  C   C1908     1.0  0.83896  0.04576  0.61282  1.0000
  H   H3393     1.0  0.78569  0.18500  0.63529  1.0000
  H   H3394     1.0  0.82285  0.07498  0.65999  1.0000
  S   S428      1.0  0.87098  0.09597  0.95282  1.0000
  H   H3395     1.0  0.80568  0.27614  0.77123  1.0000
  H   H3396     1.0  0.94947  0.10423  0.85369  1.0000
  C   C1909     1.0  0.77322  0.20006  0.95808  1.0000
  S   S429      1.0  0.77392  0.19521  0.90314  1.0000
  Fe  Fe219     1.0  0.79255  0.21168  0.58176  1.0000
  C   C1910     1.0  0.99935  0.07824  0.63938  1.0000
  H   H3397     1.0  0.80011  0.17917  0.84558  1.0000
  C   C1911     1.0  0.90628  0.16609  0.87182  1.0000
  H   H3398     1.0  0.80150  0.04248  0.79933  1.0000
  H   H3399     1.0  0.99782  0.06427  0.86852  1.0000
  C   C1912     1.0  0.00811  0.09912  0.96129  1.0000
  N   N106      1.0  0.76707  0.12731  0.95083  1.0000
  H   H3400     1.0  0.87276  0.02829  0.54466  1.0000
  S   S430      1.0  0.92138  0.07277  0.94642  1.0000
  H   H3401     1.0  0.81779  0.12890  0.89679  1.0000
  H   H3402     1.0  0.93304  0.10613  0.59527  1.0000
  H   H3403     1.0  0.78405  0.26772  0.73142  1.0000
  H   H3404     1.0  0.79894  0.30211  0.85038  1.0000
  H   H3405     1.0  0.86450  0.02714  0.59077  1.0000
  H   H3406     1.0  0.82578  0.24442  0.92309  1.0000
  H   H3407     1.0  0.97107  0.12873  0.62234  1.0000
  H   H3408     1.0  0.79836  0.33721  0.55049  1.0000
  C   C1913     1.0  0.78877  0.34286  0.74204  1.0000
  C   C1914     1.0  0.83314  0.02467  0.56909  1.0000
  C   C1915     1.0  0.01038  0.10255  0.72218  1.0000
  C   C1916     1.0  0.83186  0.07548  0.50315  1.0000
  H   H3409     1.0  0.81203  0.03999  0.52276  1.0000
  H   H3410     1.0  0.79095  0.19709  0.95711  1.0000
  H   H3411     1.0  0.77628  0.32341  0.53536  1.0000
  C   C1917     1.0  0.84919  0.03777  0.58605  1.0000
  C   C1918     1.0  0.78816  0.27310  0.77391  1.0000
  H   H3412     1.0  0.82448  0.05778  0.60921  1.0000
  S   S431      1.0  0.78587  0.23998  0.55360  1.0000
  C   C1919     1.0  0.80466  0.14738  0.82715  1.0000
  C   C1920     1.0  0.94259  0.12124  0.64411  1.0000
  C   C1921     1.0  0.81637  0.04465  0.81164  1.0000
  H   H3413     1.0  0.83154  0.06750  0.54494  1.0000
  H   H3414     1.0  0.99668  0.03817  0.95849  1.0000
  H   H3415     1.0  0.96017  0.09516  0.60179  1.0000
  H   H3416     1.0  0.78418  0.15509  0.93900  1.0000
  H   H3417     1.0  0.98655  0.11407  0.86546  1.0000
  C   C1922     1.0  0.76786  0.21166  0.68887  1.0000
  H   H3418     1.0  0.78052  0.13614  0.91285  1.0000
  H   H3419     1.0  0.76761  0.15522  0.53704  1.0000
  C   C1923     1.0  0.80844  0.12690  0.93892  1.0000
  H   H3420     1.0  0.81787  0.29960  0.68454  1.0000
  H   H3421     1.0  0.99324  0.09210  0.65282  1.0000
  H   H3422     1.0  0.77868  0.32968  0.66244  1.0000
  H   H3423     1.0  0.82339  0.15231  0.91763  1.0000
  H   H3424     1.0  0.95697  0.09513  0.88716  1.0000
  H   H3425     1.0  0.80094  0.13876  0.84587  1.0000
  C   C1924     1.0  0.98474  0.09679  0.85993  1.0000
  H   H3426     1.0  0.81502  0.13200  0.95879  1.0000
  H   H3427     1.0  0.96836  0.06672  0.94216  1.0000
  C   C1925     1.0  0.98372  0.07136  0.95044  1.0000
  C   C1926     1.0  0.98558  0.08739  0.47728  1.0000
  C   C1927     1.0  0.77713  0.20717  0.71454  1.0000
  H   H3428     1.0  0.79216  0.33109  0.48939  1.0000
  H   H3429     1.0  0.84052  0.12686  0.92027  1.0000
  H   H3430     1.0  0.77986  0.17293  0.51413  1.0000
  H   H3431     1.0  0.99577  0.08173  0.89747  1.0000
  N   N107      1.0  0.83917  0.01924  0.54005  1.0000
  H   H3432     1.0  0.81702  0.13695  0.81520  1.0000
  H   H3433     1.0  0.82273  0.07536  0.79268  1.0000
  C   C1928     1.0  0.78441  0.13723  0.93479  1.0000
  H   H3434     1.0  0.96895  0.08317  0.47973  1.0000
  C   C1929     1.0  0.79451  0.34177  0.50728  1.0000
  H   H3435     1.0  0.82079  0.33867  0.69428  1.0000
  H   H3436     1.0  0.80432  0.03112  0.75756  1.0000
  H   H3437     1.0  0.83376  0.03184  0.62449  1.0000
  H   H3438     1.0  0.80458  0.31273  0.53060  1.0000
  H   H3439     1.0  0.94568  0.14401  0.61239  1.0000
  H   H3440     1.0  0.94986  0.10501  0.65107  1.0000
  C   C1930     1.0  0.98270  0.06110  0.64013  1.0000
  C   C1931     1.0  0.00347  0.07283  0.48556  1.0000
  C   C1932     1.0  0.79328  0.32796  0.53245  1.0000
  H   H3441     1.0  0.82589  0.19043  0.48121  1.0000
  H   H3442     1.0  0.79875  0.32756  0.73595  1.0000
  H   H3443     1.0  0.87537  0.01956  0.77420  1.0000
  C   C1933     1.0  0.77608  0.33753  0.59974  1.0000
  H   H3444     1.0  0.83822  0.09160  0.50725  1.0000
  H   H3445     1.0  0.77074  0.27552  0.84608  1.0000
  H   H3446     1.0  0.76983  0.16462  0.62042  1.0000
  H   H3447     1.0  0.81306  0.03949  0.83244  1.0000
  H   H3448     1.0  0.83895  0.06893  0.48379  1.0000
  H   H3449     1.0  0.78926  0.15005  0.81494  1.0000
  H   H3450     1.0  0.79370  0.01249  0.53157  1.0000
  H   H3451     1.0  0.85059  0.03382  0.81538  1.0000
  C   C1934     1.0  0.76545  0.10415  0.94080  1.0000
  H   H3452     1.0  0.79193  0.33916  0.60921  1.0000
  H   H3453     1.0  0.87081  0.02361  0.49615  1.0000
  H   H3454     1.0  0.90692  0.01262  0.52024  1.0000
  C   C1935     1.0  0.86385  0.01433  0.53759  1.0000
  S   S432      1.0  0.76625  0.22897  0.83605  1.0000
  H   H3455     1.0  0.78218  0.01297  0.72419  1.0000
  C   C1936     1.0  0.76620  0.29262  0.84234  1.0000
  C   C1937     1.0  0.80503  0.01302  0.75800  1.0000
  H   H3456     1.0  0.76650  0.10308  0.91840  1.0000
  H   H3457     1.0  0.77128  0.34159  0.73670  1.0000
  H   H3458     1.0  0.78690  0.01158  0.65332  1.0000
  H   H3459     1.0  0.76532  0.29434  0.50692  1.0000
  H   H3460     1.0  0.83957  0.01053  0.75134  1.0000
  H   H3461     1.0  0.81076  0.01031  0.71462  1.0000
  H   H3462     1.0  0.93935  0.01151  0.95905  1.0000
  H   H3463     1.0  0.76972  0.31224  0.97224  1.0000
  H   H3464     1.0  0.98220  0.53216  0.07920  1.0000
  H   H3465     1.0  0.84048  0.38742  0.24786  1.0000
  C   C1938     1.0  0.78474  0.65615  0.00427  1.0000
  C   C1939     1.0  0.80635  0.50984  0.39259  1.0000
  C   C1940     1.0  0.98928  0.56549  0.22898  1.0000
  H   H3466     1.0  0.94876  0.60412  0.27076  1.0000
  C   C1941     1.0  0.82400  0.50551  0.41497  1.0000
  C   C1942     1.0  0.83629  0.55048  0.38040  1.0000
  Fe  Fe220     1.0  0.90060  0.57266  0.43759  1.0000
  S   S433      1.0  0.90754  0.60774  0.43518  1.0000
  S   S434      1.0  0.89928  0.55005  0.40152  1.0000
  Fe  Fe221     1.0  0.89756  0.57797  0.99722  1.0000
  S   S435      1.0  0.90058  0.61402  0.99902  1.0000
  S   S436      1.0  0.89281  0.55592  0.03253  1.0000
  C   C1943     1.0  0.83995  0.54117  0.40931  1.0000
  H   H3467     1.0  0.81826  0.40729  0.25742  1.0000
  H   H3468     1.0  0.87404  0.48051  0.34579  1.0000
  H   H3469     1.0  0.96245  0.58994  0.36027  1.0000
  H   H3470     1.0  0.92550  0.61626  0.28957  1.0000
  H   H3471     1.0  0.79830  0.42742  0.20997  1.0000
  H   H3472     1.0  0.97722  0.58693  0.13560  1.0000
  S   S437      1.0  0.79432  0.43035  0.37140  1.0000
  H   H3473     1.0  0.79015  0.37355  0.28357  1.0000
  Fe  Fe222     1.0  0.80052  0.45110  0.33546  1.0000
  S   S438      1.0  0.82790  0.47356  0.33324  1.0000
  H   H3474     1.0  0.93102  0.62549  0.05278  1.0000
  Fe  Fe223     1.0  0.89716  0.57014  0.19046  1.0000
  S   S439      1.0  0.91560  0.53670  0.19137  1.0000
  S   S440      1.0  0.89101  0.59137  0.15357  1.0000
  Fe  Fe224     1.0  0.89319  0.57249  0.25202  1.0000
  S   S441      1.0  0.91166  0.53954  0.25712  1.0000
  S   S442      1.0  0.88128  0.59362  0.28753  1.0000
  Fe  Fe225     1.0  0.93464  0.55044  0.22593  1.0000
  Fe  Fe226     1.0  0.89061  0.52942  0.22273  1.0000
  S   S443      1.0  0.87249  0.49869  0.22371  1.0000
  S   S444      1.0  0.91756  0.58418  0.22333  1.0000
  S   S445      1.0  0.87075  0.56201  0.21913  1.0000
  H   H3475     1.0  0.96346  0.59109  0.22131  1.0000
  C   C1944     1.0  0.83886  0.48099  0.30207  1.0000
  C   C1945     1.0  0.85007  0.49994  0.30091  1.0000
  C   C1946     1.0  0.86012  0.50566  0.27692  1.0000
  C   C1947     1.0  0.85930  0.49234  0.25390  1.0000
  C   C1948     1.0  0.84783  0.47355  0.25491  1.0000
  C   C1949     1.0  0.83751  0.46796  0.27883  1.0000
  H   H3476     1.0  0.85115  0.51019  0.31867  1.0000
  H   H3477     1.0  0.86875  0.52024  0.27635  1.0000
  H   H3478     1.0  0.84723  0.46306  0.23729  1.0000
  H   H3479     1.0  0.82904  0.45328  0.27949  1.0000
  H   H3480     1.0  0.99038  0.52887  0.34087  1.0000
  C   C1950     1.0  0.78689  0.49875  0.25574  1.0000
  H   H3481     1.0  0.81382  0.50879  0.14184  1.0000
  C   C1951     1.0  0.87587  0.67202  0.29953  1.0000
  H   H3482     1.0  0.95274  0.62046  0.07751  1.0000
  C   C1952     1.0  0.89328  0.56240  0.37019  1.0000
  C   C1953     1.0  0.89317  0.54920  0.34693  1.0000
  C   C1954     1.0  0.88877  0.55864  0.32162  1.0000
  C   C1955     1.0  0.88491  0.58133  0.31931  1.0000
  C   C1956     1.0  0.88441  0.59449  0.34264  1.0000
  C   C1957     1.0  0.88855  0.58504  0.36804  1.0000
  H   H3483     1.0  0.89645  0.53163  0.34844  1.0000
  H   H3484     1.0  0.88820  0.54829  0.30398  1.0000
  H   H3485     1.0  0.88121  0.61205  0.34109  1.0000
  H   H3486     1.0  0.88809  0.59532  0.38586  1.0000
  C   C1958     1.0  0.89316  0.56588  0.06611  1.0000
  C   C1959     1.0  0.89352  0.58817  0.07191  1.0000
  C   C1960     1.0  0.89307  0.59569  0.09883  1.0000
  C   C1961     1.0  0.89265  0.58096  0.12019  1.0000
  C   C1962     1.0  0.89287  0.55858  0.11444  1.0000
  C   C1963     1.0  0.89293  0.55111  0.08746  1.0000
  H   H3487     1.0  0.89393  0.59967  0.05568  1.0000
  H   H3488     1.0  0.89296  0.61301  0.10315  1.0000
  H   H3489     1.0  0.89268  0.54709  0.13073  1.0000
  H   H3490     1.0  0.89274  0.53382  0.08313  1.0000
  H   H3491     1.0  0.82313  0.54299  0.36912  1.0000
  H   H3492     1.0  0.99001  0.64315  0.38743  1.0000
  S   S446      1.0  0.79256  0.42518  0.30568  1.0000
  N   N108      1.0  0.84487  0.51661  0.41196  1.0000
  H   H3493     1.0  0.97859  0.61706  0.38819  1.0000
  H   H3494     1.0  0.00338  0.53778  0.46155  1.0000
  C   C1964     1.0  0.88217  0.47652  0.36544  1.0000
  H   H3495     1.0  0.79224  0.35183  0.20474  1.0000
  H   H3496     1.0  0.89721  0.48537  0.36729  1.0000
  H   H3497     1.0  0.80264  0.50313  0.26489  1.0000
  S   S447      1.0  0.92594  0.56404  0.46962  1.0000
  H   H3498     1.0  0.77849  0.47454  0.17674  1.0000
  C   C1965     1.0  0.84691  0.65398  0.43657  1.0000
  C   C1966     1.0  0.86281  0.65394  0.41646  1.0000
  C   C1967     1.0  0.83683  0.66071  0.29628  1.0000
  H   H3499     1.0  0.96069  0.51625  0.04945  1.0000
  H   H3500     1.0  0.92077  0.50557  0.30539  1.0000
  H   H3501     1.0  0.87858  0.64461  0.41903  1.0000
  H   H3502     1.0  0.86730  0.63932  0.30492  1.0000
  H   H3503     1.0  0.92828  0.52147  0.01860  1.0000
  S   S448      1.0  0.87307  0.57863  0.46721  1.0000
  H   H3504     1.0  0.85928  0.65826  0.33176  1.0000
  C   C1968     1.0  0.95340  0.51275  0.31964  1.0000
  C   C1969     1.0  0.00022  0.55177  0.03954  1.0000
  N   N109      1.0  0.80525  0.49530  0.18010  1.0000
  C   C1970     1.0  0.82124  0.47499  0.18026  1.0000
  H   H3505     1.0  0.77621  0.39378  0.43120  1.0000
  H   H3506     1.0  0.80550  0.37749  0.06931  1.0000
  C   C1971     1.0  0.81382  0.51315  0.16371  1.0000
  C   C1972     1.0  0.83715  0.51948  0.17156  1.0000
  C   C1973     1.0  0.82871  0.46569  0.15224  1.0000
  C   C1974     1.0  0.96406  0.57335  0.30904  1.0000
  C   C1975     1.0  0.79088  0.48811  0.22797  1.0000
  H   H3507     1.0  0.82600  0.66963  0.99390  1.0000
  C   C1976     1.0  0.84422  0.53739  0.15334  1.0000
  C   C1977     1.0  0.84466  0.44511  0.15527  1.0000
  C   C1978     1.0  0.98099  0.58702  0.22351  1.0000
  H   H3508     1.0  0.81384  0.46152  0.19059  1.0000
  H   H3509     1.0  0.83626  0.47779  0.19233  1.0000
  H   H3510     1.0  0.79180  0.66830  0.29688  1.0000
  H   H3511     1.0  0.78488  0.62396  0.38210  1.0000
  C   C1979     1.0  0.80217  0.50338  0.20884  1.0000
  H   H3512     1.0  0.84050  0.62283  0.27602  1.0000
  H   H3513     1.0  0.83994  0.66102  0.27424  1.0000
  C   C1980     1.0  0.76618  0.43213  0.98990  1.0000
  H   H3514     1.0  0.84974  0.50530  0.16974  1.0000
  H   H3515     1.0  0.83741  0.52588  0.19257  1.0000
  H   H3516     1.0  0.81445  0.46109  0.14006  1.0000
  H   H3517     1.0  0.83730  0.47770  0.14081  1.0000
  H   H3518     1.0  0.80867  0.39519  0.04095  1.0000
  C   C1981     1.0  0.83037  0.57523  0.38127  1.0000
  H   H3519     1.0  0.78193  0.43678  0.25442  1.0000
  H   H3520     1.0  0.80150  0.47263  0.23094  1.0000
  H   H3521     1.0  0.81844  0.50571  0.21836  1.0000
  H   H3522     1.0  0.81557  0.63954  0.05503  1.0000
  C   C1982     1.0  0.77762  0.36604  0.02691  1.0000
  H   H3523     1.0  0.86076  0.54179  0.15981  1.0000
  H   H3524     1.0  0.84525  0.53161  0.13202  1.0000
  H   H3525     1.0  0.83248  0.55233  0.15478  1.0000
  H   H3526     1.0  0.85955  0.44881  0.16700  1.0000
  H   H3527     1.0  0.83647  0.43217  0.16562  1.0000
  H   H3528     1.0  0.84992  0.43880  0.13503  1.0000
  C   C1983     1.0  0.94493  0.51612  0.01067  1.0000
  H   H3529     1.0  0.98888  0.61995  0.21623  1.0000
  H   H3530     1.0  0.82925  0.58152  0.36036  1.0000
  H   H3531     1.0  0.81427  0.57930  0.39132  1.0000
  H   H3532     1.0  0.97891  0.51719  0.02104  1.0000
  C   C1984     1.0  0.82664  0.66665  0.43313  1.0000
  H   H3533     1.0  0.96107  0.58813  0.41032  1.0000
  C   C1985     1.0  0.79252  0.38705  0.43917  1.0000
  H   H3534     1.0  0.95548  0.55993  0.40811  1.0000
  H   H3535     1.0  0.78054  0.49684  0.41625  1.0000
  H   H3536     1.0  0.78320  0.66074  0.04689  1.0000
  H   H3537     1.0  0.87562  0.51758  0.43400  1.0000
  C   C1986     1.0  0.84329  0.61099  0.02994  1.0000
  H   H3538     1.0  0.80678  0.38784  0.39926  1.0000
  H   H3539     1.0  0.80689  0.67227  0.25373  1.0000
  H   H3540     1.0  0.85164  0.60109  0.01345  1.0000
  C   C1987     1.0  0.77865  0.65564  0.24276  1.0000
  S   S449      1.0  0.77616  0.43297  0.02344  1.0000
  H   H3541     1.0  0.81165  0.66360  0.09215  1.0000
  H   H3542     1.0  0.88140  0.51961  0.99598  1.0000
  H   H3543     1.0  0.81123  0.36227  0.01014  1.0000
  C   C1988     1.0  0.80816  0.37523  0.24616  1.0000
  H   H3544     1.0  0.80521  0.38083  0.22514  1.0000
  C   C1989     1.0  0.77146  0.43711  0.23686  1.0000
  H   H3545     1.0  0.78019  0.39470  0.26118  1.0000
  H   H3546     1.0  0.00058  0.55488  0.01740  1.0000
  S   S450      1.0  0.85241  0.63933  0.46669  1.0000
  H   H3547     1.0  0.77425  0.38386  0.02299  1.0000
  H   H3548     1.0  0.94279  0.49852  0.28164  1.0000
  C   C1990     1.0  0.76940  0.35146  0.34426  1.0000
  H   H3549     1.0  0.99219  0.52477  0.28855  1.0000
  H   H3550     1.0  0.82515  0.63309  0.00300  1.0000
  H   H3551     1.0  0.80258  0.52844  0.16549  1.0000
  C   C1991     1.0  0.80089  0.65600  0.25723  1.0000
  H   H3552     1.0  0.89669  0.49763  0.97787  1.0000
  C   C1992     1.0  0.81245  0.37837  0.04878  1.0000
  H   H3553     1.0  0.77970  0.48705  0.26926  1.0000
  H   H3554     1.0  0.81617  0.35827  0.24601  1.0000
  C   C1993     1.0  0.96498  0.57376  0.37001  1.0000
  C   C1994     1.0  0.78379  0.48957  0.16762  1.0000
  C   C1995     1.0  0.97660  0.54994  0.07890  1.0000
  S   S451      1.0  0.76654  0.46870  0.33532  1.0000
  H   H3555     1.0  0.76778  0.52208  0.15718  1.0000
  H   H3556     1.0  0.82780  0.38557  0.28034  1.0000
  N   N110      1.0  0.81498  0.67093  0.03561  1.0000
  C   C1996     1.0  0.99547  0.60339  0.22064  1.0000
  H   H3557     1.0  0.93724  0.55976  0.35109  1.0000
  H   H3558     1.0  0.79596  0.36244  0.40686  1.0000
  H   H3559     1.0  0.87599  0.47826  0.40742  1.0000
  H   H3560     1.0  0.94057  0.54783  0.08083  1.0000
  H   H3561     1.0  0.97138  0.61641  0.13710  1.0000
  N   N111      1.0  0.76695  0.35279  0.00533  1.0000
  H   H3562     1.0  0.87125  0.66669  0.37809  1.0000
  C   C1997     1.0  0.79079  0.66896  0.03000  1.0000
  N   N112      1.0  0.96502  0.55227  0.32450  1.0000
  H   H3563     1.0  0.78600  0.48530  0.14588  1.0000
  S   S452      1.0  0.97169  0.54437  0.23287  1.0000
  H   H3564     1.0  0.97581  0.58442  0.31774  1.0000
  H   H3565     1.0  0.98188  0.59020  0.06875  1.0000
  H   H3566     1.0  0.93387  0.54254  0.30996  1.0000
  H   H3567     1.0  0.95587  0.53602  0.28748  1.0000
  H   H3568     1.0  0.78422  0.45149  0.42469  1.0000
  H   H3569     1.0  0.96959  0.57005  0.28791  1.0000
  H   H3570     1.0  0.78364  0.63302  0.33376  1.0000
  H   H3571     1.0  0.85393  0.54971  0.41769  1.0000
  C   C1998     1.0  0.95542  0.55585  0.35232  1.0000
  H   H3572     1.0  0.84333  0.58350  0.39225  1.0000
  H   H3573     1.0  0.84088  0.65139  0.05726  1.0000
  H   H3574     1.0  0.82789  0.48754  0.41700  1.0000
  C   C1999     1.0  0.77452  0.35581  0.20018  1.0000
  H   H3575     1.0  0.83064  0.37493  0.05027  1.0000
  C   C2000     1.0  0.96280  0.52371  0.02950  1.0000
  H   H3576     1.0  0.78077  0.35720  0.45358  1.0000
  H   H3577     1.0  0.93382  0.59054  0.32667  1.0000
  H   H3578     1.0  0.93583  0.58104  0.39475  1.0000
  H   H3579     1.0  0.82850  0.60301  0.03595  1.0000
  C   C2001     1.0  0.85821  0.50740  0.38817  1.0000
  C   C2002     1.0  0.86652  0.48270  0.38882  1.0000
  C   C2003     1.0  0.98831  0.59229  0.47002  1.0000
  H   H3580     1.0  0.87818  0.67012  0.27740  1.0000
  H   H3581     1.0  0.84879  0.50979  0.36901  1.0000
  H   H3582     1.0  0.81333  0.50679  0.37224  1.0000
  H   H3583     1.0  0.85243  0.47253  0.38711  1.0000
  H   H3584     1.0  0.85156  0.54748  0.36849  1.0000
  C   C2004     1.0  0.80305  0.36159  0.02996  1.0000
  H   H3585     1.0  0.88717  0.45866  0.36563  1.0000
  H   H3586     1.0  0.98842  0.55767  0.09231  1.0000
  N   N113      1.0  0.82019  0.64470  0.30241  1.0000
  C   C2005     1.0  0.79893  0.65240  0.28804  1.0000
  C   C2006     1.0  0.81633  0.64584  0.33245  1.0000
  H   H3587     1.0  0.83460  0.51614  0.47021  1.0000
  C   C2007     1.0  0.82942  0.62201  0.29367  1.0000
  C   C2008     1.0  0.81265  0.60555  0.28520  1.0000
  H   H3588     1.0  0.77938  0.35737  0.15685  1.0000
  H   H3589     1.0  0.89217  0.66855  0.30962  1.0000
  C   C2009     1.0  0.79996  0.63068  0.34394  1.0000
  C   C2010     1.0  0.79634  0.63525  0.37406  1.0000
  C   C2011     1.0  0.82404  0.58238  0.28206  1.0000
  C   C2012     1.0  0.86001  0.65614  0.30959  1.0000
  C   C2013     1.0  0.95365  0.57579  0.39742  1.0000
  C   C2014     1.0  0.85862  0.66656  0.39325  1.0000
  N   N114      1.0  0.76864  0.36319  0.25183  1.0000
  H   H3590     1.0  0.83193  0.64165  0.34381  1.0000
  H   H3591     1.0  0.81041  0.66289  0.33847  1.0000
  S   S453      1.0  0.79049  0.36939  0.34278  1.0000
  H   H3592     1.0  0.81551  0.51091  0.43393  1.0000
  H   H3593     1.0  0.77519  0.51368  0.25419  1.0000
  H   H3594     1.0  0.84022  0.61442  0.30995  1.0000
  H   H3595     1.0  0.80495  0.61016  0.26547  1.0000
  H   H3596     1.0  0.79920  0.60499  0.29987  1.0000
  H   H3597     1.0  0.95778  0.54052  0.36409  1.0000
  H   H3598     1.0  0.94662  0.49799  0.00913  1.0000
  C   C2015     1.0  0.94100  0.58625  0.30662  1.0000
  H   H3599     1.0  0.81273  0.64341  0.24773  1.0000
  H   H3600     1.0  0.95925  0.62701  0.04310  1.0000
  H   H3601     1.0  0.80680  0.61338  0.34188  1.0000
  H   H3602     1.0  0.81221  0.63272  0.38540  1.0000
  H   H3603     1.0  0.78906  0.65234  0.37748  1.0000
  Fe  Fe227     1.0  0.93121  0.59957  0.46941  1.0000
  H   H3604     1.0  0.81179  0.57089  0.27607  1.0000
  H   H3605     1.0  0.83685  0.58187  0.26620  1.0000
  H   H3606     1.0  0.83197  0.57676  0.30136  1.0000
  H   H3607     1.0  0.95715  0.52311  0.11600  1.0000
  H   H3608     1.0  0.86097  0.49457  0.44154  1.0000
  H   H3609     1.0  0.98284  0.56974  0.37384  1.0000
  H   H3610     1.0  0.85179  0.64078  0.01258  1.0000
  C   C2016     1.0  0.98637  0.57012  0.46474  1.0000
  C   C2017     1.0  0.77513  0.35917  0.97805  1.0000
  Fe  Fe228     1.0  0.78234  0.40622  0.34120  1.0000
  S   S454      1.0  0.77994  0.42800  0.15669  1.0000
  C   C2018     1.0  0.98946  0.62783  0.39895  1.0000
  H   H3611     1.0  0.97220  0.60069  0.16748  1.0000
  C   C2019     1.0  0.95463  0.54102  0.11987  1.0000
  C   C2020     1.0  0.85878  0.51233  0.43714  1.0000
  C   C2021     1.0  0.97984  0.60197  0.14740  1.0000
  H   H3612     1.0  0.78944  0.63843  0.00699  1.0000
  C   C2022     1.0  0.77337  0.45308  0.44180  1.0000
  H   H3613     1.0  0.96796  0.54601  0.13343  1.0000
  H   H3614     1.0  0.79891  0.52701  0.39406  1.0000
  H   H3615     1.0  0.77433  0.49991  0.38088  1.0000
  H   H3616     1.0  0.96269  0.55559  0.01128  1.0000
  H   H3617     1.0  0.94378  0.55419  0.03781  1.0000
  H   H3618     1.0  0.94383  0.59241  0.02730  1.0000
  H   H3619     1.0  0.92954  0.57653  0.29517  1.0000
  H   H3620     1.0  0.87298  0.51655  0.38599  1.0000
  C   C2023     1.0  0.94228  0.60755  0.29141  1.0000
  C   C2024     1.0  0.97400  0.58332  0.05057  1.0000
  H   H3621     1.0  0.78038  0.65991  0.22123  1.0000
  C   C2025     1.0  0.78765  0.49519  0.39570  1.0000
  C   C2026     1.0  0.78624  0.37710  0.26195  1.0000
  C   C2027     1.0  0.94824  0.61822  0.05595  1.0000
  H   H3622     1.0  0.98220  0.63210  0.41901  1.0000
  H   H3623     1.0  0.78613  0.64105  0.29122  1.0000
  H   H3624     1.0  0.94837  0.51223  0.34103  1.0000
  H   H3625     1.0  0.95033  0.57106  0.09861  1.0000
  N   N115      1.0  0.97749  0.55858  0.05059  1.0000
  H   H3626     1.0  0.82537  0.54709  0.42165  1.0000
  H   H3627     1.0  0.79383  0.47787  0.39178  1.0000
  C   C2028     1.0  0.80505  0.37584  0.41544  1.0000
  H   H3628     1.0  0.01157  0.60232  0.41610  1.0000
  C   C2029     1.0  0.95166  0.53658  0.30929  1.0000
  H   H3629     1.0  0.95306  0.61837  0.30236  1.0000
  C   C2030     1.0  0.82461  0.38978  0.25883  1.0000
  Fe  Fe229     1.0  0.88164  0.61344  0.46709  1.0000
  C   C2031     1.0  0.95412  0.55350  0.09336  1.0000
  H   H3630     1.0  0.93867  0.54468  0.13039  1.0000
  H   H3631     1.0  0.93844  0.58608  0.06139  1.0000
  C   C2032     1.0  0.94987  0.59393  0.04840  1.0000
  H   H3632     1.0  0.79290  0.51987  0.20945  1.0000
  H   H3633     1.0  0.82184  0.36909  0.42180  1.0000
  H   H3634     1.0  0.98234  0.58988  0.03291  1.0000
  C   C2033     1.0  0.96103  0.54903  0.03193  1.0000
  C   C2034     1.0  0.98882  0.54324  0.32729  1.0000
  H   H3635     1.0  0.84563  0.54120  0.46163  1.0000
  H   H3636     1.0  0.93998  0.48187  0.31082  1.0000
  H   H3637     1.0  0.77468  0.48408  0.21999  1.0000
  H   H3638     1.0  0.78311  0.38236  0.17497  1.0000
  C   C2035     1.0  0.78077  0.43206  0.21154  1.0000
  C   C2036     1.0  0.00509  0.55490  0.46552  1.0000
  C   C2037     1.0  0.83669  0.63420  0.02017  1.0000
  H   H3639     1.0  0.85482  0.61124  0.04739  1.0000
  C   C2038     1.0  0.93829  0.49890  0.30332  1.0000
  H   H3640     1.0  0.00589  0.61944  0.11211  1.0000
  S   S455      1.0  0.96327  0.61891  0.98296  1.0000
  C   C2039     1.0  0.82677  0.64909  0.04332  1.0000
  H   H3641     1.0  0.94646  0.52282  0.99014  1.0000
  H   H3642     1.0  0.77887  0.37662  0.97834  1.0000
  H   H3643     1.0  0.99859  0.55550  0.33724  1.0000
  C   C2040     1.0  0.79003  0.37055  0.46214  1.0000
  C   C2041     1.0  0.84968  0.52334  0.46372  1.0000
  S   S456      1.0  0.96512  0.61183  0.46950  1.0000
  C   C2042     1.0  0.77299  0.36827  0.17363  1.0000
  H   H3644     1.0  0.79272  0.66177  0.98598  1.0000
  H   H3645     1.0  0.00448  0.53388  0.04186  1.0000
  H   H3646     1.0  0.77273  0.63912  0.24375  1.0000
  C   C2043     1.0  0.00449  0.60440  0.15087  1.0000
  H   H3647     1.0  0.97047  0.50486  0.31779  1.0000
  H   H3648     1.0  0.01302  0.59101  0.11123  1.0000
  H   H3649     1.0  0.00222  0.55137  0.28798  1.0000
  H   H3650     1.0  0.79882  0.42681  0.97327  1.0000
  H   H3651     1.0  0.00632  0.61925  0.16337  1.0000
  H   H3652     1.0  0.77030  0.36339  0.04698  1.0000
  C   C2044     1.0  0.76757  0.43339  0.18825  1.0000
  C   C2045     1.0  0.76421  0.50764  0.16899  1.0000
  H   H3653     1.0  0.97052  0.56464  0.45993  1.0000
  H   H3654     1.0  0.00897  0.61813  0.99833  1.0000
  H   H3655     1.0  0.81430  0.66687  0.44868  1.0000
  H   H3656     1.0  0.01142  0.59926  0.36413  1.0000
  S   S457      1.0  0.92852  0.57015  0.97380  1.0000
  C   C2046     1.0  0.78225  0.45315  0.46808  1.0000
  C   C2047     1.0  0.00706  0.60382  0.98588  1.0000
  C   C2048     1.0  0.01217  0.56059  0.23178  1.0000
  C   C2049     1.0  0.00088  0.53675  0.30052  1.0000
  H   H3657     1.0  0.80686  0.36281  0.46642  1.0000
  H   H3658     1.0  0.01183  0.58993  0.16209  1.0000
  H   H3659     1.0  0.80751  0.34528  0.03892  1.0000
  C   C2050     1.0  0.88839  0.51445  0.97605  1.0000
  H   H3660     1.0  0.80179  0.40079  0.44621  1.0000
  H   H3661     1.0  0.79995  0.45161  0.47099  1.0000
  C   C2051     1.0  0.98624  0.60038  0.97518  1.0000
  H   H3662     1.0  0.76621  0.66776  0.25202  1.0000
  C   C2052     1.0  0.01264  0.61635  0.40263  1.0000
  H   H3663     1.0  0.79113  0.34962  0.97341  1.0000
  H   H3664     1.0  0.85945  0.67598  0.02610  1.0000
  C   C2053     1.0  0.81515  0.39082  0.50950  1.0000
  H   H3665     1.0  0.80045  0.64938  0.73767  1.0000
  S   S458      1.0  0.87628  0.57936  0.95979  1.0000
  H   H3666     1.0  0.79524  0.47400  0.76943  1.0000
  H   H3667     1.0  0.82529  0.38394  0.49244  1.0000
  C   C2054     1.0  0.82828  0.66754  0.91952  1.0000
  C   C2055     1.0  0.80065  0.64039  0.63592  1.0000
  Fe  Fe230     1.0  0.88152  0.61512  0.95970  1.0000
  Fe  Fe231     1.0  0.90781  0.57539  0.93656  1.0000
  S   S459      1.0  0.91185  0.61119  0.93395  1.0000
  S   S460      1.0  0.91468  0.55176  0.90190  1.0000
  Fe  Fe232     1.0  0.89917  0.57358  0.49947  1.0000
  S   S461      1.0  0.90606  0.60880  0.50158  1.0000
  S   S462      1.0  0.89757  0.55070  0.53475  1.0000
  H   H3668     1.0  0.79732  0.48834  0.70326  1.0000
  H   H3669     1.0  0.82276  0.67431  0.75286  1.0000
  C   C2056     1.0  0.82631  0.62349  0.84936  1.0000
  H   H3670     1.0  0.00010  0.55244  0.94154  1.0000
  H   H3671     1.0  0.87576  0.62105  0.73276  1.0000
  H   H3672     1.0  0.81139  0.34695  0.50649  1.0000
  H   H3673     1.0  0.98595  0.63175  0.80436  1.0000
  S   S463      1.0  0.79907  0.41011  0.86800  1.0000
  S   S464      1.0  0.79661  0.40430  0.80185  1.0000
  Fe  Fe233     1.0  0.80403  0.43077  0.83151  1.0000
  S   S465      1.0  0.83099  0.45395  0.82972  1.0000
  C   C2057     1.0  0.81818  0.49213  0.66873  1.0000
  Fe  Fe234     1.0  0.88782  0.56089  0.68998  1.0000
  S   S466      1.0  0.90927  0.52915  0.68801  1.0000
  S   S467      1.0  0.87185  0.57951  0.65451  1.0000
  Fe  Fe235     1.0  0.89008  0.56252  0.75155  1.0000
  S   S468      1.0  0.91190  0.53105  0.75388  1.0000
  S   S469      1.0  0.87759  0.58286  0.78758  1.0000
  Fe  Fe236     1.0  0.93010  0.54457  0.71951  1.0000
  Fe  Fe237     1.0  0.88897  0.51891  0.72263  1.0000
  S   S470      1.0  0.87410  0.48633  0.72268  1.0000
  S   S471      1.0  0.90983  0.57697  0.71937  1.0000
  S   S472      1.0  0.86603  0.54960  0.72225  1.0000
  H   H3674     1.0  0.95937  0.58822  0.71744  1.0000
  C   C2058     1.0  0.84145  0.46326  0.79918  1.0000
  C   C2059     1.0  0.85129  0.48305  0.79936  1.0000
  C   C2060     1.0  0.86102  0.49044  0.77598  1.0000
  C   C2061     1.0  0.86115  0.47798  0.75216  1.0000
  C   C2062     1.0  0.85093  0.45837  0.75179  1.0000
  C   C2063     1.0  0.84095  0.45111  0.77513  1.0000
  H   H3675     1.0  0.85144  0.49271  0.81770  1.0000
  H   H3676     1.0  0.86872  0.50561  0.77650  1.0000
  H   H3677     1.0  0.85097  0.44861  0.73347  1.0000
  H   H3678     1.0  0.83343  0.43584  0.77474  1.0000
  H   H3679     1.0  0.96373  0.62744  0.84426  1.0000
  H   H3680     1.0  0.78024  0.63198  0.50731  1.0000
  S   S473      1.0  0.79720  0.34859  0.84256  1.0000
  C   C2064     1.0  0.81489  0.63844  0.80342  1.0000
  H   H3681     1.0  0.83841  0.40227  0.66029  1.0000
  C   C2065     1.0  0.90513  0.56114  0.87021  1.0000
  C   C2066     1.0  0.90850  0.54729  0.84770  1.0000
  C   C2067     1.0  0.89990  0.55378  0.82243  1.0000
  C   C2068     1.0  0.88826  0.57432  0.81931  1.0000
  C   C2069     1.0  0.88529  0.58839  0.84177  1.0000
  C   C2070     1.0  0.89363  0.58178  0.86721  1.0000
  H   H3682     1.0  0.91736  0.53129  0.84989  1.0000
  H   H3683     1.0  0.90185  0.54261  0.80559  1.0000
  H   H3684     1.0  0.87662  0.60444  0.83954  1.0000
  H   H3685     1.0  0.89090  0.59258  0.88450  1.0000
  C   C2071     1.0  0.89224  0.56051  0.56789  1.0000
  C   C2072     1.0  0.87800  0.57933  0.57296  1.0000
  C   C2073     1.0  0.87213  0.58523  0.59966  1.0000
  C   C2074     1.0  0.88084  0.57266  0.62143  1.0000
  C   C2075     1.0  0.89573  0.55436  0.61634  1.0000
  C   C2076     1.0  0.90111  0.54811  0.58967  1.0000
  H   H3686     1.0  0.87099  0.58888  0.55627  1.0000
  H   H3687     1.0  0.86066  0.59945  0.60346  1.0000
  H   H3688     1.0  0.90276  0.54473  0.63288  1.0000
  H   H3689     1.0  0.91212  0.53354  0.58586  1.0000
  H   H3690     1.0  0.98521  0.61730  0.71763  1.0000
  C   C2077     1.0  0.95090  0.61226  0.87867  1.0000
  H   H3691     1.0  0.96878  0.59407  0.64376  1.0000
  H   H3692     1.0  0.85698  0.40502  0.68846  1.0000
  C   C2078     1.0  0.81657  0.45748  0.58979  1.0000
  H   H3693     1.0  0.78595  0.42742  0.92556  1.0000
  H   H3694     1.0  0.77015  0.65756  0.93613  1.0000
  H   H3695     1.0  0.99833  0.61604  0.83205  1.0000
  H   H3696     1.0  0.79929  0.44383  0.71121  1.0000
  H   H3697     1.0  0.78293  0.43612  0.75537  1.0000
  S   S474      1.0  0.77044  0.41733  0.58352  1.0000
  H   H3698     1.0  0.83970  0.37005  0.69068  1.0000
  C   C2079     1.0  0.84715  0.65282  0.92303  1.0000
  C   C2080     1.0  0.86231  0.64942  0.90207  1.0000
  C   C2081     1.0  0.85863  0.66069  0.87773  1.0000
  H   H3699     1.0  0.80352  0.38686  0.66759  1.0000
  C   C2082     1.0  0.78412  0.64851  0.50122  1.0000
  H   H3700     1.0  0.87682  0.63808  0.90454  1.0000
  H   H3701     1.0  0.79367  0.62678  0.75699  1.0000
  C   C2083     1.0  0.80271  0.64110  0.60525  1.0000
  H   H3702     1.0  0.82515  0.47622  0.70722  1.0000
  S   S475      1.0  0.85115  0.63883  0.95376  1.0000
  H   H3703     1.0  0.78867  0.64782  0.47956  1.0000
  H   H3704     1.0  0.81668  0.62916  0.59925  1.0000
  H   H3705     1.0  0.81652  0.67028  0.93569  1.0000
  H   H3706     1.0  0.78238  0.40371  0.51914  1.0000
  H   H3707     1.0  0.80212  0.48145  0.91089  1.0000
  C   C2084     1.0  0.82708  0.66707  0.77294  1.0000
  Fe  Fe238     1.0  0.78794  0.38517  0.83819  1.0000
  H   H3708     1.0  0.82968  0.45272  0.57486  1.0000
  C   C2085     1.0  0.83617  0.62711  0.76242  1.0000
  H   H3709     1.0  0.77479  0.36812  0.52832  1.0000
  S   S476      1.0  0.96764  0.54037  0.71902  1.0000
  H   H3710     1.0  0.83081  0.61046  0.76560  1.0000
  H   H3711     1.0  0.83021  0.42025  0.68834  1.0000
  H   H3712     1.0  0.79634  0.39956  0.69900  1.0000
  C   C2086     1.0  0.98517  0.56180  0.71949  1.0000
  H   H3713     1.0  0.81088  0.34964  0.66322  1.0000
  H   H3714     1.0  0.79088  0.41160  0.48719  1.0000
  H   H3715     1.0  0.93915  0.60012  0.88354  1.0000
  N   N116      1.0  0.86299  0.50947  0.90345  1.0000
  C   C2087     1.0  0.87569  0.50214  0.87837  1.0000
  C   C2088     1.0  0.85486  0.53355  0.90189  1.0000
  C   C2089     1.0  0.87888  0.50666  0.92708  1.0000
  C   C2090     1.0  0.84421  0.49576  0.90843  1.0000
  C   C2091     1.0  0.82639  0.49572  0.88600  1.0000
  C   C2092     1.0  0.88384  0.47746  0.87621  1.0000
  H   H3716     1.0  0.99154  0.58177  0.60314  1.0000
  C   C2093     1.0  0.84832  0.54291  0.87368  1.0000
  C   C2094     1.0  0.83765  0.56639  0.87589  1.0000
  C   C2095     1.0  0.89836  0.47277  0.85144  1.0000
  H   H3717     1.0  0.78556  0.34942  0.92372  1.0000
  H   H3718     1.0  0.89021  0.51177  0.87648  1.0000
  H   H3719     1.0  0.86575  0.50560  0.85985  1.0000
  H   H3720     1.0  0.84057  0.53741  0.91554  1.0000
  H   H3721     1.0  0.86784  0.54385  0.90940  1.0000
  H   H3722     1.0  0.89401  0.51492  0.92293  1.0000
  H   H3723     1.0  0.88457  0.48915  0.93011  1.0000
  H   H3724     1.0  0.81779  0.67120  0.61038  1.0000
  H   H3725     1.0  0.83522  0.50146  0.92700  1.0000
  H   H3726     1.0  0.83374  0.49223  0.86590  1.0000
  H   H3727     1.0  0.81645  0.51181  0.88564  1.0000
  H   H3728     1.0  0.89383  0.47172  0.89393  1.0000
  H   H3729     1.0  0.86958  0.46750  0.87414  1.0000
  C   C2096     1.0  0.82587  0.41068  0.52053  1.0000
  H   H3730     1.0  0.81670  0.44476  0.60554  1.0000
  H   H3731     1.0  0.86324  0.54324  0.86109  1.0000
  H   H3732     1.0  0.83673  0.53306  0.86272  1.0000
  H   H3733     1.0  0.84878  0.57696  0.88673  1.0000
  H   H3734     1.0  0.83447  0.57298  0.85533  1.0000
  H   H3735     1.0  0.82175  0.56693  0.88674  1.0000
  H   H3736     1.0  0.88924  0.47780  0.83272  1.0000
  H   H3737     1.0  0.91341  0.48162  0.85307  1.0000
  H   H3738     1.0  0.90343  0.45495  0.84987  1.0000
  H   H3739     1.0  0.85064  0.47853  0.91252  1.0000
  H   H3740     1.0  0.77925  0.35885  0.78031  1.0000
  C   C2097     1.0  0.80537  0.34499  0.68356  1.0000
  N   N117      1.0  0.96336  0.59333  0.80386  1.0000
  C   C2098     1.0  0.94971  0.61138  0.78924  1.0000
  C   C2099     1.0  0.98746  0.59565  0.79882  1.0000
  C   C2100     1.0  0.95804  0.57176  0.79147  1.0000
  C   C2101     1.0  0.95861  0.59296  0.83376  1.0000
  C   C2102     1.0  0.95201  0.61519  0.84816  1.0000
  C   C2103     1.0  0.92461  0.60924  0.78809  1.0000
  C   C2104     1.0  0.97260  0.55121  0.80131  1.0000
  H   H3741     1.0  0.80588  0.49917  0.77984  1.0000
  C   C2105     1.0  0.91155  0.63067  0.78001  1.0000
  C   C2106     1.0  0.96196  0.53011  0.79531  1.0000
  H   H3742     1.0  0.95531  0.61224  0.76795  1.0000
  H   H3743     1.0  0.95202  0.62762  0.79821  1.0000
  H   H3744     1.0  0.99811  0.58208  0.80818  1.0000
  H   H3745     1.0  0.99075  0.59428  0.77673  1.0000
  H   H3746     1.0  0.95927  0.57208  0.76908  1.0000
  H   H3747     1.0  0.94060  0.56889  0.79558  1.0000
  H   H3748     1.0  0.94485  0.58268  0.83780  1.0000
  H   H3749     1.0  0.97310  0.58488  0.84482  1.0000
  H   H3750     1.0  0.81943  0.46178  0.89109  1.0000
  H   H3751     1.0  0.92105  0.59660  0.77287  1.0000
  H   H3752     1.0  0.91854  0.60430  0.80783  1.0000
  H   H3753     1.0  0.98877  0.54997  0.79093  1.0000
  H   H3754     1.0  0.94511  0.62808  0.88854  1.0000
  C   C2107     1.0  0.85199  0.66956  0.77735  1.0000
  H   H3755     1.0  0.83229  0.38824  0.71877  1.0000
  Fe  Fe239     1.0  0.76393  0.42477  0.86649  1.0000
  H   H3756     1.0  0.85732  0.50474  0.96221  1.0000
  H   H3757     1.0  0.95921  0.52810  0.77332  1.0000
  H   H3758     1.0  0.97301  0.51587  0.80234  1.0000
  H   H3759     1.0  0.80659  0.50579  0.66138  1.0000
  H   H3760     1.0  0.88215  0.64407  0.55908  1.0000
  C   C2108     1.0  0.97697  0.58386  0.71855  1.0000
  H   H3761     1.0  0.97550  0.55198  0.82333  1.0000
  H   H3762     1.0  0.79090  0.37790  0.73908  1.0000
  N   N118      1.0  0.84768  0.49924  0.63305  1.0000
  C   C2109     1.0  0.83510  0.52030  0.62409  1.0000
  C   C2110     1.0  0.84245  0.49542  0.66223  1.0000
  C   C2111     1.0  0.87199  0.50232  0.63166  1.0000
  C   C2112     1.0  0.84312  0.47973  0.61559  1.0000
  C   C2113     1.0  0.81977  0.47975  0.60261  1.0000
  C   C2114     1.0  0.84174  0.52879  0.59624  1.0000
  C   C2115     1.0  0.88806  0.48348  0.64310  1.0000
  C   C2116     1.0  0.77036  0.43739  0.68805  1.0000
  C   C2117     1.0  0.79105  0.39731  0.50063  1.0000
  H   H3763     1.0  0.91669  0.63578  0.75981  1.0000
  C   C2118     1.0  0.82493  0.54683  0.58587  1.0000
  C   C2119     1.0  0.91161  0.48493  0.63335  1.0000
  H   H3764     1.0  0.83746  0.53364  0.63909  1.0000
  H   H3765     1.0  0.81710  0.51893  0.62362  1.0000
  H   H3766     1.0  0.85216  0.48045  0.66976  1.0000
  H   H3767     1.0  0.84755  0.50918  0.67508  1.0000
  H   H3768     1.0  0.87552  0.51762  0.64260  1.0000
  H   H3769     1.0  0.87692  0.50450  0.61038  1.0000
  H   H3770     1.0  0.85486  0.47772  0.59844  1.0000
  H   H3771     1.0  0.84629  0.46439  0.62734  1.0000
  H   H3772     1.0  0.81750  0.49205  0.58641  1.0000
  H   H3773     1.0  0.80639  0.48364  0.61729  1.0000
  H   H3774     1.0  0.85772  0.53594  0.59809  1.0000
  H   H3775     1.0  0.84369  0.51546  0.58090  1.0000
  H   H3776     1.0  0.88308  0.46720  0.63702  1.0000
  H   H3777     1.0  0.88840  0.48450  0.66548  1.0000
  H   H3778     1.0  0.84318  0.40571  0.52668  1.0000
  H   H3779     1.0  0.81927  0.50559  0.70974  1.0000
  H   H3780     1.0  0.86796  0.63074  0.53212  1.0000
  H   H3781     1.0  0.77401  0.50693  0.75015  1.0000
  H   H3782     1.0  0.81681  0.41772  0.53846  1.0000
  N   N119      1.0  0.77891  0.37960  0.48757  1.0000
  H   H3783     1.0  0.80045  0.45828  0.57908  1.0000
  C   C2120     1.0  0.79787  0.65660  0.54851  1.0000
  H   H3784     1.0  0.83071  0.55296  0.56644  1.0000
  H   H3785     1.0  0.80865  0.54046  0.58246  1.0000
  H   H3786     1.0  0.82323  0.56073  0.60053  1.0000
  H   H3787     1.0  0.91255  0.48225  0.61117  1.0000
  H   H3788     1.0  0.91723  0.50119  0.63839  1.0000
  H   H3789     1.0  0.92293  0.47219  0.64332  1.0000
  H   H3790     1.0  0.78113  0.66541  0.55103  1.0000
  H   H3791     1.0  0.78731  0.65267  0.64294  1.0000
  C   C2121     1.0  0.83941  0.40441  0.68254  1.0000
  C   C2122     1.0  0.79017  0.34459  0.77274  1.0000
  C   C2123     1.0  0.81049  0.47842  0.89121  1.0000
  C   C2124     1.0  0.82996  0.38547  0.69679  1.0000
  H   H3792     1.0  0.81640  0.64391  0.64583  1.0000
  H   H3793     1.0  0.94596  0.53018  0.80587  1.0000
  H   H3794     1.0  0.96741  0.60664  0.88710  1.0000
  H   H3795     1.0  0.98854  0.51954  0.85780  1.0000
  N   N120      1.0  0.81970  0.64425  0.77458  1.0000
  H   H3796     1.0  0.79773  0.47889  0.87500  1.0000
  H   H3797     1.0  0.84720  0.63997  0.82360  1.0000
  H   H3798     1.0  0.84056  0.61739  0.86222  1.0000
  C   C2125     1.0  0.86662  0.51992  0.48662  1.0000
  H   H3799     1.0  0.91398  0.64378  0.79511  1.0000
  H   H3800     1.0  0.76923  0.66027  0.50360  1.0000
  C   C2126     1.0  0.79840  0.64387  0.75873  1.0000
  C   C2127     1.0  0.86990  0.51515  0.95490  1.0000
  H   H3801     1.0  0.98319  0.57194  0.66259  1.0000
  H   H3802     1.0  0.96813  0.57954  0.94981  1.0000
  H   H3803     1.0  0.96638  0.56603  0.63387  1.0000
  H   H3804     1.0  0.80736  0.34632  0.77958  1.0000
  N   N121      1.0  0.79455  0.36472  0.69851  1.0000
  H   H3805     1.0  0.80270  0.62599  0.80361  1.0000
  H   H3806     1.0  0.01087  0.61630  0.47958  1.0000
  H   H3807     1.0  0.85235  0.62689  0.77302  1.0000
  C   C2128     1.0  0.78135  0.42912  0.96874  1.0000
  C   C2129     1.0  0.78253  0.43943  0.71201  1.0000
  H   H3808     1.0  0.89371  0.62831  0.77916  1.0000
  H   H3809     1.0  0.99994  0.52399  0.89088  1.0000
  H   H3810     1.0  0.88200  0.52734  0.48161  1.0000
  C   C2130     1.0  0.00211  0.56677  0.95392  1.0000
  H   H3811     1.0  0.81376  0.47650  0.65969  1.0000
  H   H3812     1.0  0.81779  0.64385  0.51420  1.0000
  H   H3813     1.0  0.85978  0.59792  0.72811  1.0000
  C   C2131     1.0  0.86090  0.61527  0.72284  1.0000
  H   H3814     1.0  0.98555  0.54654  0.87290  1.0000
  H   H3815     1.0  0.81802  0.63838  0.85913  1.0000
  C   C2132     1.0  0.77637  0.36138  0.50732  1.0000
  H   H3816     1.0  0.80689  0.67203  0.51042  1.0000
  H   H3817     1.0  0.87038  0.65792  0.86155  1.0000
  H   H3818     1.0  0.77383  0.36537  0.64860  1.0000
  C   C2133     1.0  0.99683  0.53132  0.87066  1.0000
  C   C2134     1.0  0.98390  0.58197  0.95890  1.0000
  H   H3819     1.0  0.85764  0.66406  0.79754  1.0000
  H   H3820     1.0  0.84182  0.61294  0.81249  1.0000
  C   C2135     1.0  0.79163  0.48925  0.78153  1.0000
  C   C2136     1.0  0.84012  0.62925  0.73172  1.0000
  H   H3821     1.0  0.79007  0.67475  0.59864  1.0000
  C   C2137     1.0  0.80604  0.66454  0.59577  1.0000
  H   H3822     1.0  0.79677  0.62388  0.64207  1.0000
  C   C2138     1.0  0.80334  0.65588  0.51803  1.0000
  S   S477      1.0  0.76945  0.44721  0.83223  1.0000
  H   H3823     1.0  0.78191  0.67568  0.77217  1.0000
  C   C2139     1.0  0.83970  0.67527  0.87413  1.0000
  C   C2140     1.0  0.99659  0.61682  0.80975  1.0000
  H   H3824     1.0  0.93544  0.62213  0.84135  1.0000
  H   H3825     1.0  0.88388  0.65315  0.52475  1.0000
  H   H3826     1.0  0.81560  0.37879  0.52602  1.0000
  H   H3827     1.0  0.76717  0.37231  0.59810  1.0000
  C   C2141     1.0  0.83685  0.65443  0.56496  1.0000
  C   C2142     1.0  0.77830  0.65834  0.77027  1.0000
  C   C2143     1.0  0.81483  0.49055  0.69912  1.0000
  H   H3828     1.0  0.79632  0.63928  0.55368  1.0000
  C   C2144     1.0  0.85250  0.66280  0.54368  1.0000
  H   H3829     1.0  0.87066  0.50223  0.49049  1.0000
  H   H3830     1.0  0.00612  0.56100  0.62311  1.0000
  H   H3831     1.0  0.90075  0.52583  0.97066  1.0000
  H   H3832     1.0  0.83548  0.63674  0.56068  1.0000
  C   C2145     1.0  0.77103  0.36149  0.92699  1.0000
  S   S478      1.0  0.78020  0.45434  0.52322  1.0000
  H   H3833     1.0  0.84181  0.64643  0.72610  1.0000
  H   H3834     1.0  0.78723  0.63575  0.59643  1.0000
  C   C2146     1.0  0.79799  0.36264  0.72863  1.0000
  H   H3835     1.0  0.81456  0.61075  0.84819  1.0000
  C   C2147     1.0  0.99165  0.60029  0.71857  1.0000
  C   C2148     1.0  0.83433  0.62861  0.82120  1.0000
  H   H3836     1.0  0.80699  0.65298  0.81452  1.0000
  H   H3837     1.0  0.82603  0.62351  0.72008  1.0000
  H   H3838     1.0  0.86235  0.53226  0.95405  1.0000
  C   C2149     1.0  0.77410  0.42944  0.94170  1.0000
  H   H3839     1.0  0.78992  0.48497  0.80305  1.0000
  H   H3840     1.0  0.85985  0.52791  0.50539  1.0000
  H   H3841     1.0  0.82592  0.42349  0.50491  1.0000
  S   S479      1.0  0.78290  0.44035  0.65660  1.0000
  C   C2150     1.0  0.80513  0.38474  0.68982  1.0000
  H   H3842     1.0  0.76669  0.39284  0.66016  1.0000
  H   H3843     1.0  0.86225  0.66009  0.76211  1.0000
  C   C2151     1.0  0.99780  0.57777  0.62381  1.0000
  H   H3844     1.0  0.86280  0.61624  0.70064  1.0000
  C   C2152     1.0  0.97783  0.57754  0.64217  1.0000
  C   C2153     1.0  0.77012  0.36884  0.69275  1.0000
  H   H3845     1.0  0.00366  0.61102  0.62912  1.0000
  H   H3846     1.0  0.81585  0.36090  0.73388  1.0000
  C   C2154     1.0  0.77074  0.50229  0.77114  1.0000
  C   C2155     1.0  0.87287  0.64667  0.53981  1.0000
  C   C2156     1.0  0.77335  0.43491  0.73700  1.0000
  C   C2157     1.0  0.76836  0.45483  0.49056  1.0000
  H   H3847     1.0  0.76811  0.51743  0.78359  1.0000
  N   N122      1.0  0.81410  0.66648  0.56723  1.0000
  H   H3848     1.0  0.77644  0.37828  0.92723  1.0000
  H   H3849     1.0  0.84595  0.65480  0.58457  1.0000
  H   H3850     1.0  0.84447  0.66526  0.52377  1.0000
  H   H3851     1.0  0.77377  0.65272  0.79047  1.0000
  C   C2158     1.0  0.00921  0.59917  0.47554  1.0000
  C   C2159     1.0  0.00808  0.55641  0.72062  1.0000
  C   C2160     1.0  0.01329  0.59510  0.63352  1.0000
  C   C2161     1.0  0.76378  0.37550  0.66340  1.0000
  Fe  Fe240     1.0  0.93047  0.60626  0.97308  1.0000
  Fe  Fe241     1.0  0.78183  0.75964  0.33857  1.0000
  H   H3852     1.0  0.85774  0.73629  0.41654  1.0000
  S   S480      1.0  0.79302  0.79338  0.33510  1.0000
  S   S481      1.0  0.78733  0.74138  0.37721  1.0000
  H   H3853     1.0  0.77591  0.90275  0.16805  1.0000
  H   H3854     1.0  0.80087  0.69164  0.12709  1.0000
  H   H3855     1.0  0.78793  0.79742  0.40493  1.0000
  C   C2162     1.0  0.78316  0.88406  0.21452  1.0000
  S   S482      1.0  0.80021  0.93283  0.11580  1.0000
  H   H3856     1.0  0.76949  0.87074  0.32372  1.0000
  H   H3857     1.0  0.76626  0.00964  0.13881  1.0000
  S   S483      1.0  0.80108  0.93690  0.05006  1.0000
  C   C2163     1.0  0.82421  0.98182  0.24432  1.0000
  Fe  Fe242     1.0  0.78944  0.91343  0.07999  1.0000
  S   S484      1.0  0.79734  0.87679  0.07427  1.0000
  Fe  Fe243     1.0  0.80827  0.95804  0.08602  1.0000
  S   S485      1.0  0.83821  0.97734  0.08732  1.0000
  H   H3858     1.0  0.78713  0.83621  0.39543  1.0000
  H   H3859     1.0  0.83056  0.73030  0.40988  1.0000
  C   C2164     1.0  0.77176  0.70773  0.46010  1.0000
  H   H3860     1.0  0.78971  0.80373  0.14988  1.0000
  C   C2165     1.0  0.76415  0.85503  0.32825  1.0000
  C   C2166     1.0  0.84587  0.76626  0.45974  1.0000
  H   H3861     1.0  0.82562  0.81961  0.99379  1.0000
  H   H3862     1.0  0.80396  0.87676  0.36202  1.0000
  H   H3863     1.0  0.86263  0.75050  0.37044  1.0000
  S   S486      1.0  0.78642  0.93847  0.26421  1.0000
  H   H3864     1.0  0.80903  0.70330  0.05369  1.0000
  H   H3865     1.0  0.85639  0.70255  0.43832  1.0000
  H   H3866     1.0  0.82027  0.77026  0.39815  1.0000
  H   H3867     1.0  0.76394  0.00410  0.18752  1.0000
  H   H3868     1.0  0.83980  0.78207  0.45027  1.0000
  C   C2167     1.0  0.78624  0.93860  0.45246  1.0000
  H   H3869     1.0  0.81919  0.86086  0.99899  1.0000
  C   C2168     1.0  0.78802  0.94453  0.20991  1.0000
  S   S487      1.0  0.78074  0.94590  0.39834  1.0000
  H   H3870     1.0  0.84918  0.95803  0.26081  1.0000
  H   H3871     1.0  0.83381  0.68829  0.06484  1.0000
  H   H3872     1.0  0.78957  0.94962  0.16719  1.0000
  H   H3873     1.0  0.80565  0.94083  0.21221  1.0000
  H   H3874     1.0  0.87462  0.70123  0.99344  1.0000
  C   C2169     1.0  0.78076  0.78280  0.26198  1.0000
  C   C2170     1.0  0.78224  0.72858  0.20666  1.0000
  C   C2171     1.0  0.77606  0.85908  0.07571  1.0000
  C   C2172     1.0  0.84679  0.97593  0.25739  1.0000
  C   C2173     1.0  0.77283  0.80823  0.40981  1.0000
  C   C2174     1.0  0.77293  0.81588  0.33382  1.0000
  H   H3875     1.0  0.84021  0.88792  0.98179  1.0000
  Fe  Fe244     1.0  0.80119  0.71349  0.35115  1.0000
  H   H3876     1.0  0.82387  0.97233  0.22523  1.0000
  H   H3877     1.0  0.80597  0.86321  0.40987  1.0000
  H   H3878     1.0  0.79001  0.96140  0.99701  1.0000
  C   C2175     1.0  0.84780  0.98854  0.11784  1.0000
  C   C2176     1.0  0.84157  0.98111  0.14293  1.0000
  C   C2177     1.0  0.85006  0.98989  0.16680  1.0000
  C   C2178     1.0  0.78096  0.83671  0.07001  1.0000
  H   H3879     1.0  0.80370  0.93815  0.44842  1.0000
  C   C2179     1.0  0.80518  0.68022  0.08568  1.0000
  H   H3880     1.0  0.83059  0.96831  0.14390  1.0000
  H   H3881     1.0  0.84562  0.98369  0.18607  1.0000
  H   H3882     1.0  0.86948  0.68916  0.30440  1.0000
  C   C2180     1.0  0.80937  0.69625  0.10859  1.0000
  C   C2181     1.0  0.84036  0.74326  0.41844  1.0000
  C   C2182     1.0  0.76468  0.82202  0.07236  1.0000
  H   H3883     1.0  0.87409  0.72019  0.45465  1.0000
  C   C2183     1.0  0.84138  0.91977  0.99959  1.0000
  N   N123      1.0  0.79366  0.88336  0.98098  1.0000
  H   H3884     1.0  0.98681  0.00314  0.03739  1.0000
  H   H3885     1.0  0.80859  0.76033  0.24865  1.0000
  H   H3886     1.0  0.77586  0.84276  0.15403  1.0000
  H   H3887     1.0  0.79746  0.83065  0.06399  1.0000
  H   H3888     1.0  0.79013  0.83186  0.43147  1.0000
  C   C2184     1.0  0.83841  0.67917  0.38976  1.0000
  H   H3889     1.0  0.76766  0.78250  0.17907  1.0000
  C   C2185     1.0  0.77097  0.94206  0.43118  1.0000
  C   C2186     1.0  0.81258  0.82026  0.97790  1.0000
  C   C2187     1.0  0.78013  0.00633  0.24192  1.0000
  H   H3890     1.0  0.77906  0.89130  0.25723  1.0000
  H   H3891     1.0  0.79684  0.83847  0.32520  1.0000
  C   C2188     1.0  0.82032  0.00678  0.23923  1.0000
  H   H3892     1.0  0.84758  0.70702  0.97851  1.0000
  H   H3893     1.0  0.80375  0.89097  0.42184  1.0000
  H   H3894     1.0  0.76507  0.91512  0.01253  1.0000
  C   C2189     1.0  0.86245  0.00488  0.11692  1.0000
  H   H3895     1.0  0.82710  0.88510  0.38122  1.0000
  C   C2190     1.0  0.85858  0.69454  0.98940  1.0000
  H   H3896     1.0  0.86014  0.98048  0.24404  1.0000
  H   H3897     1.0  0.84792  0.77621  0.40639  1.0000
  S   S488      1.0  0.77458  0.97643  0.08562  1.0000
  C   C2191     1.0  0.79248  0.86521  0.19534  1.0000
  H   H3898     1.0  0.77743  0.98951  0.23482  1.0000
  H   H3899     1.0  0.84407  0.91387  0.02057  1.0000
  C   C2192     1.0  0.80539  0.77510  0.26171  1.0000
  H   H3900     1.0  0.81164  0.97630  0.25800  1.0000
  C   C2193     1.0  0.77319  0.87279  0.45223  1.0000
  C   C2194     1.0  0.80962  0.75476  0.44815  1.0000
  H   H3901     1.0  0.80585  0.77093  0.43853  1.0000
  C   C2195     1.0  0.77890  0.94920  0.18432  1.0000
  H   H3902     1.0  0.80904  0.89620  0.01655  1.0000
  H   H3903     1.0  0.77203  0.76902  0.26939  1.0000
  C   C2196     1.0  0.81583  0.87826  0.15894  1.0000
  H   H3904     1.0  0.80908  0.85893  0.20309  1.0000
  C   C2197     1.0  0.82234  0.67911  0.40970  1.0000
  H   H3905     1.0  0.82552  0.83507  0.14292  1.0000
  H   H3906     1.0  0.79065  0.85350  0.12739  1.0000
  C   C2198     1.0  0.80651  0.90027  0.99479  1.0000
  C   C2199     1.0  0.82188  0.89935  0.17349  1.0000
  C   C2200     1.0  0.84340  0.90670  0.16276  1.0000
  C   C2201     1.0  0.76695  0.72839  0.18525  1.0000
  H   H3907     1.0  0.79065  0.89941  0.21103  1.0000
  C   C2202     1.0  0.77308  0.88152  0.99725  1.0000
  S   S489      1.0  0.77576  0.73345  0.15224  1.0000
  S   S490      1.0  0.76552  0.76077  0.08502  1.0000
  H   H3908     1.0  0.82953  0.86578  0.16423  1.0000
  H   H3909     1.0  0.81686  0.88074  0.13672  1.0000
  H   H3910     1.0  0.86167  0.67980  0.97633  1.0000
  H   H3911     1.0  0.80006  0.81213  0.11800  1.0000
  C   C2203     1.0  0.77867  0.83172  0.41399  1.0000
  H   H3912     1.0  0.79896  0.73211  0.20269  1.0000
  H   H3913     1.0  0.78178  0.68556  0.02886  1.0000
  H   H3914     1.0  0.76511  0.88760  0.21155  1.0000
  Fe  Fe245     1.0  0.76675  0.95334  0.05213  1.0000
  H   H3915     1.0  0.78191  0.85164  0.19847  1.0000
  C   C2204     1.0  0.79872  0.00649  0.19744  1.0000
  H   H3916     1.0  0.77777  0.87587  0.01799  1.0000
  H   H3917     1.0  0.80898  0.91299  0.17059  1.0000
  H   H3918     1.0  0.82444  0.89637  0.19537  1.0000
  H   H3919     1.0  0.85733  0.89405  0.16647  1.0000
  H   H3920     1.0  0.84206  0.90991  0.14078  1.0000
  H   H3921     1.0  0.84709  0.92209  0.17320  1.0000
  C   C2205     1.0  0.84491  0.75674  0.37072  1.0000
  C   C2206     1.0  0.77302  0.88152  0.40349  1.0000
  H   H3922     1.0  0.82728  0.69597  0.11315  1.0000
  C   C2207     1.0  0.87136  0.76377  0.45876  1.0000
  C   C2208     1.0  0.76824  0.72928  0.98537  1.0000
  H   H3923     1.0  0.85770  0.92173  0.99063  1.0000
  C   C2209     1.0  0.77962  0.83662  0.32878  1.0000
  C   C2210     1.0  0.86419  0.00667  0.16590  1.0000
  S   S491      1.0  0.79823  0.73265  0.31273  1.0000
  H   H3924     1.0  0.83170  0.93605  0.00004  1.0000
  H   H3925     1.0  0.84243  0.77123  0.35746  1.0000
  H   H3926     1.0  0.87539  0.79808  0.45115  1.0000
  H   H3927     1.0  0.80090  0.98836  0.19695  1.0000
  H   H3928     1.0  0.76867  0.80488  0.06779  1.0000
  C   C2211     1.0  0.80884  0.88697  0.37934  1.0000
  H   H3929     1.0  0.78014  0.86267  0.24892  1.0000
  H   H3930     1.0  0.77848  0.89182  0.13512  1.0000
  C   C2212     1.0  0.77442  0.94442  0.23247  1.0000
  H   H3931     1.0  0.87762  0.75872  0.43852  1.0000
  C   C2213     1.0  0.85917  0.71163  0.45739  1.0000
  S   S492      1.0  0.76890  0.69916  0.34469  1.0000
  H   H3932     1.0  0.84713  0.70380  0.02879  1.0000
  H   H3933     1.0  0.83500  0.74394  0.36233  1.0000
  H   H3934     1.0  0.83022  0.67767  0.30213  1.0000
  H   H3935     1.0  0.80360  0.90444  0.37538  1.0000
  H   H3936     1.0  0.80388  0.80522  0.97927  1.0000
  H   H3937     1.0  0.76826  0.87502  0.38337  1.0000
  H   H3938     1.0  0.81114  0.77097  0.28250  1.0000
  H   H3939     1.0  0.93816  0.99802  0.99102  1.0000
  C   C2214     1.0  0.81631  0.68659  0.05926  1.0000
  C   C2215     1.0  0.79864  0.87993  0.40544  1.0000
  H   H3940     1.0  0.80046  0.74303  0.43609  1.0000
  H   H3941     1.0  0.79712  0.91665  0.99426  1.0000
  C   C2216     1.0  0.81024  0.83093  0.15291  1.0000
  N   N124      1.0  0.79378  0.87038  0.16566  1.0000
  C   C2217     1.0  0.78164  0.00571  0.15069  1.0000
  H   H3942     1.0  0.77401  0.78387  0.47000  1.0000
  H   H3943     1.0  0.84798  0.98449  0.27716  1.0000
  H   H3944     1.0  0.81814  0.79685  0.14138  1.0000
  C   C2218     1.0  0.83832  0.72725  0.46398  1.0000
  H   H3945     1.0  0.78816  0.72378  0.24935  1.0000
  N   N125      1.0  0.83414  0.74784  0.44756  1.0000
  H   H3946     1.0  0.78481  0.00462  0.26366  1.0000
  C   C2219     1.0  0.82497  0.68099  0.01151  1.0000
  H   H3947     1.0  0.77406  0.77362  0.22148  1.0000
  C   C2220     1.0  0.83766  0.76322  0.39938  1.0000
  H   H3948     1.0  0.78990  0.86397  0.45148  1.0000
  H   H3949     1.0  0.77587  0.89029  0.45616  1.0000
  H   H3950     1.0  0.81388  0.82780  0.17456  1.0000
  H   H3951     1.0  0.77856  0.79669  0.27644  1.0000
  H   H3952     1.0  0.78442  0.79971  0.22445  1.0000
  H   H3953     1.0  0.82439  0.71682  0.46125  1.0000
  H   H3954     1.0  0.78858  0.70051  0.46195  1.0000
  C   C2221     1.0  0.77615  0.72393  0.23312  1.0000
  Fe  Fe246     1.0  0.76614  0.95010  0.11343  1.0000
  C   C2222     1.0  0.80408  0.80967  0.13972  1.0000
  C   C2223     1.0  0.84826  0.68874  0.01601  1.0000
  H   H3955     1.0  0.81406  0.69548  0.00462  1.0000
  C   C2224     1.0  0.77567  0.88722  0.15643  1.0000
  H   H3956     1.0  0.78707  0.68064  0.08304  1.0000
  C   C2225     1.0  0.77246  0.78919  0.23330  1.0000
  H   H3957     1.0  0.81508  0.78825  0.25442  1.0000
  S   S493      1.0  0.83421  0.69512  0.36053  1.0000
  S   S494      1.0  0.77018  0.91457  0.33282  1.0000
  H   H3958     1.0  0.76790  0.89944  0.40291  1.0000
  C   C2226     1.0  0.79623  0.84047  0.98193  1.0000
  C   C2227     1.0  0.80803  0.86181  0.98094  1.0000
  H   H3959     1.0  0.80675  0.68882  0.40718  1.0000
  C   C2228     1.0  0.79157  0.84971  0.14929  1.0000
  C   C2229     1.0  0.82942  0.90349  0.98268  1.0000
  S   S495      1.0  0.77950  0.73012  0.01819  1.0000
  H   H3960     1.0  0.80281  0.71314  0.10316  1.0000
  H   H3961     1.0  0.78620  0.98780  0.14910  1.0000
  H   H3962     1.0  0.80509  0.87657  0.24889  1.0000
  H   H3963     1.0  0.78855  0.83903  0.00201  1.0000
  H   H3964     1.0  0.77222  0.70828  0.41660  1.0000
  C   C2230     1.0  0.78715  0.87815  0.24413  1.0000
  C   C2231     1.0  0.77944  0.95828  0.98001  1.0000
  H   H3965     1.0  0.76555  0.75761  0.45931  1.0000
  H   H3966     1.0  0.89905  0.78292  0.46621  1.0000
  Fe  Fe247     1.0  0.76453  0.72114  0.30857  1.0000
  C   C2232     1.0  0.88074  0.78532  0.46614  1.0000
  H   H3967     1.0  0.76533  0.80222  0.42825  1.0000
  Fe  Fe248     1.0  0.78690  0.75898  0.82858  1.0000
  C   C2233     1.0  0.77740  0.81583  0.82504  1.0000
  S   S496      1.0  0.79675  0.79283  0.82070  1.0000
  S   S497      1.0  0.79649  0.74036  0.86632  1.0000
  C   C2234     1.0  0.78779  0.94245  0.70791  1.0000
  C   C2235     1.0  0.78841  0.95523  0.95406  1.0000
  H   H3968     1.0  0.77047  0.78430  0.56868  1.0000
  C   C2236     1.0  0.80595  0.79475  0.89690  1.0000
  S   S498      1.0  0.80457  0.91004  0.61792  1.0000
  C   C2237     1.0  0.78104  0.80001  0.89357  1.0000
  H   H3969     1.0  0.81963  0.69334  0.54076  1.0000
  S   S499      1.0  0.80637  0.91399  0.55154  1.0000
  C   C2238     1.0  0.90715  0.95963  0.68953  1.0000
  Fe  Fe249     1.0  0.79718  0.88933  0.58169  1.0000
  S   S500      1.0  0.80585  0.85277  0.57689  1.0000
  Fe  Fe250     1.0  0.81014  0.93609  0.58787  1.0000
  S   S501      1.0  0.83775  0.95844  0.58989  1.0000
  H   H3970     1.0  0.79572  0.97823  0.50383  1.0000
  H   H3971     1.0  0.86968  0.92632  0.61800  1.0000
  H   H3972     1.0  0.81914  0.86070  0.96316  1.0000
  H   H3973     1.0  0.85501  0.92155  0.70900  1.0000
  H   H3974     1.0  0.83914  0.73599  0.58540  1.0000
  H   H3975     1.0  0.78488  0.72547  0.91981  1.0000
  H   H3976     1.0  0.84177  0.76859  0.48142  1.0000
  C   C2239     1.0  0.90741  0.89777  0.69997  1.0000
  H   H3977     1.0  0.84263  0.69533  0.58765  1.0000
  C   C2240     1.0  0.83091  0.72622  0.56996  1.0000
  C   C2241     1.0  0.82875  0.99870  0.53175  1.0000
  H   H3978     1.0  0.81513  0.73551  0.56390  1.0000
  C   C2242     1.0  0.92345  0.88171  0.71539  1.0000
  C   C2243     1.0  0.82898  0.99543  0.84337  1.0000
  C   C2244     1.0  0.76573  0.84364  0.59740  1.0000
  H   H3979     1.0  0.94076  0.88373  0.70979  1.0000
  H   H3980     1.0  0.86408  0.99578  0.49877  1.0000
  H   H3981     1.0  0.90170  0.97601  0.78895  1.0000
  H   H3982     1.0  0.81784  0.67830  0.78756  1.0000
  H   H3983     1.0  0.79642  0.69821  0.56156  1.0000
  C   C2245     1.0  0.77636  0.93850  0.73153  1.0000
  H   H3984     1.0  0.78754  0.94139  0.66434  1.0000
  H   H3985     1.0  0.80355  0.94911  0.70925  1.0000
  H   H3986     1.0  0.80053  0.70636  0.69804  1.0000
  C   C2246     1.0  0.86093  0.98587  0.62067  1.0000
  H   H3987     1.0  0.76813  0.86117  0.52082  1.0000
  H   H3988     1.0  0.77337  0.80087  0.74220  1.0000
  H   H3989     1.0  0.88471  0.90108  0.62878  1.0000
  H   H3990     1.0  0.80987  0.68991  0.89246  1.0000
  H   H3991     1.0  0.81277  0.80635  0.91139  1.0000
  H   H3992     1.0  0.92152  0.88430  0.73750  1.0000
  H   H3993     1.0  0.87536  0.91812  0.67315  1.0000
  C   C2247     1.0  0.78241  0.72723  0.96317  1.0000
  H   H3994     1.0  0.80592  0.95593  0.95124  1.0000
  H   H3995     1.0  0.79101  0.93298  0.49514  1.0000
  C   C2248     1.0  0.84357  0.97238  0.62015  1.0000
  H   H3996     1.0  0.77614  0.76149  0.75622  1.0000
  N   N126      1.0  0.89542  0.93967  0.69580  1.0000
  C   C2249     1.0  0.76966  0.85548  0.82689  1.0000
  C   C2250     1.0  0.83708  0.98102  0.66757  1.0000
  C   C2251     1.0  0.83154  0.97009  0.64364  1.0000
  H   H3997     1.0  0.77897  0.88459  0.50637  1.0000
  H   H3998     1.0  0.76678  0.76458  0.49465  1.0000
  H   H3999     1.0  0.82809  0.97867  0.68583  1.0000
  H   H4000     1.0  0.81823  0.95961  0.64348  1.0000
  H   H4001     1.0  0.84262  0.98219  0.84550  1.0000
  C   C2252     1.0  0.80395  0.75852  0.63375  1.0000
  C   C2253     1.0  0.78449  0.83585  0.58291  1.0000
  H   H4002     1.0  0.76931  0.76153  0.64153  1.0000
  C   C2254     1.0  0.78628  0.81422  0.57304  1.0000
  H   H4003     1.0  0.90441  0.98022  0.72606  1.0000
  H   H4004     1.0  0.92000  0.86468  0.71037  1.0000
  H   H4005     1.0  0.86754  0.96061  0.71055  1.0000
  H   H4006     1.0  0.80080  0.80801  0.56198  1.0000
  H   H4007     1.0  0.77537  0.87144  0.82508  1.0000
  C   C2255     1.0  0.81372  0.69056  0.56139  1.0000
  C   C2256     1.0  0.78451  0.83678  0.82308  1.0000
  H   H4008     1.0  0.80084  0.79087  0.67126  1.0000
  H   H4009     1.0  0.80752  0.76702  0.49057  1.0000
  C   C2257     1.0  0.82101  0.99682  0.81353  1.0000
  H   H4010     1.0  0.87457  0.69489  0.77866  1.0000
  H   H4011     1.0  0.80158  0.83859  0.81860  1.0000
  Fe  Fe251     1.0  0.76543  0.94357  0.86233  1.0000
  Fe  Fe252     1.0  0.80457  0.71168  0.83853  1.0000
  C   C2258     1.0  0.78465  0.76434  0.65279  1.0000
  H   H4012     1.0  0.80989  0.77776  0.90407  1.0000
  H   H4013     1.0  0.84179  0.72384  0.55211  1.0000
  H   H4014     1.0  0.79854  0.98734  0.72899  1.0000
  C   C2259     1.0  0.78303  0.70866  0.70199  1.0000
  H   H4015     1.0  0.77737  0.97723  0.53190  1.0000
  H   H4016     1.0  0.78312  0.84009  0.96640  1.0000
  C   C2260     1.0  0.93286  0.98784  0.70473  1.0000
  H   H4017     1.0  0.78855  0.85920  0.69336  1.0000
  Fe  Fe253     1.0  0.76647  0.94007  0.80008  1.0000
  H   H4018     1.0  0.77541  0.78896  0.87759  1.0000
  S   S502      1.0  0.86232  0.00645  0.69889  1.0000
  H   H4019     1.0  0.78400  0.98624  0.67012  1.0000
  H   H4020     1.0  0.80452  0.97410  0.85585  1.0000
  C   C2261     1.0  0.76914  0.80073  0.57692  1.0000
  C   C2262     1.0  0.77481  0.95155  0.93174  1.0000
  C   C2263     1.0  0.77381  0.72709  0.93675  1.0000
  C   C2264     1.0  0.77390  0.87688  0.93520  1.0000
  C   C2265     1.0  0.77589  0.99834  0.65584  1.0000
  H   H4021     1.0  0.85825  0.97750  0.79637  1.0000
  C   C2266     1.0  0.85441  0.99461  0.66802  1.0000
  C   C2267     1.0  0.76906  0.79698  0.92058  1.0000
  H   H4022     1.0  0.83225  0.00932  0.58062  1.0000
  H   H4023     1.0  0.89620  0.91767  0.60379  1.0000
  H   H4024     1.0  0.78246  0.79852  0.64404  1.0000
  H   H4025     1.0  0.80386  0.89162  0.94097  1.0000
  H   H4026     1.0  0.92067  0.95536  0.67490  1.0000
  H   H4027     1.0  0.93911  0.99667  0.72251  1.0000
  H   H4028     1.0  0.80415  0.00537  0.81323  1.0000
  N   N127      1.0  0.76654  0.79609  0.68276  1.0000
  H   H4029     1.0  0.81873  0.97978  0.80664  1.0000
  S   S503      1.0  0.78667  0.94825  0.89943  1.0000
  H   H4030     1.0  0.89570  0.97218  0.67936  1.0000
  H   H4031     1.0  0.77264  0.87140  0.66571  1.0000
  C   C2268     1.0  0.81052  0.98997  0.86200  1.0000
  H   H4032     1.0  0.86962  0.94592  0.66588  1.0000
  C   C2269     1.0  0.77558  0.71119  0.72876  1.0000
  C   C2270     1.0  0.77909  0.93571  0.47895  1.0000
  C   C2271     1.0  0.88633  0.91814  0.62252  1.0000
  C   C2272     1.0  0.76791  0.70891  0.68038  1.0000
  H   H4033     1.0  0.80226  0.76889  0.61550  1.0000
  H   H4034     1.0  0.92871  0.92336  0.69657  1.0000
  C   C2273     1.0  0.87860  0.94620  0.71733  1.0000
  C   C2274     1.0  0.77638  0.86709  0.50282  1.0000
  H   H4035     1.0  0.78649  0.75278  0.66983  1.0000
  C   C2275     1.0  0.78422  0.78851  0.66264  1.0000
  C   C2276     1.0  0.86384  0.92848  0.72628  1.0000
  C   C2277     1.0  0.84634  0.93801  0.74612  1.0000
  C   C2278     1.0  0.78844  0.89096  0.95260  1.0000
  H   H4036     1.0  0.81410  0.79627  0.87717  1.0000
  H   H4037     1.0  0.81987  0.76075  0.64406  1.0000
  H   H4038     1.0  0.88677  0.95147  0.73615  1.0000
  H   H4039     1.0  0.81675  0.70745  0.60027  1.0000
  H   H4040     1.0  0.91506  0.92375  0.72780  1.0000
  S   S504      1.0  0.79859  0.73124  0.80067  1.0000
  H   H4041     1.0  0.92718  0.95914  0.72705  1.0000
  C   C2279     1.0  0.77878  0.93800  0.68241  1.0000
  S   S505      1.0  0.78742  0.94524  0.76338  1.0000
  H   H4042     1.0  0.87391  0.91523  0.73694  1.0000
  H   H4043     1.0  0.83579  0.92510  0.75207  1.0000
  H   H4044     1.0  0.85414  0.94434  0.76461  1.0000
  H   H4045     1.0  0.83560  0.95144  0.73664  1.0000
  C   C2280     1.0  0.88346  0.93334  0.67047  1.0000
  S   S506      1.0  0.77752  0.70396  0.64715  1.0000
  H   H4046     1.0  0.78732  0.71081  0.74529  1.0000
  H   H4047     1.0  0.80411  0.74114  0.62731  1.0000
  H   H4048     1.0  0.89971  0.98474  0.52045  1.0000
  C   C2281     1.0  0.82662  0.70414  0.58168  1.0000
  H   H4049     1.0  0.83789  0.98404  0.54102  1.0000
  H   H4050     1.0  0.86571  0.99890  0.81815  1.0000
  H   H4051     1.0  0.79265  0.85744  0.50072  1.0000
  H   H4052     1.0  0.80008  0.72590  0.96637  1.0000
  Fe  Fe254     1.0  0.76915  0.92345  0.61417  1.0000
  C   C2282     1.0  0.91756  0.97112  0.71394  1.0000
  H   H4053     1.0  0.89048  0.89466  0.70558  1.0000
  C   C2283     1.0  0.91228  0.92181  0.70568  1.0000
  H   H4054     1.0  0.81681  0.98849  0.88307  1.0000
  H   H4055     1.0  0.90930  0.89379  0.67817  1.0000
  S   S507      1.0  0.77592  0.91629  0.83331  1.0000
  H   H4056     1.0  0.78588  0.77370  0.70938  1.0000
  H   H4057     1.0  0.80188  0.99693  0.56104  1.0000
  H   H4058     1.0  0.90022  0.94705  0.63664  1.0000
  C   C2284     1.0  0.85678  0.69344  0.77473  1.0000
  H   H4059     1.0  0.90368  0.00216  0.80582  1.0000
  H   H4060     1.0  0.87525  0.79109  0.48654  1.0000
  H   H4061     1.0  0.78729  0.81840  0.70218  1.0000
  H   H4062     1.0  0.91413  0.92193  0.64888  1.0000
  H   H4063     1.0  0.78325  0.89116  0.89726  1.0000
  C   C2285     1.0  0.80401  0.99792  0.53889  1.0000
  H   H4064     1.0  0.80442  0.96259  0.53340  1.0000
  H   H4065     1.0  0.87351  0.99365  0.75735  1.0000
  H   H4066     1.0  0.77384  0.99018  0.63595  1.0000
  C   C2286     1.0  0.89975  0.99403  0.78643  1.0000
  C   C2287     1.0  0.89769  0.93066  0.64466  1.0000
  N   N128      1.0  0.83604  0.00726  0.79454  1.0000
  H   H4067     1.0  0.79242  0.00792  0.77192  1.0000
  H   H4068     1.0  0.78373  0.83293  0.65530  1.0000
  H   H4069     1.0  0.78066  0.90809  0.95281  1.0000
  Fe  Fe255     1.0  0.77075  0.92709  0.55251  1.0000
  S   S508      1.0  0.77494  0.95095  0.58667  1.0000
  H   H4070     1.0  0.82990  0.99597  0.50957  1.0000
  H   H4071     1.0  0.83868  0.73147  0.48591  1.0000
  S   S509      1.0  0.83497  0.68804  0.84274  1.0000
  C   C2288     1.0  0.85890  0.99557  0.79772  1.0000
  C   C2289     1.0  0.79490  0.97776  0.52619  1.0000
  C   C2290     1.0  0.76840  0.78048  0.70630  1.0000
  H   H4072     1.0  0.82977  0.98548  0.76141  1.0000
  C   C2291     1.0  0.82856  0.00339  0.76588  1.0000
  H   H4073     1.0  0.92381  0.00005  0.69138  1.0000
  C   C2292     1.0  0.77082  0.81888  0.69205  1.0000
  H   H4074     1.0  0.90350  0.99813  0.48891  1.0000
  H   H4075     1.0  0.77825  0.81706  0.88637  1.0000
  H   H4076     1.0  0.84923  0.68614  0.48342  1.0000
  H   H4077     1.0  0.78301  0.86078  0.93066  1.0000
  H   H4078     1.0  0.77706  0.80723  0.93570  1.0000
  H   H4079     1.0  0.77321  0.77962  0.92667  1.0000
  H   H4080     1.0  0.84713  0.70399  0.78961  1.0000
  C   C2293     1.0  0.79884  0.00540  0.72968  1.0000
  C   C2294     1.0  0.76810  0.88777  0.90812  1.0000
  H   H4081     1.0  0.94721  0.97966  0.69373  1.0000
  S   S510      1.0  0.76619  0.73890  0.58417  1.0000
  S   S511      1.0  0.77191  0.70885  0.51513  1.0000
  H   H4082     1.0  0.85260  0.69944  0.75410  1.0000
  H   H4083     1.0  0.91171  0.99849  0.77116  1.0000
  H   H4084     1.0  0.86961  0.00056  0.55115  1.0000
  S   S512      1.0  0.77080  0.69988  0.83860  1.0000
  C   C2295     1.0  0.86618  0.99716  0.64439  1.0000
  C   C2296     1.0  0.77013  0.83654  0.66988  1.0000
  C   C2297     1.0  0.77270  0.85919  0.68206  1.0000
  H   H4085     1.0  0.82040  0.82048  0.95779  1.0000
  C   C2298     1.0  0.89721  0.00058  0.50978  1.0000
  C   C2299     1.0  0.77484  0.76624  0.47487  1.0000
  C   C2300     1.0  0.87631  0.00166  0.77715  1.0000
  H   H4086     1.0  0.87048  0.98749  0.60266  1.0000
  H   H4087     1.0  0.76450  0.85994  0.60600  1.0000
  C   C2301     1.0  0.86401  0.69489  0.47968  1.0000
  H   H4088     1.0  0.82759  0.91023  0.96204  1.0000
  C   C2302     1.0  0.87271  0.00876  0.50884  1.0000
  C   C2303     1.0  0.82452  0.67872  0.89509  1.0000
  H   H4089     1.0  0.85824  0.67867  0.55019  1.0000
  H   H4090     1.0  0.76637  0.67752  0.90991  1.0000
  C   C2304     1.0  0.79885  0.75650  0.47653  1.0000
  H   H4091     1.0  0.79901  0.74009  0.48565  1.0000
  H   H4092     1.0  0.86890  0.70302  0.49865  1.0000
  H   H4093     1.0  0.87970  0.00738  0.64456  1.0000
  Fe  Fe256     1.0  0.76403  0.72198  0.80304  1.0000
  H   H4094     1.0  0.79654  0.00295  0.86148  1.0000
  H   H4095     1.0  0.87770  0.68266  0.47346  1.0000
  H   H4096     1.0  0.87796  0.75161  0.47385  1.0000
