data_image0
_chemical_formula_structural       S2FeSFeSFeS2H3FeS2FeS2FeSFeS3C3H2C6H4C6H4C6H2CHCH5CHFeH7CH2CHSFeCHCH3CH8NHSH2CHC2H2CH2CHCH2CH2CHCHCH2CH3C3FeH4CNH2CH4C3SH3CHCHCH3CHSH3C3H11CHC2H4C2H7C2NCNCSHSH4CHCHCNC10HC2H5CH2CH3CH4CHCH9CSHCH4CH5CH3CH2CH2C2H2CHFeS2C3FeS2FeS2FeSFeS3NCHC5H4C4HNHC2H2C6H8C2HCHCHCH3C2H12C2SCH7C2H5C2H4CH3CNC3H2C3H2CH11CH5SC2HC2HC2H2CH2C2HCH3CH6CNC9H8NH16CSH2CH5C2H4CSHCHC2HCH3CH5CSH3CFeH12S2FeSFeSFeS2H3FeS2FeSCFeSFeS3C3H2C6H5C5H4C6H2S2HCH3NCH2CNC4HC6H6CH14CH3NC9NHCH6CH2CHCH8SH11FeH2SH2SFeHCH3C3HCH10CHNHC2NH2CH2CHCH4CHCH6C4H2CHC2HCH3C3H2CH7C2HCH3CHCHCH3C2HCH5SH2C4H6C2H2CH2CH5SHCH3CH3FeS2C2HFeS2FeS2FeSFeS3C3NC4H4C2SH6CHC6H4CH3C2FeH3CHCH4S3H2CHC2HCH2CH2C2HC2H2FeHSH5C3H3SHCHFeCH3CH4CHNHCH5FeCH2SCH5C4H2NCH2CHC3HC2H3CHCHCHCH5CHCHCHCH6C3HC2HCH6CFeSH2SHNSHCH2CHCHCHCHC2H2FeCHCHS2H3C4H3C2H4CH3C3H3CH2CHC2HSH2CH6C3H2CHCH2CH4CH3SH2C3HFeHCH2CSFeH2SCSHCFeSH2SHFeSHSC2H3CH5CHCH2S3FeS2C4H3C2H3CHNHC2FeCHCHSH2C3H2CH2C2FeCNC12H31CH4FeHFe3H4C2FeCHC2SHCHC2HSCSH6SFeCH2C3HFeH2CH3CH5SH4SCH6C2H3CHCFeHC2H3CHC2SH7SCHSH2CH2CNCHC5H2C2H10SC3H3CHFeH4CFeCHCSCHFeSCHSHFeSCSC2H9FeH2CHSHSFeS2C4H2CH5CH3CH2NH2CHC2H6CH2CH2CH3C3NC2HNC4HC2H2FeC2H3CH2SHFeCH5C2H2C3H5SH2CHCH4C2H2CH2SH14C2HCNC5HCFeCH3C2H3C3H2CH5FeHCHCH2CHC2HSH8C2SH5FeHFeS2H3FeS2FeS2FeSFeS3CSFeS2FeSHFe2S2H5C2H5C5H3C6H4C3H3CH5C6H4NC9HCH5CHCH10NHCH8CHC2NCH2C2HC4HNHC2H2CH4C2H6CH2CH5C4H3CHC2H2C2H2CNH5C2H5CH2C3HCH2C2HC2H4C2HC2H2NH3C2HC2HC2H8CH5CH5CH7CHCHFeH4CSHCH2SH5CH7C3HFeS2FeCSH2CH3CH2CHSFeS2FeS2FeSFeS3FeHC4H4C3H4CH2CNSH3CH2C7H4CHC2H2C2HC2H3C3H10CH2NC3HC3H17NC7NHC3H18NCHSH2CH4CH3CH2CSH4C2HCH4SH2C2H4CHCH4CHC2H7C2H2CH2CH4SC2SHCHC2SHC3H3CHSH3C4HFeHC2HFeS2C2HFeS2FeS2FeSFeS3H2FeHSFe2HSCS3H4CH4C7H3C6H4C3H3SH4C7H4C3H3C3H5CH10CH5CH2NHCHC2H2C4H6CHNCH2CSHCHCH3NC6H2C3H3CH9CHCH6CH3SH7CHNH2CH4NFeC3H3CH4C2HCH6CHCH2CH2CHCHC4H8CH4C2H5C2H3CH6SFeS2HC2H2CHCH2C4NFeS2FeS2FeSFeS3H2C4HCH2C2H2CHFeHCNCSH4CSCHC6H4CSHCH3NC6HCHC2H14FeH8CH4CHC4H2C3H2CH3NC3SC5H2CH6CHC2H14SH3SHCH4CHNHC4HC4H19CH3CH2CH2C2HCH2CH2C2SH6C3HCSHC2H2CH7
_chemical_formula_sum              "S192 Fe96 H1536 C864 N48"
_cell_length_a       50.9073
_cell_length_b       51.2517
_cell_length_c       37.3594
_cell_angle_alpha    89.8845
_cell_angle_beta     90.0383
_cell_angle_gamma    120.04

_space_group_name_H-M_alt    "P 1"
_space_group_IT_number       1

loop_
  _space_group_symop_operation_xyz
  'x, y, z'

loop_
  _atom_site_type_symbol
  _atom_site_label
  _atom_site_symmetry_multiplicity
  _atom_site_fract_x
  _atom_site_fract_y
  _atom_site_fract_z
  _atom_site_occupancy
  S   S1        1.0  0.24802  0.14121  0.13601  1.0000
  S   S2        1.0  0.25106  0.15664  0.22096  1.0000
  Fe  Fe1       1.0  0.25210  0.12050  0.18730  1.0000
  S   S3        1.0  0.21910  0.06975  0.19279  1.0000
  Fe  Fe2       1.0  0.25151  0.17960  0.16937  1.0000
  S   S4        1.0  0.21791  0.19691  0.16489  1.0000
  Fe  Fe3       1.0  0.15525  0.32646  0.46068  1.0000
  S   S5        1.0  0.12796  0.27594  0.46317  1.0000
  S   S6        1.0  0.18441  0.35150  0.41250  1.0000
  H   H1        1.0  0.05503  0.06627  0.10618  1.0000
  H   H2        1.0  0.22487  0.15437  0.31425  1.0000
  H   H3        1.0  0.13237  0.44612  0.10018  1.0000
  Fe  Fe4       1.0  0.21564  0.35340  0.16052  1.0000
  S   S7        1.0  0.16453  0.32786  0.16001  1.0000
  S   S8        1.0  0.24742  0.33389  0.15725  1.0000
  Fe  Fe5       1.0  0.21877  0.41518  0.16954  1.0000
  S   S9        1.0  0.16836  0.39341  0.17042  1.0000
  S   S10       1.0  0.30144  0.20293  0.50758  1.0000
  Fe  Fe6       1.0  0.16892  0.35826  0.20588  1.0000
  S   S11       1.0  0.13705  0.34090  0.25355  1.0000
  Fe  Fe7       1.0  0.16879  0.36548  0.12450  1.0000
  S   S12       1.0  0.13770  0.36361  0.07982  1.0000
  S   S13       1.0  0.21971  0.38194  0.20846  1.0000
  S   S14       1.0  0.21954  0.38906  0.12161  1.0000
  C   C1        1.0  0.14654  0.36452  0.03405  1.0000
  C   C2        1.0  0.16807  0.35717  0.02223  1.0000
  C   C3        1.0  0.23595  0.10108  0.05368  1.0000
  H   H4        1.0  0.18038  0.35154  0.04145  1.0000
  H   H5        1.0  0.21897  0.01465  0.10280  1.0000
  C   C4        1.0  0.17043  0.34439  0.36828  1.0000
  C   C5        1.0  0.19118  0.35492  0.33976  1.0000
  C   C6        1.0  0.18106  0.35228  0.30426  1.0000
  C   C7        1.0  0.15017  0.34022  0.29711  1.0000
  C   C8        1.0  0.12933  0.32889  0.32552  1.0000
  C   C9        1.0  0.13937  0.33053  0.36098  1.0000
  H   H6        1.0  0.21524  0.36572  0.34525  1.0000
  H   H7        1.0  0.19725  0.36070  0.28258  1.0000
  H   H8        1.0  0.10534  0.31922  0.32015  1.0000
  H   H9        1.0  0.12318  0.32214  0.38278  1.0000
  C   C10       1.0  0.14047  0.39804  0.40756  1.0000
  C   C11       1.0  0.22186  0.31050  0.25530  1.0000
  C   C12       1.0  0.20608  0.01068  0.19634  1.0000
  C   C13       1.0  0.22917  0.04114  0.19513  1.0000
  C   C14       1.0  0.25942  0.04793  0.19585  1.0000
  C   C15       1.0  0.26642  0.02457  0.19802  1.0000
  H   H10       1.0  0.24431  0.00683  0.12605  1.0000
  H   H11       1.0  0.18260  0.00512  0.19615  1.0000
  H   H12       1.0  0.27748  0.07121  0.19509  1.0000
  H   H13       1.0  0.19431  0.15238  0.43394  1.0000
  C   C16       1.0  0.22665  0.23517  0.16304  1.0000
  C   C17       1.0  0.20280  0.24161  0.16306  1.0000
  C   C18       1.0  0.20866  0.27158  0.16106  1.0000
  C   C19       1.0  0.23854  0.29555  0.15881  1.0000
  C   C20       1.0  0.26237  0.28909  0.15893  1.0000
  C   C21       1.0  0.25652  0.25915  0.16123  1.0000
  H   H14       1.0  0.17959  0.22328  0.16443  1.0000
  H   H15       1.0  0.19008  0.27613  0.16096  1.0000
  C   C22       1.0  0.98602  0.24361  0.50490  1.0000
  H   H16       1.0  0.27513  0.25463  0.16112  1.0000
  C   C23       1.0  0.00367  0.30458  0.50454  1.0000
  H   H17       1.0  0.12472  0.07489  0.18372  1.0000
  H   H18       1.0  0.16403  0.27351  0.22279  1.0000
  H   H19       1.0  0.24456  0.13864  0.33839  1.0000
  H   H20       1.0  0.16080  0.14568  0.13401  1.0000
  H   H21       1.0  0.16273  0.41320  0.24126  1.0000
  C   C24       1.0  0.07293  0.28893  0.01448  1.0000
  H   H22       1.0  0.18931  0.43938  0.36640  1.0000
  Fe  Fe8       1.0  0.29881  0.16615  0.13586  1.0000
  H   H23       1.0  0.18516  0.09068  0.13168  1.0000
  H   H24       1.0  0.28597  0.24266  0.28675  1.0000
  H   H25       1.0  0.11915  0.40280  0.36022  1.0000
  H   H26       1.0  0.19732  0.18304  0.45979  1.0000
  H   H27       1.0  0.30118  0.15348  0.29149  1.0000
  H   H28       1.0  0.16186  0.41052  0.42310  1.0000
  H   H29       1.0  0.22069  0.30484  0.22640  1.0000
  C   C25       1.0  0.20130  0.45082  0.07602  1.0000
  H   H30       1.0  0.13225  0.11248  0.18128  1.0000
  H   H31       1.0  0.18014  0.12085  0.06946  1.0000
  C   C26       1.0  0.22440  0.21516  0.39865  1.0000
  H   H32       1.0  0.16886  0.30865  0.23950  1.0000
  S   S15       1.0  0.12003  0.33320  0.48915  1.0000
  Fe  Fe9       1.0  0.30176  0.18196  0.21508  1.0000
  C   C27       1.0  0.23982  0.43866  0.27441  1.0000
  H   H33       1.0  0.10020  0.40893  0.23995  1.0000
  C   C28       1.0  0.13060  0.37162  0.00883  1.0000
  H   H34       1.0  0.29581  0.22673  0.41823  1.0000
  H   H35       1.0  0.25720  0.45862  0.08355  1.0000
  H   H36       1.0  0.12184  0.41571  0.29997  1.0000
  C   C29       1.0  0.28287  0.36442  0.24518  1.0000
  H   H37       1.0  0.26927  0.18450  0.38067  1.0000
  H   H38       1.0  0.20008  0.15600  0.37132  1.0000
  H   H39       1.0  0.28626  0.43647  0.02714  1.0000
  H   H40       1.0  0.24309  0.26174  0.41724  1.0000
  H   H41       1.0  0.13684  0.42099  0.07043  1.0000
  H   H42       1.0  0.17515  0.21727  0.43108  1.0000
  H   H43       1.0  0.11987  0.40452  0.20252  1.0000
  H   H44       1.0  0.13776  0.37610  0.39913  1.0000
  N   N1        1.0  0.24900  0.31079  0.27212  1.0000
  H   H45       1.0  0.25320  0.17586  0.44302  1.0000
  S   S16       1.0  0.25000  0.46634  0.17079  1.0000
  H   H46       1.0  0.17229  0.44605  0.00832  1.0000
  H   H47       1.0  0.22737  0.23431  0.45218  1.0000
  C   C30       1.0  0.22420  0.23889  0.42410  1.0000
  H   H48       1.0  0.22057  0.14079  0.39508  1.0000
  C   C31       1.0  0.31104  0.17029  0.31237  1.0000
  C   C32       1.0  0.01661  0.26509  0.49837  1.0000
  H   H49       1.0  0.02429  0.27028  0.37056  1.0000
  H   H50       1.0  0.19077  0.13802  0.13419  1.0000
  C   C33       1.0  0.19434  0.23913  0.42175  1.0000
  H   H51       1.0  0.19172  0.46177  0.18887  1.0000
  H   H52       1.0  0.29419  0.08287  0.08554  1.0000
  C   C34       1.0  0.14696  0.42061  0.25096  1.0000
  H   H53       1.0  0.29530  0.13772  0.35531  1.0000
  C   C35       1.0  0.23650  0.00807  0.09863  1.0000
  H   H54       1.0  0.11430  0.12730  0.11056  1.0000
  H   H55       1.0  0.25982  0.11753  0.06085  1.0000
  C   C36       1.0  0.29159  0.25425  0.37727  1.0000
  H   H56       1.0  0.15998  0.07588  0.09522  1.0000
  H   H57       1.0  0.31363  0.37478  0.20001  1.0000
  C   C37       1.0  0.27898  0.23375  0.41079  1.0000
  H   H58       1.0  0.14997  0.11405  0.24661  1.0000
  C   C38       1.0  0.24485  0.27951  0.26956  1.0000
  H   H59       1.0  0.27561  0.26137  0.36753  1.0000
  C   C39       1.0  0.07083  0.08979  0.09743  1.0000
  H   H60       1.0  0.15627  0.44419  0.24226  1.0000
  H   H61       1.0  0.25244  0.20573  0.46520  1.0000
  C   C40       1.0  0.20614  0.15246  0.48904  1.0000
  H   H62       1.0  0.06976  0.30361  0.06828  1.0000
  H   H63       1.0  0.22088  0.10763  0.06754  1.0000
  H   H64       1.0  0.10034  0.06234  0.12663  1.0000
  C   C41       1.0  0.16502  0.28613  0.24738  1.0000
  C   C42       1.0  0.24922  0.18742  0.37720  1.0000
  C   C43       1.0  0.20858  0.48532  0.18591  1.0000
  Fe  Fe10      1.0  0.09451  0.28286  0.49579  1.0000
  H   H65       1.0  0.14308  0.45918  0.33468  1.0000
  H   H66       1.0  0.18719  0.47861  0.10569  1.0000
  H   H67       1.0  0.27271  0.47639  0.04171  1.0000
  H   H68       1.0  0.27970  0.24811  0.43355  1.0000
  C   C44       1.0  0.17875  0.46234  0.08307  1.0000
  N   N2        1.0  0.22899  0.47179  0.05426  1.0000
  H   H69       1.0  0.15089  0.13077  0.06860  1.0000
  H   H70       1.0  0.11392  0.37733  0.01787  1.0000
  C   C45       1.0  0.14723  0.43677  0.09323  1.0000
  H   H71       1.0  0.18866  0.42812  0.06378  1.0000
  H   H72       1.0  0.15237  0.02405  0.09663  1.0000
  H   H73       1.0  0.28037  0.99467  0.11516  1.0000
  H   H74       1.0  0.27687  0.31623  0.49015  1.0000
  C   C46       1.0  0.30105  0.18111  0.03507  1.0000
  C   C47       1.0  0.00696  0.25688  0.39115  1.0000
  C   C48       1.0  0.26488  0.42021  0.04090  1.0000
  S   S17       1.0  0.04307  0.25282  0.49041  1.0000
  H   H75       1.0  0.14160  0.43697  0.38555  1.0000
  H   H76       1.0  0.00721  0.23557  0.39572  1.0000
  H   H77       1.0  0.25713  0.07812  0.00849  1.0000
  C   C49       1.0  0.20005  0.45016  0.29841  1.0000
  H   H78       1.0  0.01336  0.27003  0.41646  1.0000
  C   C50       1.0  0.24171  0.18957  0.44265  1.0000
  H   H79       1.0  0.18421  0.11242  0.25329  1.0000
  C   C51       1.0  0.14335  0.41653  0.29219  1.0000
  H   H80       1.0  0.12090  0.03459  0.13805  1.0000
  H   H81       1.0  0.22742  0.22415  0.37093  1.0000
  H   H82       1.0  0.18354  0.04009  0.12817  1.0000
  C   C52       1.0  0.24097  0.42973  0.03671  1.0000
  H   H83       1.0  0.23038  0.33092  0.37406  1.0000
  S   S18       1.0  0.30226  0.20639  0.16461  1.0000
  H   H84       1.0  0.25637  0.39761  0.02873  1.0000
  H   H85       1.0  0.18199  0.13787  0.49678  1.0000
  H   H86       1.0  0.18933  0.18384  0.08498  1.0000
  C   C53       1.0  0.16850  0.42463  0.35051  1.0000
  C   C54       1.0  0.20997  0.42626  0.29489  1.0000
  C   C55       1.0  0.14075  0.41632  0.37501  1.0000
  H   H87       1.0  0.14283  0.27379  0.26137  1.0000
  H   H88       1.0  0.24780  0.34081  0.31182  1.0000
  H   H89       1.0  0.06115  0.26476  0.06552  1.0000
  H   H90       1.0  0.16867  0.40319  0.34614  1.0000
  H   H91       1.0  0.13908  0.39327  0.29742  1.0000
  H   H92       1.0  0.21376  0.41926  0.32163  1.0000
  H   H93       1.0  0.19241  0.40624  0.28054  1.0000
  H   H94       1.0  0.28977  0.18655  0.05585  1.0000
  H   H95       1.0  0.15058  0.04883  0.17104  1.0000
  H   H96       1.0  0.21943  0.41164  0.04812  1.0000
  H   H97       1.0  0.23730  0.44502  0.24672  1.0000
  C   C56       1.0  0.26295  0.03484  0.07851  1.0000
  H   H98       1.0  0.18452  0.09928  0.19022  1.0000
  C   C57       1.0  0.26060  0.29422  0.50050  1.0000
  C   C58       1.0  0.22394  0.14083  0.33800  1.0000
  H   H99       1.0  0.14950  0.07853  0.24226  1.0000
  H   H100      1.0  0.26540  0.36483  0.22789  1.0000
  H   H101      1.0  0.18632  0.26621  0.27686  1.0000
  H   H102      1.0  0.18527  0.13444  0.19453  1.0000
  C   C59       1.0  0.16789  0.48638  0.29032  1.0000
  C   C60       1.0  0.31337  0.38418  0.22673  1.0000
  H   H103      1.0  0.21854  0.17361  0.08490  1.0000
  H   H104      1.0  0.28866  0.06054  0.12505  1.0000
  H   H105      1.0  0.20129  0.19508  0.39824  1.0000
  H   H106      1.0  0.17642  0.47404  0.05932  1.0000
  H   H107      1.0  0.22421  0.33323  0.25630  1.0000
  H   H108      1.0  0.01068  0.32830  0.50435  1.0000
  H   H109      1.0  0.21779  0.46903  0.31452  1.0000
  C   C61       1.0  0.16567  0.46634  0.32265  1.0000
  C   C62       1.0  0.26513  0.24390  0.28137  1.0000
  N   N3        1.0  0.24774  0.20623  0.40732  1.0000
  C   C63       1.0  0.20812  0.16926  0.45439  1.0000
  N   N4        1.0  0.16922  0.43932  0.31500  1.0000
  C   C64       1.0  0.25115  0.46032  0.05523  1.0000
  S   S19       1.0  0.31412  0.17109  0.42064  1.0000
  H   H110      1.0  0.09332  0.10407  0.14797  1.0000
  S   S20       1.0  0.30295  0.14406  0.18607  1.0000
  H   H111      1.0  0.23035  0.07834  0.06324  1.0000
  H   H112      1.0  0.28992  0.03016  0.19879  1.0000
  H   H113      1.0  0.20160  0.45957  0.27125  1.0000
  H   H114      1.0  0.11861  0.08187  0.08702  1.0000
  C   C65       1.0  0.22154  0.15545  0.37258  1.0000
  H   H115      1.0  0.28558  0.30741  0.15718  1.0000
  C   C66       1.0  0.11657  0.40168  0.23195  1.0000
  H   H116      1.0  0.10689  0.37740  0.23845  1.0000
  C   C67       1.0  0.27324  0.27687  0.27833  1.0000
  N   N5        1.0  0.14666  0.09804  0.13454  1.0000
  C   C68       1.0  0.11634  0.08521  0.11606  1.0000
  C   C69       1.0  0.16062  0.07901  0.12472  1.0000
  C   C70       1.0  0.14187  0.09786  0.17440  1.0000
  C   C71       1.0  0.16788  0.13003  0.12277  1.0000
  C   C72       1.0  0.17232  0.13541  0.08179  1.0000
  C   C73       1.0  0.09989  0.10370  0.11975  1.0000
  C   C74       1.0  0.17084  0.10967  0.19771  1.0000
  C   C75       1.0  0.14582  0.04714  0.14186  1.0000
  C   C76       1.0  0.15845  0.02836  0.12542  1.0000
  C   C77       1.0  0.19616  0.16811  0.07353  1.0000
  H   H117      1.0  0.29745  0.33368  0.26201  1.0000
  C   C78       1.0  0.16296  0.10321  0.23739  1.0000
  C   C79       1.0  0.27652  0.33166  0.24996  1.0000
  H   H118      1.0  0.28318  0.37480  0.27132  1.0000
  H   H119      1.0  0.20823  0.44659  0.10278  1.0000
  H   H120      1.0  0.21274  0.28541  0.33522  1.0000
  H   H121      1.0  0.24697  0.28498  0.34428  1.0000
  H   H122      1.0  0.18998  0.24351  0.39387  1.0000
  C   C80       1.0  0.22147  0.47558  0.01609  1.0000
  H   H123      1.0  0.25254  0.19921  0.35115  1.0000
  H   H124      1.0  0.23767  0.27053  0.24187  1.0000
  C   C81       1.0  0.19038  0.28924  0.27206  1.0000
  H   H125      1.0  0.28402  0.28862  0.30368  1.0000
  H   H126      1.0  0.29605  0.24237  0.35537  1.0000
  H   H127      1.0  0.27477  0.32215  0.22272  1.0000
  C   C82       1.0  0.02529  0.29563  0.49805  1.0000
  H   H128      1.0  0.20384  0.11791  0.33534  1.0000
  H   H129      1.0  0.19541  0.25711  0.43932  1.0000
  H   H130      1.0  0.18816  0.29890  0.29769  1.0000
  H   H131      1.0  0.12115  0.39346  0.42535  1.0000
  C   C83       1.0  0.23724  0.29991  0.34054  1.0000
  H   H132      1.0  0.05928  0.10315  0.10089  1.0000
  C   C84       1.0  0.25398  0.32283  0.30993  1.0000
  H   H133      1.0  0.27852  0.33419  0.31708  1.0000
  H   H134      1.0  0.22621  0.26340  0.28711  1.0000
  H   H135      1.0  0.14854  0.42420  0.11674  1.0000
  H   H136      1.0  0.24877  0.23246  0.30351  1.0000
  H   H137      1.0  0.22896  0.29989  0.39777  1.0000
  H   H138      1.0  0.26503  0.33036  0.38330  1.0000
  H   H139      1.0  0.24653  0.42114  0.27297  1.0000
  H   H140      1.0  0.14871  0.00637  0.13957  1.0000
  H   H141      1.0  0.04869  0.31240  0.49280  1.0000
  C   C85       1.0  0.24071  0.31634  0.37594  1.0000
  S   S21       1.0  0.30812  0.28331  0.49957  1.0000
  H   H142      1.0  0.09980  0.29526  0.06216  1.0000
  C   C86       1.0  0.07589  0.28796  0.05511  1.0000
  H   H143      1.0  0.25820  0.45857  0.28827  1.0000
  H   H144      1.0  0.07614  0.08989  0.06857  1.0000
  H   H145      1.0  0.25507  0.23180  0.25587  1.0000
  H   H146      1.0  0.25455  0.03983  0.05349  1.0000
  C   C87       1.0  0.30787  0.16143  0.34847  1.0000
  H   H147      1.0  0.21653  0.13804  0.48549  1.0000
  H   H148      1.0  0.28127  0.03003  0.07155  1.0000
  H   H149      1.0  0.26983  0.41887  0.06958  1.0000
  H   H150      1.0  0.14714  0.47443  0.27364  1.0000
  H   H151      1.0  0.22370  0.30371  0.50083  1.0000
  C   C88       1.0  0.27707  0.06339  0.10141  1.0000
  H   H152      1.0  0.25955  0.06865  0.11090  1.0000
  H   H153      1.0  0.29022  0.28701  0.25643  1.0000
  H   H154      1.0  0.18282  0.48098  0.34294  1.0000
  C   C89       1.0  0.23122  0.10084  0.01328  1.0000
  H   H155      1.0  0.19873  0.17164  0.04412  1.0000
  H   H156      1.0  0.02958  0.28677  0.02167  1.0000
  C   C90       1.0  0.24336  0.99413  0.19936  1.0000
  H   H157      1.0  0.02756  0.25275  0.00962  1.0000
  H   H158      1.0  0.31695  0.40723  0.22281  1.0000
  C   C91       1.0  0.23044  0.28718  0.50654  1.0000
  C   C92       1.0  0.26988  0.27316  0.50785  1.0000
  H   H159      1.0  0.19469  0.98973  0.04879  1.0000
  H   H160      1.0  0.22748  0.99491  0.02650  1.0000
  C   C93       1.0  0.08943  0.26847  0.90400  1.0000
  H   H161      1.0  0.18086  0.37690  0.75345  1.0000
  Fe  Fe11      1.0  0.14383  0.33301  0.54003  1.0000
  S   S22       1.0  0.11676  0.28300  0.54796  1.0000
  S   S23       1.0  0.14998  0.36692  0.58320  1.0000
  C   C94       1.0  0.19442  0.45135  0.95768  1.0000
  C   C95       1.0  0.23658  0.44303  0.67449  1.0000
  C   C96       1.0  0.29428  0.24999  0.72608  1.0000
  Fe  Fe12      1.0  0.13594  0.36846  0.87140  1.0000
  S   S24       1.0  0.11222  0.39476  0.88024  1.0000
  S   S25       1.0  0.16224  0.35957  0.91399  1.0000
  Fe  Fe13      1.0  0.11841  0.35799  0.79181  1.0000
  S   S26       1.0  0.09387  0.38414  0.79504  1.0000
  S   S27       1.0  0.11646  0.32809  0.74580  1.0000
  Fe  Fe14      1.0  0.13403  0.41753  0.82814  1.0000
  S   S28       1.0  0.15438  0.46849  0.82208  1.0000
  Fe  Fe15      1.0  0.07458  0.35893  0.84669  1.0000
  S   S29       1.0  0.02481  0.33904  0.86226  1.0000
  S   S30       1.0  0.15997  0.39304  0.82103  1.0000
  S   S31       1.0  0.09694  0.33110  0.84169  1.0000
  N   N6        1.0  0.26551  0.22897  0.63624  1.0000
  C   C97       1.0  0.19691  0.34663  0.74087  1.0000
  H   H162      1.0  0.21556  0.47971  0.70038  1.0000
  C   C98       1.0  0.30539  0.27280  0.59657  1.0000
  C   C99       1.0  0.25085  0.01337  0.84374  1.0000
  C   C100      1.0  0.25991  0.04351  0.83560  1.0000
  C   C101      1.0  0.23771  0.05081  0.82634  1.0000
  C   C102      1.0  0.20678  0.02821  0.82593  1.0000
  H   H163      1.0  0.15957  0.45105  0.74942  1.0000
  H   H164      1.0  0.99010  0.27429  0.98163  1.0000
  H   H165      1.0  0.24436  0.07380  0.81937  1.0000
  H   H166      1.0  0.18975  0.03410  0.81903  1.0000
  C   C103      1.0  0.99810  0.29988  0.86250  1.0000
  C   C104      1.0  0.00632  0.27842  0.85366  1.0000
  C   C105      1.0  0.99989  0.34939  0.77253  1.0000
  C   C106      1.0  0.26449  0.20583  0.61038  1.0000
  H   H167      1.0  0.02941  0.28563  0.84582  1.0000
  N   N7        1.0  0.03429  0.28230  0.96472  1.0000
  H   H168      1.0  0.18026  0.33463  0.71917  1.0000
  C   C107      1.0  0.15651  0.36253  0.96006  1.0000
  C   C108      1.0  0.13558  0.37065  0.97195  1.0000
  H   H169      1.0  0.18928  0.34991  0.97628  1.0000
  H   H170      1.0  0.12304  0.37585  0.95269  1.0000
  C   C109      1.0  0.13889  0.35512  0.62785  1.0000
  C   C110      1.0  0.13594  0.37455  0.65194  1.0000
  C   C111      1.0  0.12820  0.36624  0.68801  1.0000
  C   C112      1.0  0.12386  0.33862  0.70033  1.0000
  C   C113      1.0  0.12596  0.31885  0.67607  1.0000
  C   C114      1.0  0.13344  0.32703  0.63997  1.0000
  H   H171      1.0  0.13962  0.39612  0.64260  1.0000
  H   H172      1.0  0.12585  0.38125  0.70636  1.0000
  H   H173      1.0  0.12247  0.29734  0.68543  1.0000
  H   H174      1.0  0.13571  0.31190  0.62176  1.0000
  H   H175      1.0  0.24578  0.22613  0.72352  1.0000
  H   H176      1.0  0.04306  0.37841  0.98162  1.0000
  H   H177      1.0  0.20196  0.21561  0.53718  1.0000
  H   H178      1.0  0.98539  0.22540  0.93026  1.0000
  C   C115      1.0  0.19772  0.99817  0.83490  1.0000
  C   C116      1.0  0.25949  0.99527  0.73622  1.0000
  H   H179      1.0  0.99518  0.27627  0.93450  1.0000
  C   C117      1.0  0.21019  0.21908  0.64426  1.0000
  H   H180      1.0  0.22346  0.99734  0.70753  1.0000
  C   C118      1.0  0.22874  0.44612  0.60774  1.0000
  H   H181      1.0  0.03281  0.19533  0.58583  1.0000
  C   C119      1.0  0.07465  0.36367  0.58064  1.0000
  H   H182      1.0  0.23178  0.39286  0.69808  1.0000
  H   H183      1.0  0.21133  0.22441  0.67318  1.0000
  H   H184      1.0  0.21410  0.45044  0.94625  1.0000
  C   C120      1.0  0.19770  0.43337  0.72149  1.0000
  C   C121      1.0  0.99931  0.27576  0.61481  1.0000
  H   H185      1.0  0.17848  0.42051  0.70294  1.0000
  H   H186      1.0  0.05930  0.37141  0.59115  1.0000
  H   H187      1.0  0.20930  0.46489  0.83490  1.0000
  H   H188      1.0  0.19390  0.38478  0.69067  1.0000
  H   H189      1.0  0.24785  0.44230  0.60126  1.0000
  H   H190      1.0  0.31446  0.25072  0.64051  1.0000
  H   H191      1.0  0.07687  0.37739  0.97006  1.0000
  H   H192      1.0  0.21928  0.38952  0.76693  1.0000
  H   H193      1.0  0.28971  0.04192  0.91314  1.0000
  H   H194      1.0  0.17343  0.43251  0.94594  1.0000
  H   H195      1.0  0.25169  0.14551  0.59946  1.0000
  H   H196      1.0  0.27895  0.20902  0.67845  1.0000
  C   C122      1.0  0.04620  0.26782  0.93903  1.0000
  C   C123      1.0  0.20258  0.37871  0.74502  1.0000
  S   S32       1.0  0.30864  0.18824  0.92698  1.0000
  C   C124      1.0  0.07997  0.28689  0.92719  1.0000
  H   H197      1.0  0.26975  0.21493  0.58276  1.0000
  H   H198      1.0  0.19557  0.25108  0.62911  1.0000
  H   H199      1.0  0.04248  0.24604  0.95014  1.0000
  H   H200      1.0  0.08090  0.37185  0.55267  1.0000
  H   H201      1.0  0.21493  0.13276  0.57990  1.0000
  H   H202      1.0  0.27624  0.11579  0.99291  1.0000
  H   H203      1.0  0.24836  0.16255  0.55863  1.0000
  C   C125      1.0  0.23751  0.15289  0.58481  1.0000
  C   C126      1.0  0.29675  0.25654  0.63345  1.0000
  H   H204      1.0  0.19586  0.47290  0.94991  1.0000
  H   H205      1.0  0.21712  0.18020  0.59311  1.0000
  H   H206      1.0  0.11338  0.28300  0.89533  1.0000
  H   H207      1.0  0.03321  0.26218  0.91344  1.0000
  H   H208      1.0  0.24614  0.46779  0.67422  1.0000
  C   C127      1.0  0.20348  0.46593  0.72410  1.0000
  C   C128      1.0  0.03651  0.33325  0.97798  1.0000
  H   H209      1.0  0.30506  0.13825  0.65833  1.0000
  H   H210      1.0  0.23723  0.47072  0.60927  1.0000
  H   H211      1.0  0.26587  0.04446  0.97018  1.0000
  H   H212      1.0  0.21840  0.34694  0.73475  1.0000
  C   C129      1.0  0.28437  0.06561  0.95847  1.0000
  H   H213      1.0  0.04452  0.31819  0.92720  1.0000
  H   H214      1.0  0.29559  0.26601  0.74691  1.0000
  H   H215      1.0  0.24165  0.48241  0.99865  1.0000
  C   C130      1.0  0.26223  0.21676  0.67380  1.0000
  N   N8        1.0  0.03121  0.28310  0.62410  1.0000
  C   C131      1.0  0.03366  0.27499  0.66241  1.0000
  C   C132      1.0  0.04209  0.26741  0.59885  1.0000
  C   C133      1.0  0.05182  0.31680  0.62012  1.0000
  H   H216      1.0  0.99189  0.28840  0.63224  1.0000
  H   H217      1.0  0.22473  0.16534  0.63330  1.0000
  C   C134      1.0  0.02782  0.29278  0.69195  1.0000
  C   C135      1.0  0.05891  0.32929  0.58124  1.0000
  C   C136      1.0  0.03485  0.23503  0.60931  1.0000
  H   H218      1.0  0.21804  0.99133  0.75412  1.0000
  H   H219      1.0  0.04737  0.36767  0.93707  1.0000
  C   C137      1.0  0.02821  0.28049  0.72917  1.0000
  H   H220      1.0  0.05691  0.27863  0.66720  1.0000
  H   H221      1.0  0.01801  0.25077  0.66781  1.0000
  H   H222      1.0  0.03345  0.26693  0.57131  1.0000
  H   H223      1.0  0.06732  0.28048  0.59651  1.0000
  H   H224      1.0  0.07413  0.32402  0.63311  1.0000
  H   H225      1.0  0.04199  0.32905  0.63426  1.0000
  H   H226      1.0  0.00913  0.25701  0.73223  1.0000
  H   H227      1.0  0.98968  0.22197  0.97728  1.0000
  H   H228      1.0  0.08773  0.24912  0.91937  1.0000
  H   H229      1.0  0.01907  0.21415  0.55706  1.0000
  H   H230      1.0  0.04588  0.31689  0.69164  1.0000
  C   C138      1.0  0.17354  0.46593  0.72717  1.0000
  H   H231      1.0  0.03804  0.32093  0.56529  1.0000
  H   H232      1.0  0.07407  0.32264  0.56761  1.0000
  H   H233      1.0  0.05155  0.23653  0.62961  1.0000
  H   H234      1.0  0.99324  0.36209  0.75407  1.0000
  H   H235      1.0  0.30805  0.47622  0.76853  1.0000
  S   S33       1.0  0.29892  0.14980  0.83427  1.0000
  C   C139      1.0  0.03669  0.21771  0.57710  1.0000
  C   C140      1.0  0.24859  0.24476  0.52118  1.0000
  H   H236      1.0  0.26913  0.03844  0.75895  1.0000
  C   C141      1.0  0.00033  0.26779  0.95951  1.0000
  C   C142      1.0  0.27402  0.47729  0.73398  1.0000
  H   H237      1.0  0.02601  0.29473  0.74996  1.0000
  C   C143      1.0  0.17912  0.00467  0.92363  1.0000
  C   C144      1.0  0.23393  0.17595  0.60700  1.0000
  H   H238      1.0  0.16911  0.99740  0.95067  1.0000
  H   H239      1.0  0.28795  0.27811  0.58704  1.0000
  C   C145      1.0  0.24203  0.23770  0.62683  1.0000
  H   H240      1.0  0.01176  0.32377  0.97426  1.0000
  H   H241      1.0  0.25537  0.22828  0.52667  1.0000
  C   C146      1.0  0.18745  0.22656  0.62714  1.0000
  C   C147      1.0  0.21835  0.23767  0.52714  1.0000
  H   H242      1.0  0.29937  0.27390  0.65313  1.0000
  C   C148      1.0  0.17300  0.35617  0.98532  1.0000
  H   H243      1.0  0.28282  0.48606  0.79110  1.0000
  H   H244      1.0  0.25013  0.26160  0.63424  1.0000
  H   H245      1.0  0.23897  0.23701  0.59729  1.0000
  C   C149      1.0  0.21999  0.99086  0.84358  1.0000
  H   H246      1.0  0.19447  0.43459  0.64748  1.0000
  H   H247      1.0  0.20093  0.19452  0.64186  1.0000
  H   H248      1.0  0.18392  0.21993  0.59849  1.0000
  H   H249      1.0  0.16524  0.21403  0.64105  1.0000
  H   H250      1.0  0.07497  0.26007  0.87970  1.0000
  H   H251      1.0  0.02379  0.35578  0.76686  1.0000
  C   C150      1.0  0.20915  0.25892  0.52007  1.0000
  N   N9        1.0  0.24507  0.08353  0.95447  1.0000
  C   C151      1.0  0.27172  0.08306  0.93738  1.0000
  C   C152      1.0  0.23957  0.10614  0.93488  1.0000
  C   C153      1.0  0.29777  0.18672  0.99894  1.0000
  C   C154      1.0  0.21646  0.05297  0.95547  1.0000
  C   C155      1.0  0.21211  0.03027  0.92546  1.0000
  C   C156      1.0  0.03967  0.27717  0.00320  1.0000
  C   C157      1.0  0.27789  0.02970  0.73764  1.0000
  C   C158      1.0  0.23134  0.09995  0.89474  1.0000
  C   C159      1.0  0.22728  0.12500  0.87813  1.0000
  H   H252      1.0  0.12873  0.45916  0.89751  1.0000
  H   H253      1.0  0.28242  0.20028  0.61738  1.0000
  H   H254      1.0  0.28381  0.19641  0.99198  1.0000
  H   H255      1.0  0.29098  0.10655  0.93380  1.0000
  H   H256      1.0  0.26643  0.07394  0.90977  1.0000
  H   H257      1.0  0.22068  0.10786  0.94737  1.0000
  H   H258      1.0  0.25994  0.12899  0.93710  1.0000
  H   H259      1.0  0.24005  0.19595  0.67754  1.0000
  N   N10       1.0  0.22434  0.42983  0.71105  1.0000
  H   H260      1.0  0.18744  0.33396  0.76621  1.0000
  H   H261      1.0  0.19611  0.05576  0.95542  1.0000
  H   H262      1.0  0.22664  0.02021  0.93061  1.0000
  H   H263      1.0  0.21827  0.04097  0.89883  1.0000
  H   H264      1.0  0.29455  0.23084  0.73970  1.0000
  H   H265      1.0  0.16524  0.01199  0.90823  1.0000
  H   H266      1.0  0.21483  0.04095  0.98099  1.0000
  H   H267      1.0  0.09594  0.29601  0.94988  1.0000
  H   H268      1.0  0.24942  0.09887  0.87949  1.0000
  H   H269      1.0  0.20956  0.07860  0.89126  1.0000
  H   H270      1.0  0.20804  0.12587  0.89090  1.0000
  H   H271      1.0  0.24826  0.14725  0.88133  1.0000
  H   H272      1.0  0.22248  0.12064  0.84907  1.0000
  H   H273      1.0  0.11882  0.47878  0.92976  1.0000
  H   H274      1.0  0.20733  0.08363  0.00756  1.0000
  H   H275      1.0  0.05000  0.28092  0.73379  1.0000
  C   C160      1.0  0.24922  0.44369  0.73898  1.0000
  S   S34       1.0  0.17102  0.24934  0.52845  1.0000
  H   H276      1.0  0.08324  0.30639  0.91094  1.0000
  H   H277      1.0  0.26201  0.43127  0.74018  1.0000
  C   C161      1.0  0.30379  0.05774  0.93462  1.0000
  H   H278      1.0  0.25592  0.43953  0.66766  1.0000
  H   H279      1.0  0.23916  0.44130  0.76615  1.0000
  H   H280      1.0  0.18891  0.42317  0.74823  1.0000
  H   H281      1.0  0.05933  0.23010  0.56426  1.0000
  H   H282      1.0  0.20473  0.40615  0.63890  1.0000
  C   C162      1.0  0.05197  0.36617  0.96587  1.0000
  C   C163      1.0  0.26498  0.23851  0.70454  1.0000
  H   H283      1.0  0.01205  0.22118  0.62106  1.0000
  H   H284      1.0  0.07314  0.32749  0.95967  1.0000
  H   H285      1.0  0.99852  0.28359  0.58730  1.0000
  H   H286      1.0  0.09568  0.37369  0.59689  1.0000
  C   C164      1.0  0.31652  0.16189  0.66535  1.0000
  S   S35       1.0  0.18168  0.33124  0.51107  1.0000
  H   H287      1.0  0.21184  0.43653  0.58572  1.0000
  C   C165      1.0  0.25389  0.09461  0.99246  1.0000
  H   H288      1.0  0.16044  0.45793  0.70186  1.0000
  C   C166      1.0  0.21351  0.39646  0.70920  1.0000
  C   C167      1.0  0.04821  0.31544  0.95610  1.0000
  H   H289      1.0  0.26785  0.00742  0.85061  1.0000
  C   C168      1.0  0.21369  0.43059  0.64292  1.0000
  H   H290      1.0  0.00549  0.29128  0.68842  1.0000
  H   H291      1.0  0.27694  0.03960  0.71152  1.0000
  H   H292      1.0  0.26312  0.25797  0.69484  1.0000
  C   C169      1.0  0.13725  0.47471  0.92074  1.0000
  H   H293      1.0  0.30199  0.03718  0.74380  1.0000
  H   H294      1.0  0.21796  0.16876  0.51103  1.0000
  H   H295      1.0  0.31462  0.26163  0.70870  1.0000
  H   H296      1.0  0.30818  0.25881  0.57608  1.0000
  H   H297      1.0  0.14285  0.46359  0.94258  1.0000
  C   C170      1.0  0.31276  0.18026  0.97184  1.0000
  S   S36       1.0  0.29914  0.07087  0.83710  1.0000
  H   H298      1.0  0.21688  0.47688  0.74857  1.0000
  H   H299      1.0  0.29896  0.07987  0.98075  1.0000
  H   H300      1.0  0.99860  0.35586  0.80057  1.0000
  C   C171      1.0  0.19378  0.44806  0.99840  1.0000
  Fe  Fe16      1.0  0.15282  0.28095  0.51483  1.0000
  H   H301      1.0  0.28803  0.47993  0.70997  1.0000
  H   H302      1.0  0.99135  0.23102  0.84886  1.0000
  H   H303      1.0  0.31345  0.15340  0.72236  1.0000
  H   H304      1.0  0.98837  0.30396  0.78445  1.0000
  H   H305      1.0  0.08114  0.27440  0.00280  1.0000
  H   H306      1.0  0.19275  0.42644  0.00433  1.0000
  H   H307      1.0  0.31387  0.04678  0.95080  1.0000
  H   H308      1.0  0.23468  0.12332  0.00549  1.0000
  H   H309      1.0  0.26921  0.98788  0.71465  1.0000
  H   H310      1.0  0.08792  0.31245  0.00588  1.0000
  H   H311      1.0  0.23816  0.43153  0.00752  1.0000
  H   H312      1.0  0.04142  0.33309  0.00689  1.0000
  S   S37       1.0  0.23453  0.63481  0.12621  1.0000
  S   S38       1.0  0.24236  0.65394  0.21080  1.0000
  Fe  Fe17      1.0  0.24027  0.61581  0.17813  1.0000
  S   S39       1.0  0.21089  0.56596  0.19298  1.0000
  Fe  Fe18      1.0  0.24182  0.67535  0.15833  1.0000
  S   S40       1.0  0.21185  0.69660  0.15342  1.0000
  Fe  Fe19      1.0  0.14765  0.83416  0.48597  1.0000
  S   S41       1.0  0.12321  0.78390  0.48091  1.0000
  S   S42       1.0  0.16849  0.86779  0.44056  1.0000
  H   H313      1.0  0.25292  0.95660  0.12718  1.0000
  H   H314      1.0  0.12388  0.92461  0.48449  1.0000
  H   H315      1.0  0.21520  0.60031  0.03315  1.0000
  Fe  Fe20      1.0  0.22558  0.85636  0.17998  1.0000
  S   S43       1.0  0.17517  0.82764  0.18348  1.0000
  S   S44       1.0  0.25649  0.83673  0.16974  1.0000
  Fe  Fe21      1.0  0.22315  0.91442  0.19687  1.0000
  S   S45       1.0  0.17238  0.88882  0.20288  1.0000
  C   C172      1.0  0.24400  0.50216  0.07264  1.0000
  Fe  Fe22      1.0  0.17922  0.85446  0.23279  1.0000
  S   S46       1.0  0.15254  0.82443  0.27925  1.0000
  Fe  Fe23      1.0  0.17327  0.86450  0.15319  1.0000
  S   S47       1.0  0.13789  0.85390  0.11027  1.0000
  S   S48       1.0  0.23006  0.88169  0.23087  1.0000
  S   S49       1.0  0.22368  0.89163  0.14545  1.0000
  C   C173      1.0  0.14837  0.86260  0.06500  1.0000
  C   C174      1.0  0.17847  0.87446  0.05417  1.0000
  C   C175      1.0  0.12597  0.85668  0.03924  1.0000
  H   H316      1.0  0.19586  0.87913  0.07377  1.0000
  H   H317      1.0  0.10262  0.84753  0.04752  1.0000
  C   C176      1.0  0.16493  0.85559  0.39588  1.0000
  C   C177      1.0  0.17716  0.87701  0.36825  1.0000
  C   C178      1.0  0.17411  0.86784  0.33228  1.0000
  C   C179      1.0  0.15866  0.83714  0.32386  1.0000
  C   C180      1.0  0.14665  0.81578  0.35152  1.0000
  C   C181      1.0  0.14998  0.82497  0.38741  1.0000
  H   H318      1.0  0.18887  0.90079  0.37465  1.0000
  H   H319      1.0  0.18331  0.88447  0.31107  1.0000
  H   H320      1.0  0.13456  0.79200  0.34514  1.0000
  H   H321      1.0  0.14056  0.80829  0.40842  1.0000
  H   H322      1.0  0.00603  0.87202  0.43657  1.0000
  C   C182      1.0  0.24439  0.59918  0.27744  1.0000
  C   C183      1.0  0.20051  0.50772  0.19078  1.0000
  C   C184      1.0  0.22200  0.53848  0.18624  1.0000
  C   C185      1.0  0.25180  0.54659  0.17720  1.0000
  C   C186      1.0  0.26000  0.52425  0.17306  1.0000
  H   H323      1.0  0.18269  0.74771  0.41119  1.0000
  H   H324      1.0  0.17737  0.50118  0.19768  1.0000
  H   H325      1.0  0.26862  0.57009  0.17365  1.0000
  H   H326      1.0  0.24603  0.54243  0.28375  1.0000
  C   C187      1.0  0.22477  0.73559  0.15868  1.0000
  C   C188      1.0  0.20342  0.74512  0.16299  1.0000
  C   C189      1.0  0.21277  0.77594  0.16664  1.0000
  C   C190      1.0  0.24362  0.79764  0.16571  1.0000
  C   C191      1.0  0.26496  0.78813  0.16119  1.0000
  C   C192      1.0  0.25563  0.75729  0.15781  1.0000
  H   H327      1.0  0.17948  0.72853  0.16358  1.0000
  H   H328      1.0  0.19607  0.78286  0.17003  1.0000
  S   S50       1.0  0.29908  0.71481  0.50539  1.0000
  S   S51       1.0  0.25357  0.96561  0.20140  1.0000
  H   H329      1.0  0.28004  0.89434  0.47022  1.0000
  C   C193      1.0  0.21309  0.98731  0.19846  1.0000
  H   H330      1.0  0.24191  0.81856  0.08668  1.0000
  H   H331      1.0  0.22867  0.51178  0.07256  1.0000
  H   H332      1.0  0.25936  0.66704  0.34779  1.0000
  N   N11       1.0  0.29451  0.60458  0.30435  1.0000
  C   C194      1.0  0.24022  0.85745  0.44411  1.0000
  H   H333      1.0  0.15137  0.75464  0.41507  1.0000
  H   H334      1.0  0.02375  0.83400  0.38527  1.0000
  C   C195      1.0  0.17467  0.76177  0.42461  1.0000
  N   N12       1.0  0.06506  0.84018  0.40954  1.0000
  C   C196      1.0  0.03906  0.84636  0.40799  1.0000
  C   C197      1.0  0.08456  0.85365  0.37668  1.0000
  C   C198      1.0  0.05219  0.80651  0.41139  1.0000
  C   C199      1.0  0.08451  0.85430  0.44219  1.0000
  H   H335      1.0  0.99513  0.73983  0.35587  1.0000
  C   C200      1.0  0.24898  0.90987  0.45811  1.0000
  C   C201      1.0  0.07573  0.79586  0.40905  1.0000
  C   C202      1.0  0.06997  0.83844  0.34049  1.0000
  C   C203      1.0  0.09171  0.85434  0.30936  1.0000
  C   C204      1.0  0.99485  0.84708  0.43846  1.0000
  C   C205      1.0  0.06049  0.76156  0.40712  1.0000
  H   H336      1.0  0.20330  0.71997  0.06499  1.0000
  H   H337      1.0  0.04748  0.87060  0.40221  1.0000
  H   H338      1.0  0.09117  0.87779  0.37390  1.0000
  H   H339      1.0  0.10654  0.85398  0.37945  1.0000
  H   H340      1.0  0.03488  0.79496  0.39013  1.0000
  H   H341      1.0  0.03991  0.79737  0.43716  1.0000
  C   C206      1.0  0.09646  0.88847  0.44743  1.0000
  H   H342      1.0  0.10492  0.85170  0.44126  1.0000
  H   H343      1.0  0.23275  0.84819  0.47166  1.0000
  H   H344      1.0  0.11123  0.90168  0.42475  1.0000
  H   H345      1.0  0.27557  0.67842  0.04331  1.0000
  H   H346      1.0  0.09058  0.80342  0.43298  1.0000
  H   H347      1.0  0.08997  0.80479  0.38486  1.0000
  H   H348      1.0  0.06420  0.81451  0.34002  1.0000
  H   H349      1.0  0.04902  0.83937  0.33531  1.0000
  H   H350      1.0  0.26665  0.93352  0.46379  1.0000
  H   H351      1.0  0.11285  0.85333  0.31271  1.0000
  H   H352      1.0  0.08093  0.84302  0.28379  1.0000
  H   H353      1.0  0.28318  0.53084  0.16631  1.0000
  H   H354      1.0  0.23556  0.94523  0.06360  1.0000
  H   H355      1.0  0.27033  0.86399  0.04818  1.0000
  C   C207      1.0  0.26694  0.97124  0.10505  1.0000
  H   H356      1.0  0.07807  0.75480  0.40866  1.0000
  H   H357      1.0  0.04449  0.75082  0.42974  1.0000
  H   H358      1.0  0.04816  0.75327  0.38142  1.0000
  N   N13       1.0  0.25839  0.75320  0.27723  1.0000
  C   C208      1.0  0.28058  0.75222  0.25122  1.0000
  C   C209      1.0  0.23427  0.72119  0.28570  1.0000
  C   C210      1.0  0.24482  0.77054  0.26029  1.0000
  C   C211      1.0  0.27383  0.76863  0.31165  1.0000
  C   C212      1.0  0.30185  0.65716  0.03148  1.0000
  C   C213      1.0  0.28930  0.96091  0.09459  1.0000
  C   C214      1.0  0.21976  0.77204  0.28236  1.0000
  C   C215      1.0  0.21237  0.70335  0.25461  1.0000
  C   C216      1.0  0.18982  0.67104  0.26595  1.0000
  N   N14       1.0  0.18140  0.78905  0.05579  1.0000
  H   H359      1.0  0.20078  0.59464  0.26423  1.0000
  C   C217      1.0  0.20534  0.78711  0.26099  1.0000
  H   H360      1.0  0.26927  0.74263  0.22523  1.0000
  H   H361      1.0  0.28824  0.73651  0.26079  1.0000
  H   H362      1.0  0.24499  0.70784  0.29418  1.0000
  H   H363      1.0  0.22034  0.72045  0.30905  1.0000
  H   H364      1.0  0.23568  0.76145  0.23328  1.0000
  H   H365      1.0  0.26265  0.79435  0.25537  1.0000
  C   C218      1.0  0.23846  0.49351  0.17713  1.0000
  H   H366      1.0  0.25671  0.76679  0.33153  1.0000
  H   H367      1.0  0.29337  0.60724  0.24616  1.0000
  C   C219      1.0  0.28378  0.55795  0.07183  1.0000
  H   H368      1.0  0.15982  0.95850  0.08688  1.0000
  C   C220      1.0  0.19915  0.95439  0.10497  1.0000
  H   H369      1.0  0.22956  0.78551  0.30702  1.0000
  H   H370      1.0  0.20130  0.74931  0.29018  1.0000
  H   H371      1.0  0.19901  0.71392  0.24584  1.0000
  H   H372      1.0  0.22506  0.70210  0.23126  1.0000
  H   H373      1.0  0.17488  0.65873  0.24295  1.0000
  H   H374      1.0  0.20195  0.65905  0.27427  1.0000
  H   H375      1.0  0.17542  0.67087  0.28838  1.0000
  H   H376      1.0  0.20910  0.95500  0.13171  1.0000
  S   S52       1.0  0.03776  0.75444  0.50608  1.0000
  H   H377      1.0  0.15664  0.92856  0.15921  1.0000
  H   H378      1.0  0.22109  0.62167  0.29899  1.0000
  H   H379      1.0  0.30321  0.96240  0.11827  1.0000
  H   H380      1.0  0.27742  0.73213  0.33791  1.0000
  H   H381      1.0  0.19232  0.77276  0.23800  1.0000
  H   H382      1.0  0.18936  0.79020  0.27829  1.0000
  H   H383      1.0  0.22288  0.80960  0.25088  1.0000
  H   H384      1.0  0.26171  0.98261  0.05058  1.0000
  H   H385      1.0  0.00616  0.81237  0.44528  1.0000
  H   H386      1.0  0.24859  0.87992  0.06686  1.0000
  H   H387      1.0  0.07231  0.84217  0.46693  1.0000
  Fe  Fe24      1.0  0.29266  0.67715  0.20225  1.0000
  H   H388      1.0  0.13886  0.80364  0.02719  1.0000
  H   H389      1.0  0.20097  0.77202  0.09431  1.0000
  S   S53       1.0  0.29247  0.70055  0.15124  1.0000
  H   H390      1.0  0.14448  0.75488  0.02423  1.0000
  H   H391      1.0  0.23783  0.57781  0.26352  1.0000
  S   S54       1.0  0.29067  0.63771  0.17365  1.0000
  Fe  Fe25      1.0  0.28536  0.65859  0.12318  1.0000
  H   H392      1.0  0.28888  0.80475  0.16016  1.0000
  C   C221      1.0  0.28914  0.68387  0.30202  1.0000
  H   H393      1.0  0.27699  0.93711  0.08542  1.0000
  H   H394      1.0  0.23486  0.91000  0.43549  1.0000
  H   H395      1.0  0.27322  0.52817  0.02697  1.0000
  C   C222      1.0  0.28255  0.68100  0.33883  1.0000
  C   C223      1.0  0.21546  0.59929  0.28815  1.0000
  C   C224      1.0  0.13022  0.76395  0.09033  1.0000
  H   H396      1.0  0.26950  0.51215  0.30437  1.0000
  C   C225      1.0  0.27458  0.52687  0.05650  1.0000
  H   H397      1.0  0.16024  0.81181  0.08191  1.0000
  H   H398      1.0  0.27228  0.75034  0.15393  1.0000
  H   H399      1.0  0.27552  0.56004  0.25049  1.0000
  H   H400      1.0  0.22700  0.79993  0.45804  1.0000
  H   H401      1.0  0.21963  0.85563  0.43156  1.0000
  H   H402      1.0  0.28016  0.56279  0.33285  1.0000
  H   H403      1.0  0.27806  0.84235  0.47064  1.0000
  H   H404      1.0  0.23377  0.78509  0.03662  1.0000
  H   H405      1.0  0.27341  0.87335  0.09510  1.0000
  H   H406      1.0  0.22047  0.83449  0.10543  1.0000
  C   C226      1.0  0.21301  0.76317  0.04185  1.0000
  H   H407      1.0  0.18595  0.80770  0.42949  1.0000
  N   N15       1.0  0.25110  0.83906  0.42406  1.0000
  H   H408      1.0  0.29063  0.82110  0.39855  1.0000
  C   C227      1.0  0.28476  0.67069  0.02243  1.0000
  C   C228      1.0  0.16258  0.79148  0.08546  1.0000
  N   N16       1.0  0.22290  0.97779  0.08045  1.0000
  H   H409      1.0  0.14953  0.51087  0.31885  1.0000
  H   H410      1.0  0.13782  0.91001  0.11811  1.0000
  C   C229      1.0  0.29238  0.75608  0.33054  1.0000
  H   H411      1.0  0.11346  0.78824  0.12218  1.0000
  H   H412      1.0  0.17362  0.75780  0.45392  1.0000
  C   C230      1.0  0.19564  0.79514  0.41613  1.0000
  H   H413      1.0  0.19523  0.79755  0.38670  1.0000
  C   C231      1.0  0.28055  0.84493  0.44102  1.0000
  H   H414      1.0  0.20137  0.83643  0.04411  1.0000
  H   H415      1.0  0.19134  0.93118  0.09495  1.0000
  H   H416      1.0  0.19512  0.96408  0.20002  1.0000
  H   H417      1.0  0.24351  0.88154  0.37647  1.0000
  C   C232      1.0  0.22834  0.80599  0.42917  1.0000
  H   H418      1.0  0.09146  0.74782  0.12596  1.0000
  C   C233      1.0  0.26462  0.60359  0.31051  1.0000
  H   H419      1.0  0.22108  0.81996  0.02485  1.0000
  H   H420      1.0  0.23440  0.83913  0.31370  1.0000
  H   H421      1.0  0.20258  0.58181  0.30865  1.0000
  H   H422      1.0  0.23776  0.73885  0.03905  1.0000
  H   H423      1.0  0.23573  0.79171  0.41498  1.0000
  H   H424      1.0  0.21288  0.84394  0.37106  1.0000
  C   C234      1.0  0.29053  0.57341  0.30679  1.0000
  C   C235      1.0  0.25755  0.86446  0.07201  1.0000
  C   C236      1.0  0.23735  0.85887  0.36628  1.0000
  C   C237      1.0  0.30680  0.77314  0.36514  1.0000
  H   H425      1.0  0.26691  0.87660  0.31943  1.0000
  H   H426      1.0  0.99204  0.74251  0.40369  1.0000
  C   C238      1.0  0.14693  0.93116  0.13377  1.0000
  H   H427      1.0  0.28086  0.80229  0.44136  1.0000
  C   C239      1.0  0.25676  0.84705  0.38467  1.0000
  C   C240      1.0  0.26396  0.89142  0.44835  1.0000
  H   H428      1.0  0.09760  0.87831  0.30763  1.0000
  C   C241      1.0  0.19073  0.76657  0.06713  1.0000
  H   H429      1.0  0.07758  0.89328  0.44970  1.0000
  H   H430      1.0  0.25385  0.82729  0.36903  1.0000
  H   H431      1.0  0.28078  0.86492  0.37998  1.0000
  C   C242      1.0  0.20872  0.81976  0.04950  1.0000
  C   C243      1.0  0.16363  0.77843  0.02139  1.0000
  C   C244      1.0  0.24251  0.86164  0.32581  1.0000
  H   H432      1.0  0.29304  0.52214  0.06325  1.0000
  H   H433      1.0  0.25040  0.60007  0.02782  1.0000
  C   C245      1.0  0.11486  0.76732  0.12372  1.0000
  H   H434      1.0  0.29865  0.86872  0.43639  1.0000
  H   H435      1.0  0.27113  0.67220  0.28281  1.0000
  H   H436      1.0  0.17437  0.79503  0.11162  1.0000
  H   H437      1.0  0.12762  0.76801  0.14817  1.0000
  H   H438      1.0  0.27729  0.90091  0.42345  1.0000
  H   H439      1.0  0.22960  0.87154  0.31354  1.0000
  H   H440      1.0  0.13079  0.74272  0.09323  1.0000
  C   C246      1.0  0.20929  0.97948  0.04524  1.0000
  C   C247      1.0  0.30572  0.69573  0.36421  1.0000
  H   H441      1.0  0.18816  0.49289  0.27351  1.0000
  C   C248      1.0  0.23168  0.83280  0.08083  1.0000
  H   H442      1.0  0.12784  0.93498  0.14026  1.0000
  H   H443      1.0  0.28894  0.79327  0.30730  1.0000
  H   H444      1.0  0.17052  0.74369  0.06977  1.0000
  C   C249      1.0  0.22316  0.74230  0.05829  1.0000
  H   H445      1.0  0.10140  0.88834  0.50546  1.0000
  C   C250      1.0  0.16980  0.51565  0.30272  1.0000
  H   H446      1.0  0.19061  0.52911  0.31892  1.0000
  C   C251      1.0  0.01852  0.83722  0.44171  1.0000
  H   H447      1.0  0.11565  0.76168  0.06707  1.0000
  H   H448      1.0  0.26682  0.56470  0.06484  1.0000
  H   H449      1.0  0.30473  0.97548  0.07304  1.0000
  C   C252      1.0  0.29323  0.82465  0.42790  1.0000
  C   C253      1.0  0.17088  0.95768  0.11206  1.0000
  H   H450      1.0  0.25644  0.61789  0.25809  1.0000
  C   C254      1.0  0.18596  0.87946  0.01767  1.0000
  H   H451      1.0  0.28457  0.61900  0.37705  1.0000
  H   H452      1.0  0.26872  0.62509  0.32248  1.0000
  H   H453      1.0  0.21671  0.49451  0.01402  1.0000
  H   H454      1.0  0.22224  0.57474  0.05905  1.0000
  H   H455      1.0  0.23652  0.75248  0.08300  1.0000
  S   S55       1.0  0.29632  0.68909  0.41004  1.0000
  H   H456      1.0  0.30260  0.79800  0.22823  1.0000
  H   H457      1.0  0.28902  0.77042  0.38447  1.0000
  C   C255      1.0  0.30907  0.78296  0.24226  1.0000
  C   C256      1.0  0.22566  0.58578  0.03250  1.0000
  C   C257      1.0  0.30830  0.61961  0.26901  1.0000
  C   C258      1.0  0.27026  0.55049  0.27783  1.0000
  H   H458      1.0  0.17200  0.93197  0.04147  1.0000
  H   H459      1.0  0.03179  0.84778  0.46629  1.0000
  H   H460      1.0  0.25825  0.50622  0.25782  1.0000
  H   H461      1.0  0.25064  0.58589  0.33053  1.0000
  H   H462      1.0  0.20193  0.75323  0.01591  1.0000
  H   H463      1.0  0.17735  0.97845  0.12757  1.0000
  C   C259      1.0  0.24660  0.96902  0.07298  1.0000
  C   C260      1.0  0.27421  0.52286  0.27750  1.0000
  H   H464      1.0  0.29767  0.52927  0.26930  1.0000
  H   H465      1.0  0.24819  0.49957  0.10137  1.0000
  C   C261      1.0  0.19094  0.94914  0.02504  1.0000
  H   H466      1.0  0.17078  0.52921  0.27895  1.0000
  H   H467      1.0  0.29784  0.59243  0.37956  1.0000
  C   C262      1.0  0.11536  0.90010  0.48157  1.0000
  H   H468      1.0  0.28589  0.55790  0.10144  1.0000
  H   H469      1.0  0.13524  0.89666  0.48045  1.0000
  H   H470      1.0  0.23443  0.90038  0.48224  1.0000
  H   H471      1.0  0.20600  0.94025  0.01736  1.0000
  H   H472      1.0  0.30605  0.57508  0.06061  1.0000
  S   S56       1.0  0.31115  0.65437  0.07620  1.0000
  H   H473      1.0  0.31091  0.75788  0.31323  1.0000
  C   C263      1.0  0.30445  0.61597  0.37267  1.0000
  H   H474      1.0  0.31035  0.64228  0.26808  1.0000
  H   H475      1.0  0.31299  0.57467  0.30694  1.0000
  H   H476      1.0  0.20922  0.88804  0.00931  1.0000
  C   C264      1.0  0.31628  0.62378  0.33351  1.0000
  H   H477      1.0  0.18736  0.54644  0.01097  1.0000
  H   H478      1.0  0.02652  0.77425  0.75028  1.0000
  H   H479      1.0  0.28484  0.78080  0.60025  1.0000
  Fe  Fe26      1.0  0.13706  0.83141  0.56688  1.0000
  S   S57       1.0  0.11184  0.78069  0.56764  1.0000
  S   S58       1.0  0.14066  0.86279  0.61177  1.0000
  C   C265      1.0  0.21732  0.74577  0.51819  1.0000
  C   C266      1.0  0.19366  0.49586  0.82253  1.0000
  H   H480      1.0  0.27816  0.70059  0.60151  1.0000
  Fe  Fe27      1.0  0.14376  0.87664  0.90045  1.0000
  S   S59       1.0  0.11482  0.89836  0.89862  1.0000
  S   S60       1.0  0.17407  0.87863  0.94636  1.0000
  Fe  Fe28      1.0  0.13575  0.86248  0.82013  1.0000
  S   S61       1.0  0.10671  0.88355  0.81245  1.0000
  S   S62       1.0  0.15058  0.84123  0.77728  1.0000
  Fe  Fe29      1.0  0.14048  0.92085  0.84813  1.0000
  S   S63       1.0  0.15844  0.97080  0.83633  1.0000
  Fe  Fe30      1.0  0.08357  0.85895  0.86324  1.0000
  S   S64       1.0  0.03184  0.83665  0.86671  1.0000
  S   S65       1.0  0.17101  0.90140  0.85194  1.0000
  S   S66       1.0  0.11087  0.83563  0.86901  1.0000
  C   C267      1.0  0.21226  0.95375  0.65454  1.0000
  C   C268      1.0  0.15753  0.95018  0.75037  1.0000
  C   C269      1.0  0.21256  0.57635  0.96619  1.0000
  N   N17       1.0  0.20677  0.55614  0.93423  1.0000
  C   C270      1.0  0.24684  0.51060  0.82971  1.0000
  C   C271      1.0  0.25597  0.54096  0.82274  1.0000
  C   C272      1.0  0.23369  0.54878  0.81644  1.0000
  C   C273      1.0  0.20273  0.52630  0.81621  1.0000
  H   H481      1.0  0.21346  0.96795  0.85063  1.0000
  H   H482      1.0  0.10952  0.76231  0.98362  1.0000
  H   H483      1.0  0.24033  0.57200  0.81091  1.0000
  H   H484      1.0  0.18570  0.53250  0.81070  1.0000
  C   C274      1.0  0.00547  0.79750  0.86272  1.0000
  C   C275      1.0  0.01443  0.77579  0.86448  1.0000
  S   S67       1.0  0.17590  0.83597  0.53321  1.0000
  H   H485      1.0  0.23644  0.63894  0.85476  1.0000
  H   H486      1.0  0.03827  0.78283  0.86654  1.0000
  H   H487      1.0  0.20928  0.89107  0.80185  1.0000
  H   H488      1.0  0.24032  0.71379  0.68394  1.0000
  H   H489      1.0  0.03670  0.79718  0.93774  1.0000
  H   H490      1.0  0.20684  0.94553  0.78125  1.0000
  C   C276      1.0  0.21136  0.56193  0.00321  1.0000
  H   H491      1.0  0.11612  0.85719  0.98291  1.0000
  C   C277      1.0  0.14040  0.85340  0.65730  1.0000
  C   C278      1.0  0.12882  0.86514  0.68272  1.0000
  C   C279      1.0  0.13103  0.86083  0.71956  1.0000
  C   C280      1.0  0.14524  0.84505  0.73125  1.0000
  C   C281      1.0  0.15626  0.83274  0.70581  1.0000
  C   C282      1.0  0.15371  0.83673  0.66891  1.0000
  H   H492      1.0  0.11831  0.87787  0.67382  1.0000
  H   H493      1.0  0.12215  0.87009  0.73888  1.0000
  H   H494      1.0  0.16714  0.82036  0.71468  1.0000
  H   H495      1.0  0.16280  0.82769  0.64953  1.0000
  C   C283      1.0  0.25771  0.70292  0.59767  1.0000
  H   H496      1.0  0.26017  0.65605  0.71573  1.0000
  H   H497      1.0  0.14156  0.77891  0.95309  1.0000
  H   H498      1.0  0.22673  0.97864  0.65492  1.0000
  C   C284      1.0  0.01801  0.79517  0.51997  1.0000
  C   C285      1.0  0.30914  0.65150  0.96807  1.0000
  Fe  Fe31      1.0  0.31707  0.61915  0.82448  1.0000
  H   H499      1.0  0.11147  0.91681  0.73446  1.0000
  H   H500      1.0  0.18858  0.94764  0.64807  1.0000
  H   H501      1.0  0.18082  0.57173  0.90454  1.0000
  C   C286      1.0  0.20204  0.57062  0.90145  1.0000
  H   H502      1.0  0.20022  0.72248  0.51369  1.0000
  C   C287      1.0  0.22549  0.98413  0.72993  1.0000
  H   H503      1.0  0.31230  0.51308  0.76242  1.0000
  H   H504      1.0  0.28353  0.75802  0.66197  1.0000
  H   H505      1.0  0.28293  0.70563  0.68732  1.0000
  H   H506      1.0  0.18343  0.74027  0.62118  1.0000
  S   S68       1.0  0.29271  0.64540  0.81906  1.0000
  S   S69       1.0  0.29538  0.56793  0.82089  1.0000
  S   S70       1.0  0.29091  0.67572  0.91405  1.0000
  H   H507      1.0  0.16444  0.93106  0.97663  1.0000
  H   H508      1.0  0.15904  0.53199  0.94839  1.0000
  C   C288      1.0  0.22748  0.75081  0.64335  1.0000
  H   H509      1.0  0.25688  0.65631  0.55937  1.0000
  C   C289      1.0  0.23552  0.65711  0.55695  1.0000
  C   C290      1.0  0.16354  0.87322  0.99182  1.0000
  H   H510      1.0  0.27863  0.82866  0.53594  1.0000
  C   C291      1.0  0.28062  0.67534  0.98619  1.0000
  H   H511      1.0  0.30266  0.76074  0.58260  1.0000
  H   H512      1.0  0.22674  0.65557  0.61305  1.0000
  C   C292      1.0  0.26454  0.57331  0.93863  1.0000
  H   H513      1.0  0.26212  0.71591  0.57229  1.0000
  H   H514      1.0  0.26744  0.67612  0.65443  1.0000
  C   C293      1.0  0.21382  0.93980  0.69081  1.0000
  C   C294      1.0  0.24826  0.75460  0.51520  1.0000
  H   H515      1.0  0.15800  0.51321  0.88665  1.0000
  C   C295      1.0  0.29917  0.77084  0.60707  1.0000
  C   C296      1.0  0.17719  0.95308  0.99060  1.0000
  H   H516      1.0  0.21541  0.77427  0.60375  1.0000
  H   H517      1.0  0.21639  0.63373  0.55347  1.0000
  Fe  Fe32      1.0  0.08837  0.78408  0.51809  1.0000
  H   H518      1.0  0.00174  0.82634  0.52858  1.0000
  S   S71       1.0  0.11129  0.83429  0.51962  1.0000
  H   H519      1.0  0.26251  0.98693  0.76248  1.0000
  H   H520      1.0  0.24789  0.60162  0.88161  1.0000
  H   H521      1.0  0.17316  0.96031  0.69635  1.0000
  H   H522      1.0  0.19874  0.55671  0.87728  1.0000
  H   H523      1.0  0.21782  0.73918  0.66913  1.0000
  C   C297      1.0  0.12471  0.94108  0.74163  1.0000
  C   C298      1.0  0.22869  0.92240  0.75725  1.0000
  C   C299      1.0  0.17734  0.52707  0.94090  1.0000
  H   H524      1.0  0.15840  0.92192  0.70817  1.0000
  H   H525      1.0  0.02386  0.82267  0.95067  1.0000
  H   H526      1.0  0.23479  0.59749  0.96401  1.0000
  S   S72       1.0  0.30973  0.79665  0.51878  1.0000
  H   H527      1.0  0.26820  0.68668  0.97929  1.0000
  C   C300      1.0  0.27054  0.78453  0.52158  1.0000
  H   H528      1.0  0.31611  0.64414  0.64405  1.0000
  Fe  Fe33      1.0  0.14908  0.78535  0.53047  1.0000
  C   C301      1.0  0.31328  0.64686  0.00420  1.0000
  H   H529      1.0  0.99955  0.72825  0.86696  1.0000
  H   H530      1.0  0.28255  0.54262  0.94133  1.0000
  H   H531      1.0  0.02874  0.79814  0.78681  1.0000
  C   C302      1.0  0.20473  0.93279  0.75623  1.0000
  H   H532      1.0  0.26385  0.50445  0.83539  1.0000
  H   H533      1.0  0.23714  0.94350  0.69300  1.0000
  H   H534      1.0  0.19557  0.58403  0.96696  1.0000
  H   H535      1.0  0.20915  0.67181  0.58625  1.0000
  C   C303      1.0  0.26155  0.80553  0.53054  1.0000
  H   H536      1.0  0.17974  0.51466  0.96397  1.0000
  N   N18       1.0  0.20507  0.95078  0.72377  1.0000
  H   H537      1.0  0.24717  0.94788  0.62795  1.0000
  C   C304      1.0  0.21791  0.61572  0.86089  1.0000
  H   H538      1.0  0.23426  0.61838  0.91405  1.0000
  H   H539      1.0  0.19533  0.96910  0.97232  1.0000
  H   H540      1.0  0.30108  0.73923  0.64282  1.0000
  H   H541      1.0  0.11402  0.94485  0.76549  1.0000
  H   H542      1.0  0.19874  0.91485  0.68839  1.0000
  Fe  Fe34      1.0  0.31679  0.66752  0.87028  1.0000
  C   C305      1.0  0.28759  0.56396  0.92782  1.0000
  H   H543      1.0  0.02662  0.80911  0.74159  1.0000
  H   H544      1.0  0.22327  0.54878  0.00258  1.0000
  S   S73       1.0  0.16920  0.75435  0.53189  1.0000
  C   C306      1.0  0.29342  0.66641  0.95894  1.0000
  H   H545      1.0  0.04164  0.81212  0.52299  1.0000
  H   H546      1.0  0.28726  0.56085  0.89841  1.0000
  H   H547      1.0  0.26654  0.57683  0.96802  1.0000
  H   H548      1.0  0.23220  0.54291  0.89944  1.0000
  H   H549      1.0  0.20878  0.91682  0.62203  1.0000
  C   C307      1.0  0.99056  0.77505  0.95817  1.0000
  C   C308      1.0  0.26156  0.68737  0.67569  1.0000
  C   C309      1.0  0.20563  0.76027  0.62809  1.0000
  C   C310      1.0  0.23031  0.67102  0.59039  1.0000
  H   H550      1.0  0.16112  0.96115  0.99669  1.0000
  H   H551      1.0  0.17795  0.98491  0.90994  1.0000
  N   N19       1.0  0.25399  0.72002  0.62831  1.0000
  C   C311      1.0  0.99241  0.74484  0.86478  1.0000
  H   H552      1.0  0.03406  0.80389  0.98456  1.0000
  H   H553      1.0  0.23960  0.67483  0.72800  1.0000
  C   C312      1.0  0.02324  0.80134  0.95798  1.0000
  H   H554      1.0  0.27134  0.59526  0.92590  1.0000
  C   C313      1.0  0.13353  0.86212  0.00270  1.0000
  C   C314      1.0  0.24517  0.66435  0.70543  1.0000
  C   C315      1.0  0.23060  0.79684  0.53282  1.0000
  H   H555      1.0  0.19754  0.61702  0.86870  1.0000
  C   C316      1.0  0.23109  0.91124  0.79436  1.0000
  C   C317      1.0  0.28456  0.74679  0.63697  1.0000
  H   H556      1.0  0.20880  0.70982  0.61295  1.0000
  H   H557      1.0  0.23801  0.74116  0.59045  1.0000
  H   H558      1.0  0.17804  0.77745  0.99967  1.0000
  C   C318      1.0  0.99531  0.80315  0.52323  1.0000
  H   H559      1.0  0.24925  0.77172  0.64873  1.0000
  C   C319      1.0  0.23171  0.72979  0.61701  1.0000
  H   H560      1.0  0.21834  0.68190  0.65695  1.0000
  C   C320      1.0  0.24199  0.70060  0.66136  1.0000
  H   H561      1.0  0.17038  0.82018  0.99660  1.0000
  C   C321      1.0  0.17334  0.94528  0.71775  1.0000
  H   H562      1.0  0.23672  0.67034  0.53280  1.0000
  H   H563      1.0  0.24886  0.90473  0.79419  1.0000
  H   H564      1.0  0.22402  0.64481  0.69508  1.0000
  H   H565      1.0  0.22200  0.90342  0.73823  1.0000
  H   H566      1.0  0.18274  0.49916  0.89981  1.0000
  C   C322      1.0  0.01852  0.78955  0.76005  1.0000
  H   H567      1.0  0.22398  0.81318  0.54003  1.0000
  C   C323      1.0  0.16518  0.50428  0.90942  1.0000
  H   H568      1.0  0.21285  0.60180  0.83634  1.0000
  C   C324      1.0  0.23179  0.54884  0.92809  1.0000
  H   H569      1.0  0.20163  0.77390  0.64812  1.0000
  C   C325      1.0  0.01002  0.76534  0.51263  1.0000
  H   H570      1.0  0.18246  0.91146  0.75843  1.0000
  H   H571      1.0  0.23725  0.92918  0.81470  1.0000
  H   H572      1.0  0.25162  0.94053  0.74965  1.0000
  H   H573      1.0  0.16935  0.97426  0.75822  1.0000
  H   H574      1.0  0.22722  0.52828  0.94330  1.0000
  H   H575      1.0  0.15700  0.93653  0.77366  1.0000
  C   C326      1.0  0.22781  0.60255  0.89131  1.0000
  C   C327      1.0  0.22314  0.94175  0.62391  1.0000
  C   C328      1.0  0.15130  0.79857  0.00658  1.0000
  H   H576      1.0  0.31076  0.58185  0.93560  1.0000
  C   C329      1.0  0.12983  0.78363  0.97505  1.0000
  C   C330      1.0  0.20832  0.76681  0.52693  1.0000
  H   H577      1.0  0.99150  0.75422  0.96351  1.0000
  C   C331      1.0  0.29556  0.48874  0.76601  1.0000
  H   H578      1.0  0.12385  0.95484  0.71913  1.0000
  H   H579      1.0  0.22137  0.95164  0.59816  1.0000
  H   H580      1.0  0.12224  0.79909  0.96451  1.0000
  H   H581      1.0  0.26414  0.49208  0.73069  1.0000
  H   H582      1.0  0.25482  0.73821  0.50818  1.0000
  H   H583      1.0  0.17814  0.48914  0.73270  1.0000
  C   C332      1.0  0.21591  0.48814  0.82959  1.0000
  Fe  Fe35      1.0  0.33403  0.20433  0.46625  1.0000
  S   S74       1.0  0.35951  0.25464  0.46188  1.0000
  H   H584      1.0  0.44749  0.22627  0.31018  1.0000
  H   H585      1.0  0.41855  0.21171  0.25343  1.0000
  S   S75       1.0  0.36614  0.20271  0.50636  1.0000
  H   H586      1.0  0.35921  0.23257  0.06422  1.0000
  N   N20       1.0  0.42170  0.21955  0.38056  1.0000
  S   S76       1.0  0.32592  0.16349  0.08920  1.0000
  H   H587      1.0  0.43763  0.26403  0.35791  1.0000
  C   C333      1.0  0.32163  0.28274  0.38570  1.0000
  H   H588      1.0  0.62346  0.24788  0.24286  1.0000
  H   H589      1.0  0.49830  0.19267  0.39170  1.0000
  C   C334      1.0  0.52359  0.29072  0.49644  1.0000
  H   H590      1.0  0.39553  0.21518  0.04591  1.0000
  C   C335      1.0  0.34030  0.22246  0.33064  1.0000
  H   H591      1.0  0.42069  0.23961  0.30738  1.0000
  C   C336      1.0  0.63501  0.43149  0.25191  1.0000
  H   H592      1.0  0.45056  0.18791  0.41284  1.0000
  C   C337      1.0  0.46948  0.27486  0.49972  1.0000
  H   H593      1.0  0.36732  0.15781  0.39098  1.0000
  C   C338      1.0  0.37496  0.15145  0.44594  1.0000
  C   C339      1.0  0.51655  0.26099  0.49029  1.0000
  H   H594      1.0  0.40810  0.18105  0.34543  1.0000
  H   H595      1.0  0.62065  0.37234  0.02033  1.0000
  Fe  Fe36      1.0  0.59595  0.28224  0.49426  1.0000
  C   C340      1.0  0.62223  0.41456  0.21680  1.0000
  H   H596      1.0  0.38327  0.20589  0.41627  1.0000
  C   C341      1.0  0.40805  0.20263  0.34617  1.0000
  H   H597      1.0  0.35301  0.24614  0.32375  1.0000
  S   S77       1.0  0.62148  0.33296  0.49103  1.0000
  S   S78       1.0  0.63057  0.27739  0.46136  1.0000
  H   H598      1.0  0.46359  0.24005  0.41073  1.0000
  H   H599      1.0  0.41476  0.25484  0.43581  1.0000
  H   H600      1.0  0.34600  0.23039  0.38760  1.0000
  C   C342      1.0  0.46036  0.20073  0.38771  1.0000
  C   C343      1.0  0.42308  0.21939  0.31083  1.0000
  C   C344      1.0  0.64802  0.34236  0.36299  1.0000
  C   C345      1.0  0.40247  0.23941  0.04394  1.0000
  H   H601      1.0  0.33227  0.38577  0.24323  1.0000
  H   H602      1.0  0.61628  0.33378  0.32011  1.0000
  H   H603      1.0  0.63060  0.33120  0.38316  1.0000
  C   C346      1.0  0.42140  0.24887  0.37857  1.0000
  C   C347      1.0  0.40241  0.20149  0.41210  1.0000
  H   H604      1.0  0.59515  0.26848  0.21296  1.0000
  H   H605      1.0  0.63297  0.42975  0.19350  1.0000
  H   H606      1.0  0.61937  0.24768  0.37593  1.0000
  H   H607      1.0  0.33026  0.29706  0.36137  1.0000
  C   C348      1.0  0.50018  0.29759  0.50086  1.0000
  H   H608      1.0  0.43272  0.30894  0.43335  1.0000
  H   H609      1.0  0.44334  0.31083  0.38703  1.0000
  H   H610      1.0  0.38364  0.19623  0.34478  1.0000
  C   C349      1.0  0.62034  0.28147  0.21261  1.0000
  C   C350      1.0  0.31961  0.16925  0.04425  1.0000
  C   C351      1.0  0.45428  0.22734  0.38540  1.0000
  H   H611      1.0  0.40241  0.15894  0.39963  1.0000
  H   H612      1.0  0.36498  0.12669  0.44331  1.0000
  H   H613      1.0  0.45090  0.18550  0.36436  1.0000
  C   C352      1.0  0.63998  0.34391  0.32732  1.0000
  H   H614      1.0  0.39353  0.15986  0.46602  1.0000
  H   H615      1.0  0.42656  0.25288  0.05208  1.0000
  C   C353      1.0  0.38367  0.24521  0.07134  1.0000
  H   H616      1.0  0.62612  0.39512  0.21491  1.0000
  C   C354      1.0  0.38694  0.16653  0.40965  1.0000
  C   C355      1.0  0.49444  0.21208  0.38902  1.0000
  H   H617      1.0  0.38326  0.19229  0.27756  1.0000
  S   S79       1.0  0.54526  0.25137  0.48321  1.0000
  H   H618      1.0  0.59738  0.40572  0.21572  1.0000
  H   H619      1.0  0.39861  0.24451  0.37007  1.0000
  C   C356      1.0  0.48581  0.23824  0.48891  1.0000
  H   H620      1.0  0.50574  0.22460  0.36417  1.0000
  H   H621      1.0  0.39131  0.26963  0.07278  1.0000
  H   H622      1.0  0.35688  0.15576  0.45556  1.0000
  H   H623      1.0  0.41596  0.20898  0.43721  1.0000
  H   H624      1.0  0.50501  0.22711  0.41247  1.0000
  H   H625      1.0  0.40998  0.17872  0.27947  1.0000
  C   C357      1.0  0.32741  0.20085  0.30338  1.0000
  C   C358      1.0  0.64679  0.25781  0.32776  1.0000
  C   C359      1.0  0.42987  0.26788  0.41336  1.0000
  H   H626      1.0  0.46883  0.24292  0.36391  1.0000
  H   H627      1.0  0.45361  0.27564  0.42147  1.0000
  C   C360      1.0  0.42720  0.29605  0.40792  1.0000
  H   H628      1.0  0.40373  0.28980  0.40000  1.0000
  C   C361      1.0  0.63273  0.27250  0.24474  1.0000
  H   H629      1.0  0.38632  0.23749  0.09822  1.0000
  H   H630      1.0  0.62723  0.24682  0.30932  1.0000
  C   C362      1.0  0.40774  0.19918  0.27845  1.0000
  H   H631      1.0  0.62383  0.27767  0.26924  1.0000
  H   H632      1.0  0.65035  0.23224  0.26987  1.0000
  H   H633      1.0  0.62763  0.30580  0.21365  1.0000
  H   H634      1.0  0.62357  0.41520  0.27404  1.0000
  C   C363      1.0  0.33424  0.16240  0.01711  1.0000
  H   H635      1.0  0.62526  0.28077  0.35231  1.0000
  H   H636      1.0  0.48010  0.21515  0.48440  1.0000
  H   H637      1.0  0.50593  0.32070  0.50531  1.0000
  S   S80       1.0  0.33296  0.21279  0.25846  1.0000
  H   H638      1.0  0.34854  0.15312  0.02412  1.0000
  H   H639      1.0  0.62875  0.44929  0.25346  1.0000
  C   C364      1.0  0.46241  0.24506  0.49397  1.0000
  C   C365      1.0  0.63627  0.26774  0.36068  1.0000
  C   C366      1.0  0.32049  0.18304  0.37572  1.0000
  H   H640      1.0  0.54708  0.30848  0.49748  1.0000
  Fe  Fe37      1.0  0.38960  0.25318  0.50535  1.0000
  H   H641      1.0  0.62832  0.27663  0.18713  1.0000
  C   C367      1.0  0.33651  0.21360  0.36675  1.0000
  H   H642      1.0  0.43896  0.22727  0.49380  1.0000
  H   H643      1.0  0.33888  0.27685  0.39446  1.0000
  C   C368      1.0  0.63986  0.37000  0.01267  1.0000
  S   S81       1.0  0.44092  0.28494  0.50475  1.0000
  Fe  Fe38      1.0  0.32887  0.25323  0.50614  1.0000
  H   H644      1.0  0.64985  0.43311  0.32444  1.0000
  H   H645      1.0  0.31853  0.29593  0.40721  1.0000
  S   S82       1.0  0.65145  0.36033  0.25673  1.0000
  C   C369      1.0  0.64438  0.35248  0.63206  1.0000
  S   S83       1.0  0.36114  0.25635  0.54963  1.0000
  H   H646      1.0  0.63494  0.42100  0.72424  1.0000
  C   C370      1.0  0.42238  0.17392  0.95290  1.0000
  Fe  Fe39      1.0  0.33869  0.18220  0.80047  1.0000
  S   S84       1.0  0.35999  0.15296  0.79879  1.0000
  H   H647      1.0  0.34223  0.16256  0.96029  1.0000
  H   H648      1.0  0.47809  0.25701  0.95648  1.0000
  S   S85       1.0  0.34968  0.14546  0.88574  1.0000
  H   H649      1.0  0.42485  0.16412  0.92747  1.0000
  Fe  Fe40      1.0  0.38531  0.17872  0.84784  1.0000
  S   S86       1.0  0.43598  0.19633  0.85431  1.0000
  H   H650      1.0  0.35639  0.24638  0.69070  1.0000
  S   S87       1.0  0.36602  0.20938  0.84759  1.0000
  C   C371      1.0  0.46357  0.23525  0.85483  1.0000
  C   C372      1.0  0.45553  0.25757  0.85186  1.0000
  H   H651      1.0  0.50083  0.22693  0.86120  1.0000
  H   H652      1.0  0.43199  0.25121  0.84880  1.0000
  H   H653      1.0  0.37273  0.23239  0.99923  1.0000
  C   C373      1.0  0.44880  0.27178  0.98137  1.0000
  H   H654      1.0  0.34167  0.31302  0.57172  1.0000
  H   H655      1.0  0.35396  0.29830  0.60781  1.0000
  H   H656      1.0  0.62227  0.29185  0.68682  1.0000
  H   H657      1.0  0.64475  0.22522  0.63783  1.0000
  H   H658      1.0  0.51165  0.30716  0.98463  1.0000
  C   C374      1.0  0.62142  0.45407  0.92829  1.0000
  H   H659      1.0  0.44245  0.17971  0.96994  1.0000
  C   C375      1.0  0.40272  0.27748  0.93408  1.0000
  H   H660      1.0  0.40146  0.15667  0.96661  1.0000
  H   H661      1.0  0.39326  0.19840  0.98945  1.0000
  S   S88       1.0  0.61684  0.27975  0.54663  1.0000
  S   S89       1.0  0.62295  0.38872  0.88566  1.0000
  S   S90       1.0  0.60864  0.38015  0.79953  1.0000
  Fe  Fe41      1.0  0.58680  0.35385  0.84982  1.0000
  S   S91       1.0  0.53631  0.33590  0.85875  1.0000
  S   S92       1.0  0.60898  0.32563  0.84649  1.0000
  C   C376      1.0  0.50883  0.29702  0.85671  1.0000
  C   C377      1.0  0.51689  0.27471  0.85965  1.0000
  C   C378      1.0  0.49437  0.24401  0.85869  1.0000
  C   C379      1.0  0.47804  0.28827  0.85284  1.0000
  H   H662      1.0  0.54044  0.28112  0.86318  1.0000
  H   H663      1.0  0.47156  0.30535  0.85064  1.0000
  H   H664      1.0  0.41600  0.24565  0.91778  1.0000
  C   C380      1.0  0.33536  0.20088  0.71081  1.0000
  C   C381      1.0  0.47252  0.27521  0.95308  1.0000
  H   H665      1.0  0.63967  0.44777  0.75871  1.0000
  H   H666      1.0  0.40066  0.19512  0.92649  1.0000
  H   H667      1.0  0.49842  0.32438  0.95213  1.0000
  C   C382      1.0  0.63357  0.32265  0.64244  1.0000
  H   H668      1.0  0.46436  0.27463  0.92555  1.0000
  N   N21       1.0  0.41687  0.24592  0.97614  1.0000
  H   H669      1.0  0.36524  0.25768  0.89601  1.0000
  C   C383      1.0  0.42031  0.20205  0.94467  1.0000
  C   C384      1.0  0.33557  0.30242  0.59869  1.0000
  Fe  Fe42      1.0  0.32848  0.17451  0.88138  1.0000
  C   C385      1.0  0.38888  0.27693  0.89760  1.0000
  H   H670      1.0  0.42596  0.29737  0.93441  1.0000
  C   C386      1.0  0.32639  0.18376  0.63819  1.0000
  H   H671      1.0  0.62987  0.45854  0.90025  1.0000
  S   S93       1.0  0.33917  0.21235  0.75582  1.0000
  H   H672      1.0  0.33383  0.31834  0.61732  1.0000
  H   H673      1.0  0.44893  0.29350  0.98321  1.0000
  C   C387      1.0  0.34531  0.22276  0.68365  1.0000
  C   C388      1.0  0.50215  0.30513  0.95733  1.0000
  C   C389      1.0  0.64346  0.23852  0.61510  1.0000
  H   H674      1.0  0.38831  0.29812  0.89361  1.0000
  H   H675      1.0  0.40266  0.27508  0.87577  1.0000
  C   C390      1.0  0.64180  0.44488  0.72959  1.0000
  H   H676      1.0  0.63739  0.22446  0.59056  1.0000
  H   H677      1.0  0.62778  0.36367  0.95668  1.0000
  C   C391      1.0  0.40358  0.24802  0.94076  1.0000
  C   C392      1.0  0.34121  0.21426  0.64742  1.0000
  Fe  Fe43      1.0  0.64690  0.36243  0.87827  1.0000
  C   C393      1.0  0.41580  0.21595  0.97936  1.0000
  N   N22       1.0  0.51895  0.27561  0.73832  1.0000
  C   C394      1.0  0.51874  0.26064  0.70348  1.0000
  C   C395      1.0  0.48796  0.25800  0.75534  1.0000
  C   C396      1.0  0.52699  0.30765  0.73040  1.0000
  C   C397      1.0  0.54217  0.27624  0.76396  1.0000
  C   C398      1.0  0.53925  0.24526  0.77264  1.0000
  C   C399      1.0  0.55007  0.27257  0.68505  1.0000
  C   C400      1.0  0.52506  0.32575  0.76250  1.0000
  C   C401      1.0  0.46148  0.25805  0.73473  1.0000
  C   C402      1.0  0.43140  0.23975  0.75468  1.0000
  C   C403      1.0  0.56524  0.24905  0.79665  1.0000
  C   C404      1.0  0.54683  0.25641  0.64957  1.0000
  C   C405      1.0  0.53222  0.35725  0.75091  1.0000
  H   H678      1.0  0.50396  0.26333  0.68361  1.0000
  H   H679      1.0  0.50832  0.23583  0.70712  1.0000
  H   H680      1.0  0.48145  0.23390  0.75847  1.0000
  H   H681      1.0  0.48828  0.26595  0.78310  1.0000
  H   H682      1.0  0.51271  0.30840  0.70827  1.0000
  H   H683      1.0  0.55073  0.32084  0.72043  1.0000
  H   H684      1.0  0.56561  0.29183  0.75417  1.0000
  H   H685      1.0  0.54083  0.28578  0.79012  1.0000
  H   H686      1.0  0.53977  0.23345  0.74808  1.0000
  H   H687      1.0  0.51774  0.23055  0.78711  1.0000
  H   H688      1.0  0.56088  0.29700  0.67911  1.0000
  H   H689      1.0  0.56574  0.26889  0.70215  1.0000
  H   H690      1.0  0.54189  0.32868  0.78319  1.0000
  H   H691      1.0  0.50218  0.31446  0.77484  1.0000
  H   H692      1.0  0.46540  0.28123  0.73141  1.0000
  H   H693      1.0  0.45867  0.24780  0.70787  1.0000
  H   H694      1.0  0.43208  0.25043  0.78073  1.0000
  H   H695      1.0  0.41258  0.23880  0.73857  1.0000
  H   H696      1.0  0.42638  0.21629  0.75950  1.0000
  H   H697      1.0  0.56278  0.22665  0.80230  1.0000
  H   H698      1.0  0.58747  0.26338  0.78332  1.0000
  H   H699      1.0  0.56487  0.25949  0.82251  1.0000
  H   H700      1.0  0.56950  0.26527  0.63701  1.0000
  H   H701      1.0  0.53686  0.23180  0.65396  1.0000
  H   H702      1.0  0.53223  0.26033  0.63073  1.0000
  H   H703      1.0  0.53136  0.36983  0.77466  1.0000
  H   H704      1.0  0.55535  0.36992  0.73917  1.0000
  H   H705      1.0  0.51532  0.35580  0.73102  1.0000
  H   H706      1.0  0.34920  0.23125  0.62666  1.0000
  H   H707      1.0  0.38865  0.28053  0.95443  1.0000
  H   H708      1.0  0.37990  0.22872  0.93818  1.0000
  C   C406      1.0  0.62983  0.31487  0.67896  1.0000
  H   H709      1.0  0.62875  0.30570  0.62233  1.0000
  H   H710      1.0  0.51907  0.30632  0.93762  1.0000
  H   H711      1.0  0.62597  0.45015  0.71510  1.0000
  H   H712      1.0  0.60686  0.42936  0.93227  1.0000
  Fe  Fe44      1.0  0.33570  0.20573  0.54767  1.0000
  H   H713      1.0  0.44100  0.21803  0.92992  1.0000
  Fe  Fe45      1.0  0.64703  0.41259  0.83521  1.0000
  Fe  Fe46      1.0  0.64393  0.33024  0.54195  1.0000
  Fe  Fe47      1.0  0.32216  0.12232  0.83655  1.0000
  H   H714      1.0  0.43251  0.21736  0.99966  1.0000
  H   H715      1.0  0.62525  0.24398  0.62026  1.0000
  H   H716      1.0  0.60732  0.46474  0.93256  1.0000
  H   H717      1.0  0.40048  0.27071  0.00710  1.0000
  C   C407      1.0  0.33073  0.16775  0.98097  1.0000
  C   C408      1.0  0.32126  0.17041  0.70158  1.0000
  Fe  Fe48      1.0  0.63292  0.35374  0.79804  1.0000
  C   C409      1.0  0.63617  0.33669  0.70534  1.0000
  H   H718      1.0  0.32247  0.07841  0.92208  1.0000
  C   C410      1.0  0.39725  0.24762  0.00547  1.0000
  C   C411      1.0  0.64390  0.36519  0.97658  1.0000
  S   S94       1.0  0.63374  0.32625  0.75080  1.0000
  H   H719      1.0  0.45805  0.26965  0.00745  1.0000
  C   C412      1.0  0.64557  0.36629  0.69494  1.0000
  H   H720      1.0  0.63803  0.46223  0.98202  1.0000
  C   C413      1.0  0.64966  0.37413  0.65836  1.0000
  C   C414      1.0  0.64790  0.46706  0.95472  1.0000
  H   H721      1.0  0.65022  0.38313  0.71509  1.0000
  S   S95       1.0  0.31821  0.17213  0.59322  1.0000
  C   C415      1.0  0.62861  0.83810  0.31987  1.0000
  S   S96       1.0  0.35284  0.76843  0.45633  1.0000
  H   H722      1.0  0.35493  0.76286  0.07461  1.0000
  H   H723      1.0  0.32333  0.64799  0.32916  1.0000
  H   H724      1.0  0.33107  0.84446  0.46560  1.0000
  H   H725      1.0  0.49608  0.80645  0.24649  1.0000
  H   H726      1.0  0.43584  0.76292  0.41420  1.0000
  H   H727      1.0  0.58526  0.86950  0.44135  1.0000
  S   S97       1.0  0.61029  0.83604  0.48550  1.0000
  Fe  Fe49      1.0  0.64804  0.83372  0.45712  1.0000
  C   C416      1.0  0.50941  0.76519  0.48387  1.0000
  H   H728      1.0  0.33523  0.62069  0.20232  1.0000
  H   H729      1.0  0.35065  0.65861  0.21976  1.0000
  C   C417      1.0  0.45595  0.75155  0.48365  1.0000
  C   C418      1.0  0.43411  0.75721  0.38532  1.0000
  C   C419      1.0  0.46426  0.78194  0.48624  1.0000
  H   H730      1.0  0.31887  0.76704  0.19259  1.0000
  Fe  Fe50      1.0  0.58762  0.78569  0.48878  1.0000
  H   H731      1.0  0.55802  0.81510  0.42554  1.0000
  H   H732      1.0  0.56726  0.82433  0.35721  1.0000
  C   C420      1.0  0.51748  0.78349  0.32423  1.0000
  H   H733      1.0  0.55179  0.73538  0.41442  1.0000
  H   H734      1.0  0.54275  0.72200  0.36879  1.0000
  H   H735      1.0  0.48920  0.76925  0.25723  1.0000
  C   C421      1.0  0.34225  0.71658  0.31561  1.0000
  H   H736      1.0  0.32201  0.79455  0.26667  1.0000
  H   H737      1.0  0.33634  0.66063  0.39363  1.0000
  H   H738      1.0  0.41343  0.73488  0.38134  1.0000
  H   H739      1.0  0.36549  0.73022  0.30669  1.0000
  H   H740      1.0  0.35362  0.72543  0.37186  1.0000
  S   S98       1.0  0.62353  0.78311  0.45604  1.0000
  H   H741      1.0  0.33745  0.62250  0.33254  1.0000
  H   H742      1.0  0.50263  0.75904  0.31854  1.0000
  H   H743      1.0  0.39803  0.75755  0.05247  1.0000
  H   H744      1.0  0.33444  0.82198  0.43089  1.0000
  S   S99       1.0  0.43707  0.79381  0.48608  1.0000
  C   C422      1.0  0.33560  0.71395  0.35249  1.0000
  H   H745      1.0  0.57487  0.78838  0.39208  1.0000
  H   H746      1.0  0.47188  0.71973  0.47968  1.0000
  H   H747      1.0  0.60506  0.82536  0.31191  1.0000
  H   H748      1.0  0.61912  0.83037  0.37658  1.0000
  H   H749      1.0  0.57791  0.77327  0.05592  1.0000
  H   H750      1.0  0.34003  0.60240  0.26158  1.0000
  C   C423      1.0  0.50562  0.80101  0.30179  1.0000
  C   C424      1.0  0.58648  0.76375  0.03533  1.0000
  H   H751      1.0  0.34069  0.85909  0.42052  1.0000
  H   H752      1.0  0.32969  0.72269  0.06947  1.0000
  H   H753      1.0  0.63286  0.92382  0.29241  1.0000
  C   C425      1.0  0.51766  0.79548  0.48724  1.0000
  H   H754      1.0  0.37381  0.64119  0.21797  1.0000
  C   C426      1.0  0.32894  0.63661  0.39922  1.0000
  Fe  Fe51      1.0  0.38597  0.76268  0.49113  1.0000
  H   H755      1.0  0.52282  0.76614  0.41133  1.0000
  C   C427      1.0  0.37463  0.73959  0.04597  1.0000
  C   C428      1.0  0.64787  0.93793  0.27033  1.0000
  H   H756      1.0  0.53990  0.78928  0.31267  1.0000
  H   H757      1.0  0.32017  0.76383  0.37771  1.0000
  H   H758      1.0  0.57821  0.87899  0.39735  1.0000
  C   C429      1.0  0.35355  0.74054  0.07444  1.0000
  H   H759      1.0  0.32230  0.79747  0.35962  1.0000
  C   C430      1.0  0.50463  0.79371  0.26199  1.0000
  C   C431      1.0  0.47848  0.74327  0.48214  1.0000
  S   S100      1.0  0.36077  0.71213  0.48694  1.0000
  H   H760      1.0  0.33939  0.76541  0.23130  1.0000
  H   H761      1.0  0.50178  0.82739  0.48984  1.0000
  H   H762      1.0  0.62563  0.89135  0.01197  1.0000
  H   H763      1.0  0.54136  0.81256  0.48891  1.0000
  H   H764      1.0  0.45884  0.74979  0.34418  1.0000
  H   H765      1.0  0.48230  0.79501  0.30989  1.0000
  H   H766      1.0  0.60200  0.86228  0.40297  1.0000
  S   S101      1.0  0.64043  0.84994  0.24824  1.0000
  C   C432      1.0  0.33061  0.77875  0.21761  1.0000
  H   H767      1.0  0.64818  0.51956  0.27837  1.0000
  S   S102      1.0  0.32841  0.70337  0.24447  1.0000
  H   H768      1.0  0.61097  0.77988  0.03056  1.0000
  H   H769      1.0  0.37345  0.71746  0.04863  1.0000
  C   C433      1.0  0.34012  0.62405  0.26037  1.0000
  H   H770      1.0  0.50873  0.74314  0.37322  1.0000
  H   H771      1.0  0.64537  0.93743  0.21209  1.0000
  C   C434      1.0  0.63642  0.84078  0.35637  1.0000
  N   N23       1.0  0.52028  0.78935  0.36406  1.0000
  C   C435      1.0  0.54615  0.82096  0.37032  1.0000
  H   H772      1.0  0.52055  0.82570  0.30474  1.0000
  C   C436      1.0  0.49158  0.78659  0.37945  1.0000
  C   C437      1.0  0.52601  0.76623  0.38193  1.0000
  C   C438      1.0  0.55774  0.76974  0.37545  1.0000
  C   C439      1.0  0.55354  0.83086  0.40994  1.0000
  C   C440      1.0  0.46211  0.75605  0.37287  1.0000
  H   H773      1.0  0.53443  0.83202  0.42256  1.0000
  H   H774      1.0  0.46287  0.73782  0.38814  1.0000
  C   C441      1.0  0.55839  0.74124  0.38596  1.0000
  C   C442      1.0  0.58147  0.86232  0.41288  1.0000
  H   H775      1.0  0.36022  0.73648  0.10130  1.0000
  H   H776      1.0  0.54127  0.83766  0.35752  1.0000
  H   H777      1.0  0.56484  0.77466  0.34708  1.0000
  H   H778      1.0  0.58174  0.74507  0.38250  1.0000
  H   H779      1.0  0.52771  0.80027  0.25203  1.0000
  H   H780      1.0  0.48823  0.80529  0.36976  1.0000
  H   H781      1.0  0.49343  0.78925  0.40906  1.0000
  H   H782      1.0  0.31969  0.63139  0.42688  1.0000
  H   H783      1.0  0.60921  0.92046  0.23444  1.0000
  H   H784      1.0  0.35738  0.64023  0.27930  1.0000
  S   S103      1.0  0.53694  0.75379  0.48156  1.0000
  C   C443      1.0  0.63225  0.92315  0.23516  1.0000
  C   C444      1.0  0.32692  0.83847  0.43678  1.0000
  C   C445      1.0  0.49519  0.80382  0.48797  1.0000
  H   H785      1.0  0.35018  0.80108  0.21040  1.0000
  H   H786      1.0  0.64937  0.96023  0.27127  1.0000
  H   H787      1.0  0.43151  0.77429  0.36977  1.0000
  C   C446      1.0  0.35047  0.63693  0.22279  1.0000
  H   H788      1.0  0.58417  0.74242  0.04587  1.0000
  Fe  Fe52      1.0  0.32587  0.71784  0.45607  1.0000
  H   H789      1.0  0.34890  0.63335  0.39779  1.0000
  H   H790      1.0  0.43221  0.73448  0.48221  1.0000
  H   H791      1.0  0.32617  0.63601  0.01110  1.0000
  H   H792      1.0  0.62992  0.90051  0.23253  1.0000
  C   C447      1.0  0.31909  0.70123  0.29030  1.0000
  Fe  Fe53      1.0  0.32792  0.76497  0.50745  1.0000
  C   C448      1.0  0.65116  0.85208  0.29356  1.0000
  H   H793      1.0  0.36524  0.76581  0.00877  1.0000
  C   C449      1.0  0.38965  0.70074  0.94554  1.0000
  S   S104      1.0  0.36351  0.76399  0.54251  1.0000
  C   C450      1.0  0.32783  0.67405  0.68932  1.0000
  H   H794      1.0  0.53933  0.75046  0.72154  1.0000
  Fe  Fe54      1.0  0.64004  0.91552  0.82349  1.0000
  S   S105      1.0  0.35786  0.65277  0.79238  1.0000
  C   C451      1.0  0.63297  0.95271  0.92967  1.0000
  H   H795      1.0  0.54573  0.71917  0.54890  1.0000
  S   S106      1.0  0.33943  0.63995  0.87697  1.0000
  H   H796      1.0  0.36783  0.77652  0.80378  1.0000
  Fe  Fe55      1.0  0.37784  0.67627  0.84462  1.0000
  S   S107      1.0  0.42822  0.69533  0.85680  1.0000
  C   C452      1.0  0.33171  0.68973  0.62675  1.0000
  S   S108      1.0  0.35680  0.70544  0.84229  1.0000
  C   C453      1.0  0.45608  0.73408  0.85349  1.0000
  C   C454      1.0  0.44864  0.75667  0.85802  1.0000
  H   H797      1.0  0.49264  0.72514  0.84441  1.0000
  H   H798      1.0  0.42532  0.75050  0.86302  1.0000
  H   H799      1.0  0.55899  0.78878  0.70550  1.0000
  H   H800      1.0  0.50590  0.70104  0.53747  1.0000
  H   H801      1.0  0.34589  0.78792  0.62452  1.0000
  H   H802      1.0  0.42247  0.70131  0.60890  1.0000
  H   H803      1.0  0.59482  0.80504  0.98632  1.0000
  H   H804      1.0  0.51731  0.72068  0.95806  1.0000
  H   H805      1.0  0.51140  0.72908  0.91302  1.0000
  Fe  Fe56      1.0  0.62816  0.85687  0.78830  1.0000
  H   H806      1.0  0.63194  0.88244  0.94807  1.0000
  H   H807      1.0  0.44654  0.79266  0.62782  1.0000
  C   C455      1.0  0.55595  0.85124  0.56352  1.0000
  H   H808      1.0  0.56678  0.76103  0.68615  1.0000
  S   S109      1.0  0.60885  0.78485  0.54120  1.0000
  H   H809      1.0  0.42756  0.77529  0.92214  1.0000
  S   S110      1.0  0.60203  0.88156  0.78828  1.0000
  Fe  Fe57      1.0  0.58062  0.85535  0.83881  1.0000
  S   S111      1.0  0.52978  0.83458  0.85008  1.0000
  S   S112      1.0  0.60484  0.82908  0.83706  1.0000
  C   C456      1.0  0.50198  0.79569  0.85075  1.0000
  C   C457      1.0  0.50946  0.77310  0.84609  1.0000
  C   C458      1.0  0.48664  0.74247  0.84780  1.0000
  C   C459      1.0  0.47148  0.78726  0.85678  1.0000
  H   H810      1.0  0.53279  0.77922  0.84121  1.0000
  H   H811      1.0  0.46552  0.80456  0.86077  1.0000
  C   C460      1.0  0.52228  0.70545  0.55952  1.0000
  H   H812      1.0  0.51518  0.73278  0.66166  1.0000
  H   H813      1.0  0.50481  0.75747  0.68321  1.0000
  H   H814      1.0  0.63924  0.78663  0.88770  1.0000
  H   H815      1.0  0.56888  0.82664  0.59870  1.0000
  H   H816      1.0  0.56019  0.81237  0.55377  1.0000
  C   C461      1.0  0.52365  0.75643  0.66971  1.0000
  H   H817      1.0  0.40851  0.71871  0.57826  1.0000
  H   H818      1.0  0.47180  0.82616  0.73872  1.0000
  H   H819      1.0  0.52978  0.83259  0.76765  1.0000
  C   C462      1.0  0.43038  0.77435  0.69986  1.0000
  H   H820      1.0  0.46169  0.71700  0.77430  1.0000
  H   H821      1.0  0.47594  0.73125  0.62991  1.0000
  N   N24       1.0  0.43716  0.77886  0.73950  1.0000
  H   H822      1.0  0.42100  0.69292  0.77393  1.0000
  H   H823      1.0  0.46122  0.73171  0.56382  1.0000
  C   C463      1.0  0.39073  0.79564  0.81040  1.0000
  H   H824      1.0  0.42023  0.80991  0.74625  1.0000
  C   C464      1.0  0.63036  0.83983  0.69770  1.0000
  C   C465      1.0  0.41532  0.78735  0.75587  1.0000
  H   H825      1.0  0.52704  0.84939  0.72617  1.0000
  H   H826      1.0  0.39170  0.77118  0.74718  1.0000
  H   H827      1.0  0.50611  0.79369  0.56214  1.0000
  H   H828      1.0  0.40731  0.73541  0.76443  1.0000
  H   H829      1.0  0.49343  0.70681  0.60010  1.0000
  H   H830      1.0  0.46827  0.71693  0.97632  1.0000
  C   C466      1.0  0.55286  0.82144  0.57617  1.0000
  H   H831      1.0  0.49296  0.79815  0.70135  1.0000
  H   H832      1.0  0.54447  0.82627  0.72684  1.0000
  C   C467      1.0  0.41527  0.78908  0.79734  1.0000
  H   H833      1.0  0.62047  0.79653  0.67748  1.0000
  H   H834      1.0  0.62434  0.92973  0.94073  1.0000
  C   C468      1.0  0.52246  0.76600  0.95083  1.0000
  H   H835      1.0  0.44461  0.75451  0.78214  1.0000
  H   H836      1.0  0.45794  0.76422  0.57461  1.0000
  H   H837      1.0  0.54014  0.84750  0.54110  1.0000
  C   C469      1.0  0.57054  0.78678  0.98595  1.0000
  C   C470      1.0  0.46899  0.80407  0.74712  1.0000
  C   C471      1.0  0.43192  0.80139  0.67917  1.0000
  N   N25       1.0  0.38419  0.74369  0.97698  1.0000
  C   C472      1.0  0.43845  0.72853  0.73363  1.0000
  C   C473      1.0  0.64431  0.87815  0.96847  1.0000
  H   H838      1.0  0.44369  0.68920  0.73958  1.0000
  N   N26       1.0  0.55683  0.78485  0.94952  1.0000
  C   C474      1.0  0.56930  0.77268  0.92155  1.0000
  C   C475      1.0  0.34456  0.76491  0.90153  1.0000
  C   C476      1.0  0.56495  0.81642  0.93844  1.0000
  C   C477      1.0  0.46623  0.80742  0.95175  1.0000
  H   H839      1.0  0.57783  0.74779  0.98141  1.0000
  C   C478      1.0  0.60422  0.78936  0.91755  1.0000
  C   C479      1.0  0.55377  0.83268  0.96418  1.0000
  H   H840      1.0  0.36879  0.69234  0.92909  1.0000
  H   H841      1.0  0.41998  0.73384  0.62262  1.0000
  Fe  Fe58      1.0  0.64202  0.86713  0.86852  1.0000
  C   C480      1.0  0.61423  0.77320  0.89126  1.0000
  C   C481      1.0  0.55761  0.86170  0.94783  1.0000
  H   H842      1.0  0.55958  0.77284  0.89483  1.0000
  H   H843      1.0  0.56235  0.74880  0.92683  1.0000
  H   H844      1.0  0.47685  0.76583  0.63622  1.0000
  C   C482      1.0  0.34262  0.71941  0.63796  1.0000
  H   H845      1.0  0.55610  0.81617  0.91102  1.0000
  H   H846      1.0  0.58990  0.83137  0.93659  1.0000
  S   S113      1.0  0.63069  0.82929  0.74249  1.0000
  H   H847      1.0  0.47709  0.81020  0.97834  1.0000
  Fe  Fe59      1.0  0.33511  0.68066  0.79125  1.0000
  C   C483      1.0  0.63244  0.85590  0.62516  1.0000
  H   H848      1.0  0.61224  0.81212  0.90684  1.0000
  H   H849      1.0  0.61578  0.79127  0.94339  1.0000
  H   H850      1.0  0.46359  0.69145  0.94035  1.0000
  H   H851      1.0  0.62903  0.96653  0.94947  1.0000
  H   H852      1.0  0.32121  0.74559  0.90541  1.0000
  C   C484      1.0  0.39325  0.67348  0.95394  1.0000
  C   C485      1.0  0.43165  0.74971  0.75665  1.0000
  H   H853      1.0  0.42777  0.81442  0.62501  1.0000
  H   H854      1.0  0.55777  0.78225  0.62937  1.0000
  C   C486      1.0  0.33802  0.70358  0.70052  1.0000
  C   C487      1.0  0.42775  0.79523  0.63893  1.0000
  C   C488      1.0  0.32457  0.66716  0.65255  1.0000
  H   H855      1.0  0.60825  0.75056  0.90161  1.0000
  H   H856      1.0  0.60341  0.77079  0.86470  1.0000
  H   H857      1.0  0.58181  0.87755  0.94179  1.0000
  H   H858      1.0  0.54407  0.85687  0.92294  1.0000
  H   H859      1.0  0.54968  0.87277  0.96708  1.0000
  S   S114      1.0  0.61609  0.89155  0.87413  1.0000
  H   H860      1.0  0.44574  0.76834  0.68588  1.0000
  H   H861      1.0  0.55125  0.86258  0.58587  1.0000
  C   C489      1.0  0.52590  0.82905  0.73834  1.0000
  H   H862      1.0  0.46287  0.72542  0.93063  1.0000
  C   C490      1.0  0.50775  0.73197  0.94173  1.0000
  H   H863      1.0  0.41258  0.67968  0.97235  1.0000
  H   H864      1.0  0.40575  0.77454  0.63333  1.0000
  H   H865      1.0  0.40717  0.75467  0.69576  1.0000
  H   H866      1.0  0.45961  0.74083  0.71804  1.0000
  C   C491      1.0  0.47353  0.71556  0.94778  1.0000
  C   C492      1.0  0.44136  0.70554  0.75683  1.0000
  H   H867      1.0  0.51156  0.81073  0.60500  1.0000
  H   H868      1.0  0.41954  0.71599  0.71438  1.0000
  C   C493      1.0  0.45740  0.74388  0.58586  1.0000
  H   H869      1.0  0.51203  0.77478  0.93139  1.0000
  H   H870      1.0  0.41066  0.76759  0.80982  1.0000
  S   S115      1.0  0.32575  0.67978  0.58101  1.0000
  H   H871      1.0  0.53331  0.72475  0.61181  1.0000
  H   H872      1.0  0.54626  0.76603  0.57042  1.0000
  H   H873      1.0  0.51389  0.76780  0.97759  1.0000
  H   H874      1.0  0.47332  0.80626  0.77647  1.0000
  H   H875      1.0  0.53945  0.80047  0.64862  1.0000
  H   H876      1.0  0.43735  0.80746  0.80727  1.0000
  H   H877      1.0  0.34813  0.73691  0.61830  1.0000
  H   H878      1.0  0.51918  0.68352  0.56896  1.0000
  H   H879      1.0  0.39356  0.81661  0.79798  1.0000
  H   H880      1.0  0.32182  0.65639  0.70895  1.0000
  H   H881      1.0  0.45409  0.82220  0.68326  1.0000
  H   H882      1.0  0.50935  0.74960  0.55298  1.0000
  H   H883      1.0  0.41348  0.80552  0.68793  1.0000
  H   H884      1.0  0.49593  0.78168  0.74320  1.0000
  C   C494      1.0  0.49522  0.80100  0.73078  1.0000
  C   C495      1.0  0.42523  0.72323  0.59995  1.0000
  H   H885      1.0  0.39248  0.79871  0.83987  1.0000
  C   C496      1.0  0.54876  0.76480  0.69733  1.0000
  N   N27       1.0  0.51432  0.76995  0.60495  1.0000
  C   C497      1.0  0.48135  0.75253  0.61613  1.0000
  C   C498      1.0  0.53500  0.77847  0.63734  1.0000
  C   C499      1.0  0.51959  0.79871  0.58718  1.0000
  C   C500      1.0  0.52198  0.75275  0.57825  1.0000
  C   C501      1.0  0.51690  0.72172  0.59043  1.0000
  H   H886      1.0  0.62006  0.95103  0.90494  1.0000
  C   C502      1.0  0.34557  0.72626  0.67472  1.0000
  Fe  Fe60      1.0  0.33634  0.71381  0.53645  1.0000
  C   C503      1.0  0.43754  0.77652  0.94886  1.0000
  H   H887      1.0  0.44471  0.75942  0.95080  1.0000
  H   H888      1.0  0.37228  0.65526  0.96651  1.0000
  H   H889      1.0  0.57948  0.86645  0.55396  1.0000
  C   C504      1.0  0.63627  0.86874  0.68857  1.0000
  C   C505      1.0  0.36514  0.74409  0.00786  1.0000
  H   H890      1.0  0.39743  0.66461  0.92877  1.0000
  H   H891      1.0  0.52951  0.81825  0.97112  1.0000
  H   H892      1.0  0.62054  0.81031  0.61371  1.0000
  C   C506      1.0  0.64093  0.88334  0.00466  1.0000
  C   C507      1.0  0.62531  0.82669  0.63444  1.0000
  C   C508      1.0  0.62489  0.81886  0.67053  1.0000
  H   H893      1.0  0.40910  0.71668  0.92892  1.0000
  H   H894      1.0  0.63777  0.68305  0.60939  1.0000
  C   C509      1.0  0.36792  0.74280  0.94280  1.0000
  H   H895      1.0  0.46076  0.82567  0.94773  1.0000
  H   H896      1.0  0.48271  0.80969  0.93076  1.0000
  H   H897      1.0  0.37967  0.74075  0.91892  1.0000
  H   H898      1.0  0.35126  0.77390  0.95744  1.0000
  H   H899      1.0  0.34016  0.81327  0.59649  1.0000
  Fe  Fe61      1.0  0.63350  0.83521  0.53629  1.0000
  H   H900      1.0  0.56719  0.83898  0.98935  1.0000
  C   C510      1.0  0.63754  0.87681  0.65231  1.0000
  H   H901      1.0  0.64057  0.88507  0.70936  1.0000
  C   C511      1.0  0.38671  0.71553  0.98045  1.0000
  H   H902      1.0  0.35325  0.74913  0.68321  1.0000
  H   H903      1.0  0.55942  0.79372  0.00646  1.0000
  C   C512      1.0  0.41496  0.77172  0.97931  1.0000
  H   H904      1.0  0.42654  0.77171  0.00453  1.0000
  C   C513      1.0  0.33021  0.79655  0.61858  1.0000
  C   C514      1.0  0.56849  0.75756  0.00052  1.0000
  H   H905      1.0  0.40584  0.71971  0.99850  1.0000
  S   S116      1.0  0.63581  0.86698  0.57995  1.0000
  H   H906      1.0  0.64284  0.89943  0.64527  1.0000
  H   H907      1.0  0.36608  0.69729  0.99358  1.0000
  H   H908      1.0  0.32801  0.80808  0.64257  1.0000
  H   H909      1.0  0.62639  0.76684  0.61658  1.0000
  H   H910      1.0  0.41256  0.79212  0.98098  1.0000
  H   H911      1.0  0.63217  0.73798  0.63588  1.0000
  H   H912      1.0  0.38574  0.79090  0.93133  1.0000
  H   H913      1.0  0.64609  0.75174  0.59157  1.0000
  C   C515      1.0  0.64255  0.75834  0.61857  1.0000
  C   C516      1.0  0.36348  0.77012  0.93536  1.0000
  S   S117      1.0  0.34030  0.71292  0.74633  1.0000
  H   H914      1.0  0.34514  0.72220  0.94267  1.0000
  H   H915      1.0  0.35498  0.76003  0.87830  1.0000
  H   H916      1.0  0.34298  0.78529  0.89541  1.0000
  H   H917      1.0  0.34097  0.72621  0.00409  1.0000
  H   H918      1.0  0.31871  0.64415  0.94737  1.0000
  Fe  Fe62      1.0  0.64718  0.78696  0.50847  1.0000
  H   H919      1.0  0.54455  0.74071  0.00661  1.0000
  Fe  Fe63      1.0  0.83600  0.21557  0.49713  1.0000
  S   S118      1.0  0.86068  0.26591  0.49196  1.0000
  S   S119      1.0  0.81084  0.18244  0.45245  1.0000
  H   H920      1.0  0.86917  0.13706  0.47123  1.0000
  H   H921      1.0  0.75850  0.15448  0.02129  1.0000
  H   H922      1.0  0.84750  0.14389  0.14793  1.0000
  Fe  Fe64      1.0  0.80209  0.18286  0.16250  1.0000
  S   S120      1.0  0.75134  0.15690  0.15854  1.0000
  S   S121      1.0  0.83506  0.19271  0.11669  1.0000
  Fe  Fe65      1.0  0.80078  0.19191  0.24332  1.0000
  S   S122      1.0  0.74978  0.16584  0.24523  1.0000
  S   S123      1.0  0.83239  0.21961  0.28844  1.0000
  Fe  Fe66      1.0  0.75359  0.13294  0.20819  1.0000
  S   S124      1.0  0.72261  0.08170  0.21181  1.0000
  Fe  Fe67      1.0  0.75229  0.19212  0.19561  1.0000
  S   S125      1.0  0.72094  0.21164  0.18744  1.0000
  S   S126      1.0  0.80454  0.15724  0.21016  1.0000
  S   S127      1.0  0.80296  0.21984  0.19561  1.0000
  C   C517      1.0  0.81019  0.10689  0.04027  1.0000
  S   S128      1.0  0.68989  0.35495  0.41703  1.0000
  Fe  Fe68      1.0  0.73269  0.37264  0.16742  1.0000
  S   S129      1.0  0.68173  0.34697  0.16602  1.0000
  S   S130      1.0  0.76262  0.35106  0.16817  1.0000
  Fe  Fe69      1.0  0.73548  0.43423  0.17421  1.0000
  S   S131      1.0  0.68501  0.41243  0.17370  1.0000
  H   H923      1.0  0.87184  0.18726  0.30382  1.0000
  Fe  Fe70      1.0  0.68500  0.37785  0.21067  1.0000
  Fe  Fe71      1.0  0.68646  0.38388  0.12904  1.0000
  S   S132      1.0  0.73570  0.40146  0.21455  1.0000
  S   S133      1.0  0.73742  0.40783  0.12703  1.0000
  H   H924      1.0  0.72404  0.29449  0.24160  1.0000
  H   H925      1.0  0.89952  0.21563  0.27466  1.0000
  H   H926      1.0  0.85488  0.16281  0.47304  1.0000
  H   H927      1.0  0.70086  0.36945  0.04896  1.0000
  H   H928      1.0  0.70709  0.48085  0.16794  1.0000
  C   C518      1.0  0.70099  0.37026  0.34623  1.0000
  C   C519      1.0  0.69294  0.37179  0.31060  1.0000
  H   H929      1.0  0.77267  0.34577  0.29575  1.0000
  H   H930      1.0  0.72469  0.38073  0.35354  1.0000
  H   H931      1.0  0.71038  0.38332  0.29062  1.0000
  H   H932      1.0  0.85397  0.34066  0.42076  1.0000
  H   H933      1.0  0.77429  0.34513  0.24732  1.0000
  C   C520      1.0  0.71088  0.02367  0.20108  1.0000
  C   C521      1.0  0.73343  0.05391  0.20652  1.0000
  C   C522      1.0  0.76382  0.06121  0.20717  1.0000
  C   C523      1.0  0.77161  0.03877  0.20104  1.0000
  C   C524      1.0  0.75731  0.24828  0.37941  1.0000
  H   H934      1.0  0.68727  0.01771  0.20077  1.0000
  H   H935      1.0  0.78127  0.08418  0.21237  1.0000
  H   H936      1.0  0.79524  0.04478  0.20115  1.0000
  C   C525      1.0  0.73303  0.25050  0.18186  1.0000
  C   C526      1.0  0.71170  0.25901  0.17189  1.0000
  C   C527      1.0  0.72031  0.28964  0.16761  1.0000
  C   C528      1.0  0.75047  0.31216  0.17322  1.0000
  C   C529      1.0  0.77184  0.30360  0.18276  1.0000
  C   C530      1.0  0.76319  0.27300  0.18722  1.0000
  H   H937      1.0  0.68836  0.24178  0.16728  1.0000
  H   H938      1.0  0.70373  0.29583  0.15959  1.0000
  H   H939      1.0  0.79525  0.32082  0.18698  1.0000
  H   H940      1.0  0.77987  0.26687  0.19497  1.0000
  C   C531      1.0  0.82247  0.18347  0.07214  1.0000
  C   C532      1.0  0.79180  0.17067  0.06358  1.0000
  C   C533      1.0  0.84358  0.18921  0.04473  1.0000
  H   H941      1.0  0.77545  0.16595  0.08457  1.0000
  H   H942      1.0  0.86739  0.19909  0.05125  1.0000
  H   H943      1.0  0.75419  0.27944  0.45920  1.0000
  C   C534      1.0  0.74063  0.04577  0.31604  1.0000
  H   H944      1.0  0.67401  0.31411  0.24982  1.0000
  H   H945      1.0  0.83667  0.10189  0.10605  1.0000
  H   H946      1.0  0.69192  0.47390  0.36272  1.0000
  H   H947      1.0  0.81532  0.07480  0.14037  1.0000
  H   H948      1.0  0.76295  0.11020  0.06986  1.0000
  C   C535      1.0  0.81583  0.19332  0.40705  1.0000
  C   C536      1.0  0.80019  0.17150  0.38061  1.0000
  C   C537      1.0  0.80453  0.17931  0.34408  1.0000
  C   C538      1.0  0.82490  0.20898  0.33384  1.0000
  C   C539      1.0  0.84029  0.23084  0.36031  1.0000
  C   C540      1.0  0.83546  0.22314  0.39681  1.0000
  H   H949      1.0  0.78480  0.14839  0.38841  1.0000
  H   H950      1.0  0.79253  0.16232  0.32387  1.0000
  H   H951      1.0  0.85587  0.25388  0.35248  1.0000
  H   H952      1.0  0.84722  0.24016  0.41700  1.0000
  N   N28       1.0  0.77895  0.24617  0.06540  1.0000
  C   C541      1.0  0.79090  0.24874  0.10304  1.0000
  C   C542      1.0  0.75064  0.21577  0.06116  1.0000
  C   C543      1.0  0.67466  0.24816  0.26464  1.0000
  C   C544      1.0  0.77285  0.27130  0.05550  1.0000
  C   C545      1.0  0.76259  0.28469  0.08613  1.0000
  C   C546      1.0  0.82166  0.27776  0.11130  1.0000
  C   C547      1.0  0.68499  0.36831  0.02889  1.0000
  C   C548      1.0  0.72284  0.20974  0.08407  1.0000
  C   C549      1.0  0.69776  0.17675  0.08159  1.0000
  H   H953      1.0  0.67425  0.41969  0.31191  1.0000
  C   C550      1.0  0.84835  0.27197  0.11374  1.0000
  H   H954      1.0  0.69583  0.24248  0.31355  1.0000
  H   H955      1.0  0.79285  0.22854  0.10981  1.0000
  H   H956      1.0  0.77453  0.24799  0.12310  1.0000
  H   H957      1.0  0.70860  0.16638  0.47410  1.0000
  H   H958      1.0  0.75593  0.19760  0.06685  1.0000
  C   C551      1.0  0.69162  0.45303  0.35432  1.0000
  H   H959      1.0  0.79344  0.29080  0.04369  1.0000
  C   C552      1.0  0.78229  0.16411  0.02778  1.0000
  H   H960      1.0  0.73133  0.29260  0.05414  1.0000
  H   H961      1.0  0.78179  0.29834  0.10446  1.0000
  H   H962      1.0  0.74404  0.26708  0.10238  1.0000
  H   H963      1.0  0.82713  0.29602  0.09165  1.0000
  H   H964      1.0  0.81985  0.28675  0.13772  1.0000
  H   H965      1.0  0.79529  0.11287  0.02485  1.0000
  H   H966      1.0  0.80963  0.23058  0.04902  1.0000
  H   H967      1.0  0.72865  0.21454  0.11263  1.0000
  H   H968      1.0  0.71327  0.22372  0.07429  1.0000
  H   H969      1.0  0.70580  0.16179  0.09255  1.0000
  N   N29       1.0  0.68306  0.28033  0.27257  1.0000
  H   H970      1.0  0.69041  0.17044  0.05339  1.0000
  C   C553      1.0  0.67499  0.28481  0.31019  1.0000
  H   H971      1.0  0.77517  0.06077  0.03848  1.0000
  H   H972      1.0  0.77645  0.48476  0.06614  1.0000
  H   H973      1.0  0.85159  0.26265  0.08846  1.0000
  H   H974      1.0  0.86952  0.29343  0.11958  1.0000
  H   H975      1.0  0.84464  0.25589  0.13576  1.0000
  H   H976      1.0  0.97112  0.23838  0.35258  1.0000
  H   H977      1.0  0.97709  0.27247  0.37441  1.0000
  H   H978      1.0  0.67653  0.40875  0.37762  1.0000
  C   C554      1.0  0.66033  0.37157  0.03893  1.0000
  H   H979      1.0  0.72177  0.12034  0.08457  1.0000
  C   C555      1.0  0.81823  0.30087  0.44768  1.0000
  C   C556      1.0  0.70722  0.09611  0.09135  1.0000
  N   N30       1.0  0.76877  0.26095  0.41626  1.0000
  C   C557      1.0  0.73212  0.20960  0.44680  1.0000
  H   H980      1.0  0.77413  0.48194  0.30616  1.0000
  H   H981      1.0  0.67252  0.44172  0.08332  1.0000
  C   C558      1.0  0.71700  0.29966  0.26759  1.0000
  C   C559      1.0  0.75618  0.04579  0.10787  1.0000
  H   H982      1.0  0.77225  0.21450  0.37923  1.0000
  C   C560      1.0  0.70752  0.99060  0.30054  1.0000
  C   C561      1.0  0.89205  0.17534  0.43532  1.0000
  C   C562      1.0  0.72043  0.26705  0.41737  1.0000
  C   C563      1.0  0.70617  0.45769  0.04039  1.0000
  H   H983      1.0  0.73251  0.23228  0.37972  1.0000
  N   N31       1.0  0.91957  0.22615  0.40037  1.0000
  H   H984      1.0  0.75303  0.05089  0.29016  1.0000
  C   C564      1.0  0.89656  0.20285  0.29982  1.0000
  C   C565      1.0  0.69329  0.23633  0.28479  1.0000
  H   H985      1.0  0.71889  0.26807  0.38780  1.0000
  H   H986      1.0  0.74225  0.21229  0.03314  1.0000
  C   C566      1.0  0.90981  0.22478  0.33118  1.0000
  H   H987      1.0  0.80685  0.29955  0.39140  1.0000
  H   H988      1.0  0.87935  0.19525  0.37047  1.0000
  H   H989      1.0  0.87875  0.20933  0.43258  1.0000
  H   H990      1.0  0.77143  0.24650  0.46994  1.0000
  C   C567      1.0  0.75364  0.27826  0.42939  1.0000
  C   C568      1.0  0.71866  0.00121  0.19502  1.0000
  H   H991      1.0  0.75551  0.26368  0.03384  1.0000
  H   H992      1.0  0.67621  0.28956  0.21793  1.0000
  H   H993      1.0  0.69055  0.09405  0.11196  1.0000
  H   H994      1.0  0.82372  0.26951  0.04143  1.0000
  H   H995      1.0  0.73840  0.07379  0.05380  1.0000
  H   H996      1.0  0.91106  0.19004  0.36359  1.0000
  C   C569      1.0  0.73023  0.01341  0.32782  1.0000
  H   H997      1.0  0.72167  0.34048  0.29277  1.0000
  H   H998      1.0  0.69014  0.43894  0.40954  1.0000
  C   C570      1.0  0.84045  0.12081  0.15774  1.0000
  H   H999      1.0  0.80052  0.12263  0.11083  1.0000
  H   H1000     1.0  0.78008  0.09607  0.14436  1.0000
  H   H1001     1.0  0.73731  0.09547  0.13108  1.0000
  H   H1002     1.0  0.82735  0.11656  0.18287  1.0000
  H   H1003     1.0  0.86119  0.11962  0.16381  1.0000
  C   C571      1.0  0.73314  0.02015  0.08326  1.0000
  C   C572      1.0  0.79292  0.09902  0.11917  1.0000
  C   C573      1.0  0.82161  0.09732  0.12946  1.0000
  C   C574      1.0  0.72638  0.08321  0.10609  1.0000
  H   H1004     1.0  0.76057  0.26680  0.36095  1.0000
  H   H1005     1.0  0.97906  0.21990  0.50509  1.0000
  H   H1006     1.0  0.73228  0.19761  0.33344  1.0000
  C   C575      1.0  0.87579  0.16125  0.47049  1.0000
  H   H1007     1.0  0.71540  0.45799  0.35173  1.0000
  C   C576      1.0  0.79057  0.07620  0.05947  1.0000
  C   C577      1.0  0.75045  0.08625  0.07838  1.0000
  H   H1008     1.0  0.90822  0.18957  0.29688  1.0000
  H   H1009     1.0  0.71096  0.28869  0.46195  1.0000
  C   C578      1.0  0.73011  0.33419  0.26891  1.0000
  C   C579      1.0  0.67858  0.35546  0.37252  1.0000
  H   H1010     1.0  0.77342  0.37578  0.26965  1.0000
  H   H1011     1.0  0.77262  0.03886  0.11692  1.0000
  C   C580      1.0  0.76475  0.35113  0.27056  1.0000
  N   N32       1.0  0.77256  0.07679  0.09118  1.0000
  H   H1012     1.0  0.72920  0.29438  0.28855  1.0000
  H   H1013     1.0  0.91854  0.26567  0.45519  1.0000
  H   H1014     1.0  0.76775  0.20573  0.31373  1.0000
  H   H1015     1.0  0.82365  0.12541  0.05929  1.0000
  H   H1016     1.0  0.74426  0.04597  0.13269  1.0000
  C   C581      1.0  0.80271  0.24708  0.04033  1.0000
  C   C582      1.0  0.90456  0.20764  0.36721  1.0000
  H   H1017     1.0  0.72366  0.34193  0.24441  1.0000
  H   H1018     1.0  0.78014  0.22805  0.43635  1.0000
  H   H1019     1.0  0.71065  0.05922  0.11297  1.0000
  H   H1020     1.0  0.75464  0.23217  0.30811  1.0000
  H   H1021     1.0  0.71632  0.24616  0.27279  1.0000
  C   C583      1.0  0.90047  0.20896  0.43241  1.0000
  H   H1022     1.0  0.71721  0.02598  0.07020  1.0000
  H   H1023     1.0  0.69465  0.08359  0.06709  1.0000
  C   C584      1.0  0.85166  0.32358  0.44077  1.0000
  C   C585      1.0  0.77233  0.23182  0.36134  1.0000
  C   C586      1.0  0.80243  0.28292  0.41318  1.0000
  H   H1024     1.0  0.93323  0.26931  0.37489  1.0000
  C   C587      1.0  0.66240  0.35852  0.30102  1.0000
  H   H1025     1.0  0.89678  0.25163  0.39391  1.0000
  H   H1026     1.0  0.75614  0.06183  0.33646  1.0000
  C   C588      1.0  0.76457  0.23681  0.44268  1.0000
  C   C589      1.0  0.74914  0.00873  0.19438  1.0000
  H   H1027     1.0  0.72455  0.44460  0.25091  1.0000
  C   C590      1.0  0.75560  0.21595  0.32708  1.0000
  C   C591      1.0  0.71897  0.47721  0.28277  1.0000
  H   H1028     1.0  0.81485  0.27102  0.40555  1.0000
  H   H1029     1.0  0.79606  0.24824  0.35367  1.0000
  H   H1030     1.0  0.72135  0.31010  0.42088  1.0000
  H   H1031     1.0  0.81734  0.28545  0.46905  1.0000
  C   C592      1.0  0.97565  0.25039  0.37850  1.0000
  C   C593      1.0  0.76611  0.47234  0.27907  1.0000
  H   H1032     1.0  0.86374  0.31196  0.43099  1.0000
  C   C594      1.0  0.67833  0.20208  0.28161  1.0000
  C   C595      1.0  0.92012  0.25582  0.39834  1.0000
  H   H1033     1.0  0.71731  0.21681  0.46000  1.0000
  H   H1034     1.0  0.72215  0.19891  0.42079  1.0000
  N   N33       1.0  0.68505  0.46244  0.28739  1.0000
  H   H1035     1.0  0.72309  0.43758  0.29825  1.0000
  H   H1036     1.0  0.95948  0.23984  0.43311  1.0000
  H   H1037     1.0  0.71701  0.99852  0.27325  1.0000
  C   C596      1.0  0.95091  0.23048  0.40597  1.0000
  C   C597      1.0  0.66788  0.29026  0.24530  1.0000
  H   H1038     1.0  0.80744  0.31352  0.45806  1.0000
  C   C598      1.0  0.73147  0.45544  0.27754  1.0000
  C   C599      1.0  0.66992  0.44505  0.25384  1.0000
  H   H1039     1.0  0.86252  0.33533  0.46615  1.0000
  C   C600      1.0  0.73220  0.18523  0.47042  1.0000
  C   C601      1.0  0.67691  0.42997  0.38446  1.0000
  H   H1040     1.0  0.91242  0.17285  0.43429  1.0000
  H   H1041     1.0  0.76655  0.30214  0.42007  1.0000
  H   H1042     1.0  0.71910  0.01007  0.35425  1.0000
  H   H1043     1.0  0.69271  0.19425  0.29469  1.0000
  H   H1044     1.0  0.69414  0.29067  0.32903  1.0000
  H   H1045     1.0  0.80511  0.06656  0.06722  1.0000
  H   H1046     1.0  0.70492  0.24362  0.42617  1.0000
  H   H1047     1.0  0.71127  0.45857  0.09821  1.0000
  C   C602      1.0  0.93319  0.30621  0.42531  1.0000
  H   H1048     1.0  0.68435  0.27720  0.42588  1.0000
  H   H1049     1.0  0.89813  0.23819  0.33157  1.0000
  H   H1050     1.0  0.67396  0.42574  0.25085  1.0000
  H   H1051     1.0  0.94224  0.32059  0.44950  1.0000
  H   H1052     1.0  0.93410  0.24038  0.32569  1.0000
  C   C603      1.0  0.93291  0.27657  0.43139  1.0000
  H   H1053     1.0  0.72092  0.04931  0.31291  1.0000
  H   H1054     1.0  0.74562  0.01554  0.06236  1.0000
  H   H1055     1.0  0.67173  0.30476  0.31101  1.0000
  H   H1056     1.0  0.68035  0.45917  0.22960  1.0000
  H   H1057     1.0  0.90982  0.30189  0.42040  1.0000
  C   C604      1.0  0.69604  0.46023  0.07814  1.0000
  H   H1058     1.0  0.87657  0.16183  0.41330  1.0000
  H   H1059     1.0  0.91220  0.21997  0.45780  1.0000
  H   H1060     1.0  0.75088  0.01154  0.33060  1.0000
  H   H1061     1.0  0.74532  0.31539  0.09378  1.0000
  H   H1062     1.0  0.74576  0.17619  0.45774  1.0000
  H   H1063     1.0  0.67791  0.17328  0.09768  1.0000
  H   H1064     1.0  0.94792  0.31867  0.40222  1.0000
  C   C605      1.0  0.70872  0.28704  0.43247  1.0000
  H   H1065     1.0  0.89097  0.17270  0.49360  1.0000
  C   C606      1.0  0.75164  0.30543  0.07133  1.0000
  H   H1066     1.0  0.95015  0.20846  0.40573  1.0000
  Fe  Fe72      1.0  0.65755  0.32789  0.46207  1.0000
  H   H1067     1.0  0.74189  0.19439  0.49718  1.0000
  H   H1068     1.0  0.77448  0.45653  0.27307  1.0000
  H   H1069     1.0  0.95652  0.28207  0.43712  1.0000
  H   H1070     1.0  0.68726  0.99336  0.30181  1.0000
  C   C607      1.0  0.67408  0.44076  0.31863  1.0000
  S   S134      1.0  0.76607  0.48523  0.18002  1.0000
  H   H1071     1.0  0.69950  0.99367  0.12380  1.0000
  C   C608      1.0  0.83249  0.10552  0.01406  1.0000
  H   H1072     1.0  0.67751  0.24553  0.23553  1.0000
  H   H1073     1.0  0.70791  0.43694  0.03944  1.0000
  S   S135      1.0  0.65436  0.37804  0.08375  1.0000
  H   H1074     1.0  0.76987  0.32415  0.05560  1.0000
  H   H1075     1.0  0.84970  0.10241  0.02876  1.0000
  H   H1076     1.0  0.66351  0.43274  0.01275  1.0000
  H   H1077     1.0  0.67569  0.19532  0.25298  1.0000
  H   H1078     1.0  0.67459  0.47100  0.02046  1.0000
  C   C609      1.0  0.71406  0.99084  0.10391  1.0000
  H   H1079     1.0  0.69697  0.48218  0.08168  1.0000
  H   H1080     1.0  0.65331  0.42495  0.38937  1.0000
  H   H1081     1.0  0.75524  0.98872  0.26800  1.0000
  H   H1082     1.0  0.65249  0.24052  0.33647  1.0000
  H   H1083     1.0  0.72920  0.47707  0.03623  1.0000
  H   H1084     1.0  0.65561  0.28196  0.37861  1.0000
  H   H1085     1.0  0.65572  0.19082  0.29476  1.0000
  C   C610      1.0  0.68336  0.45609  0.01148  1.0000
  C   C611      1.0  0.67717  0.48671  0.29445  1.0000
  C   C612      1.0  0.83403  0.18220  0.00890  1.0000
  H   H1086     1.0  0.65296  0.47660  0.30257  1.0000
  Fe  Fe73      1.0  0.84906  0.21808  0.57752  1.0000
  S   S136      1.0  0.87366  0.26861  0.57820  1.0000
  S   S137      1.0  0.85007  0.18964  0.62342  1.0000
  Fe  Fe74      1.0  0.83568  0.26412  0.54257  1.0000
  C   C613      1.0  0.72320  0.24138  0.53420  1.0000
  S   S138      1.0  0.80924  0.21357  0.54603  1.0000
  H   H1087     1.0  0.93973  0.20233  0.78762  1.0000
  H   H1088     1.0  0.94354  0.22452  0.99027  1.0000
  C   C614      1.0  0.75203  0.10779  0.76489  1.0000
  H   H1089     1.0  0.84357  0.24819  0.83312  1.0000
  H   H1090     1.0  0.70318  0.32709  0.76704  1.0000
  H   H1091     1.0  0.74753  0.45885  0.62081  1.0000
  C   C615      1.0  0.74966  0.47002  0.74852  1.0000
  H   H1092     1.0  0.75767  0.07888  0.96602  1.0000
  H   H1093     1.0  0.94214  0.25026  0.58563  1.0000
  C   C616      1.0  0.70439  0.31797  0.71054  1.0000
  H   H1094     1.0  0.77161  0.47708  0.73468  1.0000
  S   S139      1.0  0.67311  0.38818  0.82957  1.0000
  Fe  Fe75      1.0  0.82486  0.17400  0.82785  1.0000
  S   S140      1.0  0.85183  0.15076  0.82048  1.0000
  S   S141      1.0  0.81281  0.19640  0.78348  1.0000
  Fe  Fe76      1.0  0.81833  0.16184  0.90860  1.0000
  S   S142      1.0  0.84577  0.13852  0.90684  1.0000
  S   S143      1.0  0.79015  0.16147  0.95589  1.0000
  Fe  Fe77      1.0  0.87691  0.17644  0.86970  1.0000
  S   S144      1.0  0.92850  0.19832  0.86869  1.0000
  Fe  Fe78      1.0  0.81799  0.11527  0.85785  1.0000
  S   S145      1.0  0.79842  0.06486  0.84838  1.0000
  S   S146      1.0  0.85145  0.20152  0.87533  1.0000
  S   S147      1.0  0.78920  0.13670  0.86138  1.0000
  Fe  Fe79      1.0  0.89613  0.26538  0.52787  1.0000
  H   H1095     1.0  0.71128  0.99544  0.75022  1.0000
  C   C617      1.0  0.75174  0.00888  0.82951  1.0000
  C   C618      1.0  0.75969  0.03828  0.83989  1.0000
  C   C619      1.0  0.73673  0.04552  0.84369  1.0000
  C   C620      1.0  0.70615  0.02340  0.83769  1.0000
  H   H1096     1.0  0.72242  0.46081  0.83956  1.0000
  H   H1097     1.0  0.94113  0.23583  0.51730  1.0000
  H   H1098     1.0  0.74245  0.06805  0.85152  1.0000
  H   H1099     1.0  0.68854  0.02916  0.84088  1.0000
  C   C621      1.0  0.95453  0.23756  0.86552  1.0000
  C   C622      1.0  0.94623  0.25903  0.87400  1.0000
  C   C623      1.0  0.76599  0.30265  0.53657  1.0000
  H   H1100     1.0  0.92325  0.25174  0.88247  1.0000
  H   H1101     1.0  0.85041  0.18670  0.98791  1.0000
  H   H1102     1.0  0.83745  0.27355  0.97747  1.0000
  H   H1103     1.0  0.92619  0.28789  0.64254  1.0000
  C   C624      1.0  0.80333  0.16981  0.00034  1.0000
  H   H1104     1.0  0.68137  0.27369  0.66622  1.0000
  H   H1105     1.0  0.89400  0.25466  0.66063  1.0000
  C   C625      1.0  0.76088  0.13226  0.68879  1.0000
  N   N34       1.0  0.69540  0.46392  0.97357  1.0000
  S   S148      1.0  0.67388  0.35528  0.92146  1.0000
  H   H1106     1.0  0.73623  0.46063  0.97616  1.0000
  H   H1107     1.0  0.71185  0.30150  0.71619  1.0000
  H   H1108     1.0  0.70669  0.21755  0.53344  1.0000
  C   C626      1.0  0.94826  0.22038  0.96247  1.0000
  H   H1109     1.0  0.69117  0.26079  0.60358  1.0000
  H   H1110     1.0  0.82050  0.08676  0.99479  1.0000
  C   C627      1.0  0.66828  0.36150  0.96654  1.0000
  C   C628      1.0  0.84109  0.19351  0.66785  1.0000
  C   C629      1.0  0.84650  0.17779  0.69492  1.0000
  C   C630      1.0  0.83837  0.17901  0.73049  1.0000
  C   C631      1.0  0.82463  0.19584  0.73931  1.0000
  C   C632      1.0  0.81962  0.21199  0.71235  1.0000
  C   C633      1.0  0.82793  0.21094  0.67667  1.0000
  H   H1111     1.0  0.85668  0.16427  0.68822  1.0000
  H   H1112     1.0  0.84228  0.16644  0.75090  1.0000
  H   H1113     1.0  0.80894  0.22506  0.71899  1.0000
  H   H1114     1.0  0.82363  0.22309  0.65590  1.0000
  C   C634      1.0  0.72826  0.48420  0.83861  1.0000
  H   H1115     1.0  0.68092  0.99836  0.72900  1.0000
  C   C635      1.0  0.97323  0.28319  0.51176  1.0000
  C   C636      1.0  0.69712  0.45946  0.73694  1.0000
  H   H1116     1.0  0.65394  0.42813  0.95116  1.0000
  H   H1117     1.0  0.75852  0.07645  0.91770  1.0000
  C   C637      1.0  0.71748  0.33512  0.67475  1.0000
  C   C638      1.0  0.68881  0.36308  0.99279  1.0000
  H   H1118     1.0  0.96139  0.30643  0.87961  1.0000
  C   C639      1.0  0.68285  0.28780  0.64294  1.0000
  C   C640      1.0  0.72661  0.03322  0.71316  1.0000
  H   H1119     1.0  0.75528  0.09797  0.78996  1.0000
  H   H1120     1.0  0.75590  0.48260  0.77421  1.0000
  H   H1121     1.0  0.85256  0.28639  0.84079  1.0000
  C   C641      1.0  0.72490  0.44279  0.63215  1.0000
  C   C642      1.0  0.72359  0.11101  0.77083  1.0000
  C   C643      1.0  0.72605  0.12765  0.80566  1.0000
  H   H1122     1.0  0.74881  0.29971  0.68926  1.0000
  H   H1123     1.0  0.77774  0.43508  0.75935  1.0000
  H   H1124     1.0  0.89800  0.29139  0.66765  1.0000
  H   H1125     1.0  0.87576  0.27287  0.86082  1.0000
  H   H1126     1.0  0.79658  0.09453  0.78240  1.0000
  H   H1127     1.0  0.72098  0.12405  0.74877  1.0000
  H   H1128     1.0  0.70264  0.08869  0.77241  1.0000
  H   H1129     1.0  0.72655  0.11445  0.82900  1.0000
  H   H1130     1.0  0.74687  0.15024  0.80568  1.0000
  H   H1131     1.0  0.70607  0.13075  0.80850  1.0000
  C   C644      1.0  0.77568  0.28150  0.54080  1.0000
  H   H1132     1.0  0.70598  0.34869  0.67140  1.0000
  H   H1133     1.0  0.78358  0.13688  0.67985  1.0000
  N   N35       1.0  0.71311  0.31657  0.64142  1.0000
  C   C645      1.0  0.71274  0.33469  0.60954  1.0000
  C   C646      1.0  0.73898  0.31051  0.63598  1.0000
  C   C647      1.0  0.74160  0.28883  0.66269  1.0000
  H   H1134     1.0  0.74814  0.40687  0.78716  1.0000
  C   C648      1.0  0.73966  0.36768  0.60707  1.0000
  C   C649      1.0  0.76566  0.28127  0.65022  1.0000
  C   C650      1.0  0.73894  0.38271  0.57203  1.0000
  H   H1135     1.0  0.74200  0.35168  0.67879  1.0000
  H   H1136     1.0  0.69141  0.33578  0.60927  1.0000
  H   H1137     1.0  0.71270  0.32349  0.58405  1.0000
  H   H1138     1.0  0.73804  0.30165  0.60852  1.0000
  H   H1139     1.0  0.76112  0.33181  0.63722  1.0000
  H   H1140     1.0  0.70576  0.35623  0.73790  1.0000
  H   H1141     1.0  0.91286  0.17671  0.75550  1.0000
  H   H1142     1.0  0.77760  0.21621  0.99616  1.0000
  H   H1143     1.0  0.67485  0.46253  0.68768  1.0000
  H   H1144     1.0  0.76185  0.36862  0.60820  1.0000
  H   H1145     1.0  0.73872  0.38157  0.62924  1.0000
  H   H1146     1.0  0.75914  0.26934  0.62407  1.0000
  H   H1147     1.0  0.78811  0.30208  0.64730  1.0000
  H   H1148     1.0  0.76782  0.26632  0.67012  1.0000
  H   H1149     1.0  0.75758  0.40655  0.57176  1.0000
  H   H1150     1.0  0.74212  0.37101  0.54887  1.0000
  H   H1151     1.0  0.71708  0.38240  0.56910  1.0000
  N   N36       1.0  0.92191  0.27319  0.76855  1.0000
  C   C651      1.0  0.93513  0.25256  0.76890  1.0000
  C   C652      1.0  0.94607  0.30505  0.77829  1.0000
  C   C653      1.0  0.89737  0.26205  0.79683  1.0000
  C   C654      1.0  0.90745  0.27260  0.73308  1.0000
  C   C655      1.0  0.92845  0.28233  0.69998  1.0000
  C   C656      1.0  0.91298  0.21891  0.76044  1.0000
  C   C657      1.0  0.88280  0.28204  0.80347  1.0000
  N   N37       1.0  0.73011  0.47845  0.72629  1.0000
  H   H1152     1.0  0.74150  0.08553  0.67616  1.0000
  C   C658      1.0  0.91049  0.27882  0.66574  1.0000
  C   C659      1.0  0.92938  0.20080  0.76094  1.0000
  C   C660      1.0  0.86249  0.27166  0.83662  1.0000
  H   H1153     1.0  0.94539  0.25361  0.79558  1.0000
  H   H1154     1.0  0.95399  0.26004  0.74946  1.0000
  H   H1155     1.0  0.94006  0.32162  0.76731  1.0000
  H   H1156     1.0  0.94718  0.30821  0.80792  1.0000
  H   H1157     1.0  0.90636  0.25915  0.82278  1.0000
  H   H1158     1.0  0.87814  0.23944  0.78985  1.0000
  H   H1159     1.0  0.88754  0.24986  0.72794  1.0000
  H   H1160     1.0  0.89791  0.28793  0.73374  1.0000
  H   H1161     1.0  0.93960  0.26862  0.69699  1.0000
  H   H1162     1.0  0.94591  0.30651  0.70207  1.0000
  H   H1163     1.0  0.89458  0.20857  0.78059  1.0000
  H   H1164     1.0  0.90296  0.21640  0.73344  1.0000
  H   H1165     1.0  0.86835  0.28054  0.78039  1.0000
  H   H1166     1.0  0.90007  0.30605  0.80761  1.0000
  H   H1167     1.0  0.73633  0.00057  0.00416  1.0000
  H   H1168     1.0  0.76137  0.44992  0.92528  1.0000
  H   H1169     1.0  0.72005  0.26716  0.66535  1.0000
  H   H1170     1.0  0.92593  0.21376  0.60659  1.0000
  N   N38       1.0  0.75088  0.08918  0.73299  1.0000
  C   C661      1.0  0.74679  0.14026  0.65759  1.0000
  H   H1171     1.0  0.97838  0.23019  0.59280  1.0000
  S   S149      1.0  0.66652  0.46346  0.83232  1.0000
  H   H1172     1.0  0.93968  0.23107  0.94347  1.0000
  H   H1173     1.0  0.71917  0.03690  0.68666  1.0000
  C   C662      1.0  0.72825  0.01802  0.94491  1.0000
  H   H1174     1.0  0.84252  0.11309  0.74418  1.0000
  H   H1175     1.0  0.73731  0.42302  0.89202  1.0000
  H   H1176     1.0  0.72812  0.30977  0.52706  1.0000
  H   H1177     1.0  0.78252  0.32647  0.53736  1.0000
  C   C663      1.0  0.71376  0.33984  0.74204  1.0000
  H   H1178     1.0  0.79276  0.08988  0.94312  1.0000
  H   H1179     1.0  0.76933  0.00309  0.82620  1.0000
  H   H1180     1.0  0.70204  0.42550  0.97933  1.0000
  C   C664      1.0  0.75914  0.43075  0.77824  1.0000
  H   H1181     1.0  0.76395  0.14767  0.71119  1.0000
  H   H1182     1.0  0.94736  0.20916  0.74011  1.0000
  C   C665      1.0  0.66846  0.45311  0.94881  1.0000
  S   S150      1.0  0.65346  0.36386  0.58694  1.0000
  H   H1183     1.0  0.73264  0.04990  0.76760  1.0000
  H   H1184     1.0  0.77220  0.13088  0.76347  1.0000
  H   H1185     1.0  0.72067  0.02126  0.91819  1.0000
  H   H1186     1.0  0.70495  0.05311  0.74275  1.0000
  C   C666      1.0  0.97450  0.24206  0.61523  1.0000
  C   C667      1.0  0.72826  0.05653  0.74086  1.0000
  H   H1187     1.0  0.70294  0.42687  0.68262  1.0000
  C   C668      1.0  0.76273  0.04145  0.94623  1.0000
  H   H1188     1.0  0.68871  0.43509  0.73351  1.0000
  H   H1189     1.0  0.67380  0.99024  0.91060  1.0000
  H   H1190     1.0  0.77333  0.04008  0.97154  1.0000
  H   H1191     1.0  0.71836  0.41967  0.62314  1.0000
  S   S151      1.0  0.87333  0.21513  0.52879  1.0000
  H   H1192     1.0  0.72436  0.13722  0.66531  1.0000
  H   H1193     1.0  0.70776  0.44820  0.62155  1.0000
  C   C669      1.0  0.71439  0.43988  0.92560  1.0000
  C   C670      1.0  0.74105  0.09860  0.69963  1.0000
  H   H1194     1.0  0.67551  0.45735  0.92031  1.0000
  H   H1195     1.0  0.83534  0.08068  0.77049  1.0000
  H   H1196     1.0  0.77485  0.03810  0.92362  1.0000
  H   H1197     1.0  0.71698  0.09304  0.70195  1.0000
  C   C671      1.0  0.79488  0.08252  0.75711  1.0000
  H   H1198     1.0  0.79880  0.11810  0.72350  1.0000
  C   C672      1.0  0.67392  0.26736  0.60953  1.0000
  H   H1199     1.0  0.81391  0.24224  0.94856  1.0000
  H   H1200     1.0  0.74886  0.03446  0.70998  1.0000
  H   H1201     1.0  0.72582  0.42072  0.73732  1.0000
  H   H1202     1.0  0.74409  0.12602  0.63392  1.0000
  C   C673      1.0  0.73831  0.43059  0.92009  1.0000
  H   H1203     1.0  0.73400  0.41161  0.93817  1.0000
  C   C674      1.0  0.71271  0.44771  0.96539  1.0000
  C   C675      1.0  0.78218  0.09375  0.72680  1.0000
  H   H1204     1.0  0.76193  0.16423  0.64994  1.0000
  H   H1205     1.0  0.69209  0.42072  0.91721  1.0000
  H   H1206     1.0  0.71726  0.43087  0.77977  1.0000
  H   H1207     1.0  0.78289  0.25355  0.99068  1.0000
  H   H1208     1.0  0.93633  0.24645  0.63354  1.0000
  H   H1209     1.0  0.78319  0.08330  0.70113  1.0000
  H   H1210     1.0  0.67917  0.30554  0.70967  1.0000
  C   C676      1.0  0.72564  0.44400  0.67304  1.0000
  C   C677      1.0  0.82671  0.08857  0.74804  1.0000
  H   H1211     1.0  0.71980  0.45881  0.90731  1.0000
  H   H1212     1.0  0.82628  0.07628  0.72339  1.0000
  C   C678      1.0  0.96792  0.29001  0.87251  1.0000
  H   H1213     1.0  0.97410  0.23106  0.64093  1.0000
  H   H1214     1.0  0.76877  0.44542  0.80213  1.0000
  C   C679      1.0  0.94290  0.23805  0.60986  1.0000
  H   H1215     1.0  0.73879  0.35221  0.74542  1.0000
  H   H1216     1.0  0.74250  0.43769  0.68210  1.0000
  H   H1217     1.0  0.93571  0.19569  0.95751  1.0000
  H   H1218     1.0  0.78033  0.05796  0.76176  1.0000
  S   S152      1.0  0.68241  0.33001  0.51274  1.0000
  C   C680      1.0  0.69817  0.99382  0.82797  1.0000
  C   C681      1.0  0.76807  0.07352  0.94314  1.0000
  S   S153      1.0  0.67443  0.24940  0.52189  1.0000
  H   H1219     1.0  0.98134  0.31029  0.73909  1.0000
  C   C682      1.0  0.73563  0.43651  0.76004  1.0000
  H   H1220     1.0  0.71676  0.02499  0.96501  1.0000
  C   C683      1.0  0.97935  0.31547  0.76734  1.0000
  C   C684      1.0  0.75407  0.25080  0.53981  1.0000
  S   S154      1.0  0.81479  0.29435  0.54754  1.0000
  H   H1221     1.0  0.70771  0.36022  0.98516  1.0000
  C   C685      1.0  0.71353  0.26249  0.52952  1.0000
  C   C686      1.0  0.73512  0.29323  0.53085  1.0000
  C   C687      1.0  0.70378  0.00107  0.72491  1.0000
  H   H1222     1.0  0.83311  0.23675  0.98573  1.0000
  H   H1223     1.0  0.76113  0.23430  0.54359  1.0000
  H   H1224     1.0  0.66460  0.29321  0.64736  1.0000
  C   C688      1.0  0.96444  0.25258  0.51171  1.0000
  H   H1225     1.0  0.84442  0.12700  0.99877  1.0000
  S   S155      1.0  0.94724  0.29585  0.52100  1.0000
  H   H1226     1.0  0.69468  0.46220  0.76608  1.0000
  H   H1227     1.0  0.65710  0.39706  0.65029  1.0000
  H   H1228     1.0  0.72288  0.48504  0.67064  1.0000
  C   C689      1.0  0.73479  0.47589  0.68686  1.0000
  C   C690      1.0  0.79368  0.24063  0.00025  1.0000
  C   C691      1.0  0.82132  0.24889  0.97668  1.0000
  C   C692      1.0  0.67430  0.46599  0.71691  1.0000
  H   H1229     1.0  0.67133  0.27905  0.58597  1.0000
  Fe  Fe80      1.0  0.65399  0.27983  0.51335  1.0000
  H   H1230     1.0  0.75533  0.98964  0.91610  1.0000
  C   C693      1.0  0.98226  0.23276  0.95710  1.0000
  C   C694      1.0  0.98467  0.24745  0.85537  1.0000
  H   H1231     1.0  0.75756  0.98797  0.97935  1.0000
  Fe  Fe81      1.0  0.82806  0.71336  0.48703  1.0000
  S   S156      1.0  0.85201  0.76399  0.48700  1.0000
  S   S157      1.0  0.80704  0.68110  0.44030  1.0000
  C   C695      1.0  0.72109  0.79860  0.27996  1.0000
  C   C696      1.0  0.94884  0.71971  0.37537  1.0000
  H   H1232     1.0  0.69914  0.87873  0.28391  1.0000
  Fe  Fe82      1.0  0.80058  0.68635  0.14963  1.0000
  S   S158      1.0  0.75027  0.65871  0.14230  1.0000
  S   S159      1.0  0.83492  0.69963  0.10479  1.0000
  Fe  Fe83      1.0  0.79490  0.69167  0.23058  1.0000
  S   S160      1.0  0.74412  0.66326  0.22874  1.0000
  S   S161      1.0  0.82191  0.72096  0.27741  1.0000
  Fe  Fe84      1.0  0.75193  0.63344  0.19091  1.0000
  S   S162      1.0  0.72237  0.58213  0.18932  1.0000
  Fe  Fe85      1.0  0.74756  0.69124  0.18047  1.0000
  S   S163      1.0  0.71545  0.70986  0.17333  1.0000
  S   S164      1.0  0.80274  0.65984  0.19649  1.0000
  S   S165      1.0  0.79784  0.72080  0.18395  1.0000
  H   H1233     1.0  0.74677  0.79448  0.23644  1.0000
  H   H1234     1.0  0.77579  0.53101  0.04586  1.0000
  Fe  Fe86      1.0  0.72489  0.87003  0.16089  1.0000
  H   H1235     1.0  0.91836  0.76202  0.11028  1.0000
  S   S166      1.0  0.75496  0.84875  0.15553  1.0000
  Fe  Fe87      1.0  0.72822  0.93122  0.17521  1.0000
  Fe  Fe88      1.0  0.67570  0.87216  0.20428  1.0000
  H   H1236     1.0  0.73456  0.95101  0.24987  1.0000
  S   S167      1.0  0.76026  0.98175  0.18424  1.0000
  C   C697      1.0  0.85906  0.64497  0.14239  1.0000
  S   S168      1.0  0.72622  0.89481  0.21132  1.0000
  S   S169      1.0  0.73171  0.90868  0.12511  1.0000
  S   S170      1.0  0.67780  0.91016  0.17187  1.0000
  H   H1237     1.0  0.98118  0.77734  0.01313  1.0000
  H   H1238     1.0  0.67619  0.91751  0.27275  1.0000
  H   H1239     1.0  0.69031  0.86482  0.04218  1.0000
  H   H1240     1.0  0.69958  0.77756  0.27390  1.0000
  C   C698      1.0  0.88556  0.68499  0.44712  1.0000
  H   H1241     1.0  0.76166  0.80230  0.02872  1.0000
  H   H1242     1.0  0.94028  0.75740  0.43397  1.0000
  H   H1243     1.0  0.71288  0.88433  0.34839  1.0000
  H   H1244     1.0  0.94720  0.72472  0.01020  1.0000
  C   C699      1.0  0.75329  0.51165  0.18308  1.0000
  C   C700      1.0  0.69485  0.68575  0.28016  1.0000
  C   C701      1.0  0.71419  0.52555  0.17779  1.0000
  C   C702      1.0  0.73496  0.55553  0.18731  1.0000
  C   C703      1.0  0.76499  0.56346  0.19473  1.0000
  C   C704      1.0  0.77405  0.54162  0.19261  1.0000
  C   C705      1.0  0.67739  0.86846  0.02176  1.0000
  H   H1245     1.0  0.69093  0.51920  0.17188  1.0000
  H   H1246     1.0  0.78115  0.58636  0.20239  1.0000
  H   H1247     1.0  0.79731  0.54796  0.19850  1.0000
  C   C706      1.0  0.72692  0.74866  0.16952  1.0000
  C   C707      1.0  0.70486  0.75749  0.17046  1.0000
  C   C708      1.0  0.71304  0.78804  0.16665  1.0000
  C   C709      1.0  0.74345  0.81010  0.16157  1.0000
  C   C710      1.0  0.76551  0.80124  0.16063  1.0000
  C   C711      1.0  0.75733  0.77073  0.16465  1.0000
  H   H1248     1.0  0.68124  0.74060  0.17409  1.0000
  H   H1249     1.0  0.69579  0.79447  0.16734  1.0000
  H   H1250     1.0  0.78910  0.81813  0.15676  1.0000
  H   H1251     1.0  0.77455  0.76429  0.16385  1.0000
  C   C712      1.0  0.82301  0.68706  0.06075  1.0000
  C   C713      1.0  0.79237  0.67202  0.05134  1.0000
  C   C714      1.0  0.72626  0.71375  0.27656  1.0000
  H   H1252     1.0  0.77530  0.66737  0.07135  1.0000
  H   H1253     1.0  0.82124  0.56998  0.02281  1.0000
  H   H1254     1.0  0.79809  0.55444  0.12224  1.0000
  S   S171      1.0  0.67403  0.84530  0.15576  1.0000
  H   H1255     1.0  0.88923  0.75525  0.07826  1.0000
  H   H1256     1.0  0.85334  0.60840  0.11006  1.0000
  H   H1257     1.0  0.79625  0.50382  0.10624  1.0000
  H   H1258     1.0  0.85175  0.63138  0.16740  1.0000
  C   C715      1.0  0.92352  0.76582  0.01667  1.0000
  C   C716      1.0  0.80854  0.69282  0.39547  1.0000
  C   C717      1.0  0.79471  0.67091  0.36863  1.0000
  C   C718      1.0  0.79745  0.67926  0.33232  1.0000
  C   C719      1.0  0.81461  0.70962  0.32263  1.0000
  C   C720      1.0  0.82796  0.73159  0.34950  1.0000
  C   C721      1.0  0.82456  0.72327  0.38583  1.0000
  H   H1259     1.0  0.78218  0.64731  0.37594  1.0000
  H   H1260     1.0  0.78716  0.66218  0.31182  1.0000
  H   H1261     1.0  0.84124  0.75513  0.34215  1.0000
  H   H1262     1.0  0.83504  0.74034  0.40629  1.0000
  C   C722      1.0  0.71916  0.82452  0.26222  1.0000
  C   C723      1.0  0.74467  0.71787  0.07288  1.0000
  C   C724      1.0  0.79001  0.76916  0.07511  1.0000
  H   H1263     1.0  0.80211  0.60128  0.13803  1.0000
  H   H1264     1.0  0.76882  0.77682  0.39419  1.0000
  H   H1265     1.0  0.86870  0.64795  0.31443  1.0000
  C   C725      1.0  0.80840  0.75418  0.08799  1.0000
  C   C726      1.0  0.83957  0.77766  0.10215  1.0000
  C   C727      1.0  0.65749  0.87860  0.03145  1.0000
  H   H1266     1.0  0.77584  0.49081  0.25896  1.0000
  H   H1267     1.0  0.74220  0.71925  0.10236  1.0000
  H   H1268     1.0  0.75890  0.70727  0.06983  1.0000
  H   H1269     1.0  0.80519  0.62779  0.10520  1.0000
  H   H1270     1.0  0.78661  0.77916  0.09984  1.0000
  C   C728      1.0  0.84517  0.62473  0.10970  1.0000
  H   H1271     1.0  0.69870  0.66529  0.10427  1.0000
  H   H1272     1.0  0.75678  0.51660  0.08807  1.0000
  H   H1273     1.0  0.85444  0.67024  0.29369  1.0000
  H   H1274     1.0  0.79625  0.73835  0.11030  1.0000
  H   H1275     1.0  0.80478  0.61828  0.04400  1.0000
  H   H1276     1.0  0.88422  0.65723  0.37891  1.0000
  H   H1277     1.0  0.83719  0.79069  0.12441  1.0000
  H   H1278     1.0  0.85157  0.76615  0.11260  1.0000
  H   H1279     1.0  0.68472  0.68540  0.30661  1.0000
  H   H1280     1.0  0.85410  0.63917  0.08547  1.0000
  C   C729      1.0  0.68931  0.87132  0.34046  1.0000
  H   H1281     1.0  0.67098  0.49720  0.23858  1.0000
  H   H1282     1.0  0.74033  0.96509  0.33032  1.0000
  H   H1283     1.0  0.89251  0.77651  0.42096  1.0000
  H   H1284     1.0  0.87337  0.72146  0.40894  1.0000
  H   H1285     1.0  0.66422  0.95417  0.34271  1.0000
  C   C730      1.0  0.73932  0.76212  0.06401  1.0000
  H   H1286     1.0  0.84799  0.60440  0.04427  1.0000
  H   H1287     1.0  0.68574  0.93626  0.43069  1.0000
  N   N39       1.0  0.89806  0.69761  0.41050  1.0000
  H   H1288     1.0  0.90355  0.65432  0.45644  1.0000
  C   C731      1.0  0.77926  0.52807  0.07458  1.0000
  H   H1289     1.0  0.69736  0.95174  0.02060  1.0000
  C   C732      1.0  0.75952  0.57108  0.09056  1.0000
  C   C733      1.0  0.67920  0.94438  0.33848  1.0000
  H   H1290     1.0  0.69903  0.97258  0.08521  1.0000
  H   H1291     1.0  0.71613  0.65492  0.06890  1.0000
  C   C734      1.0  0.74824  0.59408  0.08871  1.0000
  C   C735      1.0  0.80034  0.59469  0.04592  1.0000
  C   C736      1.0  0.87760  0.67470  0.38298  1.0000
  C   C737      1.0  0.71360  0.57824  0.08797  1.0000
  H   H1292     1.0  0.71829  0.92946  0.31058  1.0000
  H   H1293     1.0  0.71197  0.74268  0.25437  1.0000
  H   H1294     1.0  0.75285  0.55989  0.11721  1.0000
  H   H1295     1.0  0.74592  0.55321  0.07066  1.0000
  H   H1296     1.0  0.83391  0.64557  0.33033  1.0000
  H   H1297     1.0  0.68547  0.54498  0.29663  1.0000
  C   C738      1.0  0.84490  0.69288  0.03443  1.0000
  H   H1298     1.0  0.73099  0.49250  0.30563  1.0000
  N   N40       1.0  0.79307  0.58361  0.08422  1.0000
  C   C739      1.0  0.67973  0.94081  0.27319  1.0000
  H   H1299     1.0  0.75696  0.60840  0.06447  1.0000
  H   H1300     1.0  0.75584  0.60864  0.11281  1.0000
  C   C740      1.0  0.91409  0.76786  0.08306  1.0000
  S   S172      1.0  0.65259  0.88582  0.07644  1.0000
  H   H1301     1.0  0.70598  0.93179  0.37321  1.0000
  C   C741      1.0  0.72585  0.95370  0.30678  1.0000
  H   H1302     1.0  0.67964  0.68526  0.25849  1.0000
  C   C742      1.0  0.72912  0.80585  0.06146  1.0000
  H   H1303     1.0  0.70384  0.56335  0.11173  1.0000
  H   H1304     1.0  0.70628  0.59533  0.08857  1.0000
  H   H1305     1.0  0.70461  0.56461  0.06323  1.0000
  N   N41       1.0  0.75399  0.77258  0.28195  1.0000
  C   C743      1.0  0.77828  0.77126  0.26011  1.0000
  C   C744      1.0  0.72440  0.74301  0.27918  1.0000
  C   C745      1.0  0.74909  0.79704  0.26608  1.0000
  C   C746      1.0  0.76345  0.78065  0.32049  1.0000
  C   C747      1.0  0.77090  0.75917  0.34170  1.0000
  C   C748      1.0  0.80926  0.80090  0.25746  1.0000
  H   H1306     1.0  0.69625  0.70241  0.06366  1.0000
  H   H1307     1.0  0.92785  0.78975  0.39703  1.0000
  C   C749      1.0  0.69573  0.94651  0.37426  1.0000
  C   C750      1.0  0.78458  0.77234  0.37826  1.0000
  C   C751      1.0  0.83176  0.79649  0.23487  1.0000
  H   H1308     1.0  0.76989  0.76404  0.23240  1.0000
  H   H1309     1.0  0.78307  0.75369  0.27019  1.0000
  H   H1310     1.0  0.70920  0.74057  0.30196  1.0000
  C   C752      1.0  0.78376  0.66329  0.01568  1.0000
  H   H1311     1.0  0.76910  0.81971  0.27107  1.0000
  H   H1312     1.0  0.78326  0.80388  0.32237  1.0000
  H   H1313     1.0  0.74519  0.78137  0.33595  1.0000
  H   H1314     1.0  0.78743  0.75485  0.32749  1.0000
  H   H1315     1.0  0.74977  0.73749  0.34680  1.0000
  H   H1316     1.0  0.80684  0.81900  0.24432  1.0000
  H   H1317     1.0  0.81939  0.80857  0.28439  1.0000
  H   H1318     1.0  0.72235  0.80237  0.30927  1.0000
  H   H1319     1.0  0.73537  0.71280  0.24992  1.0000
  C   C753      1.0  0.70083  0.66400  0.07479  1.0000
  H   H1320     1.0  0.85368  0.66231  0.39294  1.0000
  C   C754      1.0  0.67354  0.93558  0.40572  1.0000
  H   H1321     1.0  0.73975  0.83062  0.05778  1.0000
  H   H1322     1.0  0.72647  0.49202  0.25870  1.0000
  H   H1323     1.0  0.80660  0.79360  0.37509  1.0000
  H   H1324     1.0  0.83615  0.77932  0.24719  1.0000
  H   H1325     1.0  0.82286  0.78927  0.20732  1.0000
  H   H1326     1.0  0.85363  0.81805  0.23312  1.0000
  C   C755      1.0  0.80001  0.55884  0.09284  1.0000
  H   H1327     1.0  0.73170  0.75830  0.09249  1.0000
  H   H1328     1.0  0.73942  0.84653  0.26887  1.0000
  H   H1329     1.0  0.92956  0.68091  0.40932  1.0000
  S   S173      1.0  0.67715  0.86466  0.41231  1.0000
  H   H1330     1.0  0.82379  0.56558  0.08633  1.0000
  H   H1331     1.0  0.77190  0.81015  0.07514  1.0000
  H   H1332     1.0  0.93995  0.70509  0.35143  1.0000
  H   H1333     1.0  0.85216  0.66231  0.14367  1.0000
  H   H1334     1.0  0.74731  0.97018  0.05286  1.0000
  H   H1335     1.0  0.69187  0.95158  0.24790  1.0000
  H   H1336     1.0  0.92314  0.73527  0.05921  1.0000
  C   C756      1.0  0.81010  0.60924  0.11023  1.0000
  H   H1337     1.0  0.88420  0.65663  0.14074  1.0000
  N   N42       1.0  0.69857  0.95790  0.30537  1.0000
  H   H1338     1.0  0.90058  0.70029  0.46837  1.0000
  H   H1339     1.0  0.92801  0.79824  0.44388  1.0000
  C   C757      1.0  0.68158  0.86824  0.30395  1.0000
  H   H1340     1.0  0.69865  0.82474  0.27192  1.0000
  H   H1341     1.0  0.71745  0.82180  0.23267  1.0000
  H   H1342     1.0  0.89833  0.75368  0.01362  1.0000
  H   H1343     1.0  0.86322  0.69970  0.34801  1.0000
  N   N43       1.0  0.75984  0.74919  0.05692  1.0000
  Fe  Fe89      1.0  0.68081  0.88551  0.12363  1.0000
  C   C758      1.0  0.87522  0.68672  0.34561  1.0000
  C   C759      1.0  0.77441  0.96061  0.27905  1.0000
  C   C760      1.0  0.67294  0.53149  0.27284  1.0000
  H   H1344     1.0  0.71825  0.75026  0.04772  1.0000
  H   H1345     1.0  0.89768  0.70172  0.33355  1.0000
  H   H1346     1.0  0.70110  0.97825  0.18987  1.0000
  C   C761      1.0  0.91631  0.75204  0.43324  1.0000
  H   H1347     1.0  0.81178  0.74125  0.06666  1.0000
  H   H1348     1.0  0.90662  0.74572  0.46053  1.0000
  H   H1349     1.0  0.69034  0.50072  0.31765  1.0000
  H   H1350     1.0  0.92228  0.79242  0.08216  1.0000
  C   C762      1.0  0.91613  0.78085  0.42301  1.0000
  C   C763      1.0  0.89720  0.72647  0.40635  1.0000
  H   H1351     1.0  0.80495  0.78870  0.05766  1.0000
  C   C764      1.0  0.75299  0.79637  0.05646  1.0000
  H   H1352     1.0  0.86314  0.68348  0.45084  1.0000
  H   H1353     1.0  0.78871  0.75602  0.39333  1.0000
  H   H1354     1.0  0.90444  0.73622  0.37921  1.0000
  H   H1355     1.0  0.85347  0.79331  0.08042  1.0000
  H   H1356     1.0  0.86846  0.70400  0.04201  1.0000
  H   H1357     1.0  0.67802  0.64815  0.06379  1.0000
  C   C765      1.0  0.71293  0.69509  0.05777  1.0000
  H   H1358     1.0  0.66336  0.95017  0.40924  1.0000
  C   C766      1.0  0.92991  0.70277  0.40866  1.0000
  H   H1359     1.0  0.70785  0.52235  0.25704  1.0000
  H   H1360     1.0  0.66369  0.91965  0.33472  1.0000
  C   C767      1.0  0.82721  0.59367  0.02769  1.0000
  H   H1361     1.0  0.72447  0.92982  0.05040  1.0000
  H   H1362     1.0  0.86645  0.63633  0.43611  1.0000
  C   C768      1.0  0.88135  0.65349  0.45592  1.0000
  H   H1363     1.0  0.94895  0.74109  0.37054  1.0000
  C   C769      1.0  0.73781  0.95067  0.03437  1.0000
  H   H1364     1.0  0.69676  0.66516  0.27794  1.0000
  C   C770      1.0  0.66676  0.85779  0.36679  1.0000
  C   C771      1.0  0.85697  0.66092  0.31952  1.0000
  C   C772      1.0  0.72326  0.50372  0.17565  1.0000
  C   C773      1.0  0.98187  0.72771  0.38001  1.0000
  H   H1365     1.0  0.98014  0.83969  0.46265  1.0000
  H   H1366     1.0  0.77323  0.71123  0.01467  1.0000
  H   H1367     1.0  0.74124  0.71239  0.29698  1.0000
  H   H1368     1.0  0.97268  0.72036  0.50407  1.0000
  H   H1369     1.0  0.84406  0.64078  0.49356  1.0000
  H   H1370     1.0  0.94294  0.71499  0.43299  1.0000
  H   H1371     1.0  0.71936  0.80020  0.08885  1.0000
  H   H1372     1.0  0.72881  0.98376  0.11774  1.0000
  C   C774      1.0  0.93056  0.75943  0.05520  1.0000
  H   H1373     1.0  0.93096  0.79022  0.01618  1.0000
  H   H1374     1.0  0.71055  0.79448  0.04159  1.0000
  H   H1375     1.0  0.75667  0.94939  0.02115  1.0000
  H   H1376     1.0  0.67765  0.54722  0.25007  1.0000
  C   C775      1.0  0.68326  0.50906  0.26320  1.0000
  C   C776      1.0  0.79249  0.50716  0.07767  1.0000
  H   H1377     1.0  0.78864  0.96800  0.25450  1.0000
  H   H1378     1.0  0.71392  0.69241  0.02844  1.0000
  H   H1379     1.0  0.78039  0.58145  0.02817  1.0000
  H   H1380     1.0  0.78836  0.97448  0.30188  1.0000
  H   H1381     1.0  0.71404  0.96969  0.38008  1.0000
  C   C777      1.0  0.86679  0.64268  0.49276  1.0000
  C   C778      1.0  0.76381  0.74882  0.01691  1.0000
  H   H1382     1.0  0.86395  0.62015  0.49860  1.0000
  H   H1383     1.0  0.76712  0.93654  0.28405  1.0000
  H   H1384     1.0  0.65523  0.91191  0.40140  1.0000
  C   C779      1.0  0.74684  0.96455  0.27361  1.0000
  H   H1385     1.0  0.80635  0.74836  0.01045  1.0000
  H   H1386     1.0  0.95516  0.77284  0.06115  1.0000
  H   H1387     1.0  0.81435  0.51666  0.06299  1.0000
  H   H1388     1.0  0.75998  0.65189  0.00847  1.0000
  H   H1389     1.0  0.98036  0.83681  0.41454  1.0000
  H   H1390     1.0  0.98344  0.70700  0.38364  1.0000
  S   S174      1.0  0.67360  0.83746  0.50788  1.0000
  Fe  Fe90      1.0  0.83603  0.71004  0.56797  1.0000
  S   S175      1.0  0.85996  0.76027  0.57396  1.0000
  S   S176      1.0  0.82993  0.67591  0.61063  1.0000
  H   H1391     1.0  0.70384  0.50934  0.98160  1.0000
  C   C780      1.0  0.70476  0.76555  0.52426  1.0000
  C   C781      1.0  0.72355  0.94251  0.91954  1.0000
  H   H1392     1.0  0.70852  0.93288  0.98918  1.0000
  H   H1393     1.0  0.78926  0.75318  0.94956  1.0000
  C   C782      1.0  0.66396  0.86775  0.95875  1.0000
  H   H1394     1.0  0.93667  0.67470  0.79120  1.0000
  C   C783      1.0  0.96886  0.76181  0.72585  1.0000
  H   H1395     1.0  0.78910  0.82574  0.66117  1.0000
  H   H1396     1.0  0.96723  0.80447  0.85833  1.0000
  C   C784      1.0  0.73007  0.51130  0.93499  1.0000
  C   C785      1.0  0.97436  0.78785  0.85995  1.0000
  C   C786      1.0  0.73400  0.93470  0.88492  1.0000
  C   C787      1.0  0.74346  0.63384  0.57582  1.0000
  N   N44       1.0  0.71927  0.98534  0.95067  1.0000
  Fe  Fe91      1.0  0.83326  0.67655  0.81815  1.0000
  S   S177      1.0  0.85976  0.65277  0.81089  1.0000
  S   S178      1.0  0.82767  0.70454  0.77509  1.0000
  Fe  Fe92      1.0  0.82289  0.66130  0.89788  1.0000
  S   S179      1.0  0.84966  0.63737  0.89670  1.0000
  S   S180      1.0  0.79360  0.65970  0.94460  1.0000
  Fe  Fe93      1.0  0.88292  0.67608  0.86197  1.0000
  S   S181      1.0  0.93418  0.69628  0.86619  1.0000
  Fe  Fe94      1.0  0.82400  0.61621  0.84586  1.0000
  S   S182      1.0  0.80593  0.56590  0.83728  1.0000
  S   S183      1.0  0.85819  0.70185  0.86769  1.0000
  S   S184      1.0  0.79556  0.63826  0.84863  1.0000
  H   H1397     1.0  0.98079  0.75170  0.71155  1.0000
  H   H1398     1.0  0.70345  0.88464  0.61756  1.0000
  C   C788      1.0  0.75892  0.50726  0.83986  1.0000
  C   C789      1.0  0.76698  0.53779  0.83808  1.0000
  C   C790      1.0  0.74397  0.54507  0.83568  1.0000
  C   C791      1.0  0.71333  0.52203  0.83443  1.0000
  H   H1399     1.0  0.71548  0.96443  0.81489  1.0000
  C   C792      1.0  0.71594  0.49770  0.97180  1.0000
  H   H1400     1.0  0.74979  0.56844  0.83428  1.0000
  H   H1401     1.0  0.69573  0.52791  0.83217  1.0000
  C   C793      1.0  0.96129  0.73527  0.86292  1.0000
  C   C794      1.0  0.95242  0.75691  0.85992  1.0000
  H   H1402     1.0  0.75864  0.95017  0.88047  1.0000
  H   H1403     1.0  0.92856  0.74971  0.85819  1.0000
  C   C795      1.0  0.68052  0.86298  0.98550  1.0000
  H   H1404     1.0  0.73212  0.85438  0.57241  1.0000
  Fe  Fe95      1.0  0.82414  0.75837  0.53642  1.0000
  H   H1405     1.0  0.69593  0.85511  0.97815  1.0000
  C   C796      1.0  0.93110  0.66710  0.76297  1.0000
  N   N45       1.0  0.93773  0.75774  0.98621  1.0000
  C   C797      1.0  0.98391  0.77276  0.76302  1.0000
  S   S185      1.0  0.79828  0.70781  0.53425  1.0000
  H   H1406     1.0  0.90795  0.71199  0.00467  1.0000
  H   H1407     1.0  0.66934  0.95424  0.89883  1.0000
  H   H1408     1.0  0.97738  0.75390  0.78206  1.0000
  H   H1409     1.0  0.67788  0.97600  0.97736  1.0000
  C   C798      1.0  0.80569  0.66972  0.98915  1.0000
  S   S186      1.0  0.80281  0.78769  0.54726  1.0000
  C   C799      1.0  0.93039  0.79282  0.94176  1.0000
  H   H1410     1.0  0.85337  0.68936  0.97828  1.0000
  C   C800      1.0  0.83161  0.68496  0.65634  1.0000
  C   C801      1.0  0.82780  0.66347  0.68227  1.0000
  C   C802      1.0  0.82749  0.66955  0.71891  1.0000
  C   C803      1.0  0.83050  0.69701  0.72972  1.0000
  C   C804      1.0  0.83484  0.71868  0.70382  1.0000
  C   C805      1.0  0.83581  0.71284  0.66724  1.0000
  H   H1411     1.0  0.82470  0.64190  0.67395  1.0000
  H   H1412     1.0  0.82406  0.65268  0.73870  1.0000
  H   H1413     1.0  0.83745  0.74005  0.71216  1.0000
  H   H1414     1.0  0.83939  0.72966  0.64741  1.0000
  C   C806      1.0  0.72367  0.90355  0.56682  1.0000
  S   S187      1.0  0.66605  0.75563  0.52011  1.0000
  H   H1415     1.0  0.78696  0.52950  0.75295  1.0000
  C   C807      1.0  0.68115  0.68496  0.61511  1.0000
  H   H1416     1.0  0.66922  0.71601  0.58972  1.0000
  H   H1417     1.0  0.74803  0.73148  0.52748  1.0000
  H   H1418     1.0  0.77167  0.56801  0.76507  1.0000
  N   N46       1.0  0.73627  0.69653  0.62767  1.0000
  C   C808      1.0  0.76847  0.72214  0.62321  1.0000
  C   C809      1.0  0.73049  0.67192  0.60126  1.0000
  C   C810      1.0  0.71544  0.70854  0.61793  1.0000
  C   C811      1.0  0.72924  0.68428  0.66551  1.0000
  C   C812      1.0  0.75581  0.68557  0.68759  1.0000
  C   C813      1.0  0.77611  0.75156  0.64341  1.0000
  H   H1419     1.0  0.71260  0.50414  0.91377  1.0000
  C   C814      1.0  0.74967  0.65645  0.60585  1.0000
  H   H1420     1.0  0.66438  0.71295  0.63794  1.0000
  C   C815      1.0  0.74432  0.66727  0.72215  1.0000
  C   C816      1.0  0.81030  0.77262  0.64705  1.0000
  H   H1421     1.0  0.75834  0.62391  0.57934  1.0000
  H   H1422     1.0  0.77342  0.72835  0.59437  1.0000
  H   H1423     1.0  0.78518  0.71537  0.63118  1.0000
  H   H1424     1.0  0.70662  0.65320  0.60292  1.0000
  H   H1425     1.0  0.73381  0.68093  0.57337  1.0000
  H   H1426     1.0  0.72233  0.72064  0.59184  1.0000
  H   H1427     1.0  0.71753  0.72561  0.63784  1.0000
  H   H1428     1.0  0.72064  0.69659  0.68186  1.0000
  H   H1429     1.0  0.71029  0.66047  0.66533  1.0000
  H   H1430     1.0  0.77224  0.70914  0.69525  1.0000
  H   H1431     1.0  0.76856  0.67692  0.67262  1.0000
  H   H1432     1.0  0.76686  0.76383  0.62821  1.0000
  H   H1433     1.0  0.76594  0.74677  0.67057  1.0000
  H   H1434     1.0  0.74492  0.92185  0.57874  1.0000
  Fe  Fe96      1.0  0.88558  0.76129  0.52436  1.0000
  H   H1435     1.0  0.77413  0.67315  0.60539  1.0000
  H   H1436     1.0  0.74381  0.64357  0.63130  1.0000
  H   H1437     1.0  0.92604  0.80424  0.96413  1.0000
  H   H1438     1.0  0.88132  0.65857  0.51395  1.0000
  H   H1439     1.0  0.69479  0.71967  0.51820  1.0000
  H   H1440     1.0  0.72881  0.64307  0.71608  1.0000
  H   H1441     1.0  0.76383  0.66921  0.73769  1.0000
  H   H1442     1.0  0.73232  0.67587  0.73898  1.0000
  C   C817      1.0  0.72776  0.79524  0.53044  1.0000
  H   H1443     1.0  0.82135  0.77804  0.62033  1.0000
  H   H1444     1.0  0.91645  0.81525  0.90314  1.0000
  H   H1445     1.0  0.74701  0.50466  0.92757  1.0000
  H   H1446     1.0  0.70806  0.91241  0.56170  1.0000
  C   C818      1.0  0.71237  0.74268  0.52322  1.0000
  H   H1447     1.0  0.93279  0.73442  0.51149  1.0000
  C   C819      1.0  0.72120  0.98683  0.82336  1.0000
  C   C820      1.0  0.67269  0.78223  0.63467  1.0000
  C   C821      1.0  0.77422  0.53415  0.73218  1.0000
  C   C822      1.0  0.78046  0.56624  0.73852  1.0000
  H   H1448     1.0  0.97477  0.78265  0.71054  1.0000
  H   H1449     1.0  0.72114  0.93618  0.86184  1.0000
  C   C823      1.0  0.70843  0.87663  0.59230  1.0000
  C   C824      1.0  0.71718  0.95302  0.00639  1.0000
  C   C825      1.0  0.76529  0.77879  0.53612  1.0000
  H   H1450     1.0  0.90629  0.65147  0.76051  1.0000
  H   H1451     1.0  0.93196  0.76233  0.79450  1.0000
  C   C826      1.0  0.72868  0.86244  0.59875  1.0000
  H   H1452     1.0  0.81459  0.60031  0.97383  1.0000
  H   H1453     1.0  0.77529  0.82465  0.54227  1.0000
  H   H1454     1.0  0.76972  0.57301  0.71733  1.0000
  N   N47       1.0  0.93497  0.74049  0.72536  1.0000
  C   C827      1.0  0.92582  0.71256  0.74762  1.0000
  C   C828      1.0  0.91804  0.75616  0.73765  1.0000
  C   C829      1.0  0.92564  0.73037  0.68708  1.0000
  S   S188      1.0  0.65937  0.96655  0.82113  1.0000
  C   C830      1.0  0.92813  0.70687  0.95777  1.0000
  C   C831      1.0  0.94132  0.69405  0.73784  1.0000
  C   C832      1.0  0.92850  0.75495  0.66026  1.0000
  C   C833      1.0  0.91152  0.75555  0.77829  1.0000
  C   C834      1.0  0.89939  0.77661  0.78750  1.0000
  H   H1455     1.0  0.69893  0.92659  0.92254  1.0000
  H   H1456     1.0  0.90437  0.66319  0.98464  1.0000
  C   C835      1.0  0.91949  0.74217  0.62242  1.0000
  H   H1457     1.0  0.90075  0.69723  0.74591  1.0000
  H   H1458     1.0  0.93044  0.71802  0.77649  1.0000
  H   H1459     1.0  0.93005  0.78009  0.72855  1.0000
  H   H1460     1.0  0.89518  0.74559  0.72500  1.0000
  H   H1461     1.0  0.90154  0.71165  0.68617  1.0000
  H   H1462     1.0  0.93944  0.72110  0.67564  1.0000
  C   C836      1.0  0.92366  0.76063  0.95185  1.0000
  H   H1463     1.0  0.73197  0.51292  0.76151  1.0000
  C   C837      1.0  0.66672  0.96737  0.92075  1.0000
  C   C838      1.0  0.74254  0.74930  0.52848  1.0000
  H   H1464     1.0  0.93464  0.73395  0.61254  1.0000
  H   H1465     1.0  0.89856  0.74533  0.95282  1.0000
  H   H1466     1.0  0.96635  0.70806  0.74015  1.0000
  H   H1467     1.0  0.91345  0.76388  0.66796  1.0000
  H   H1468     1.0  0.89414  0.73240  0.78664  1.0000
  H   H1469     1.0  0.67337  0.66954  0.63854  1.0000
  H   H1470     1.0  0.87858  0.77059  0.77179  1.0000
  H   H1471     1.0  0.89352  0.77442  0.81640  1.0000
  H   H1472     1.0  0.91682  0.80040  0.78189  1.0000
  H   H1473     1.0  0.68680  0.86001  0.57986  1.0000
  H   H1474     1.0  0.82040  0.76214  0.66396  1.0000
  H   H1475     1.0  0.73616  0.93918  0.94161  1.0000
  H   H1476     1.0  0.79431  0.72092  0.95380  1.0000
  H   H1477     1.0  0.67683  0.94349  0.95986  1.0000
  S   S189      1.0  0.66852  0.86076  0.91352  1.0000
  H   H1478     1.0  0.73540  0.50504  0.99037  1.0000
  H   H1479     1.0  0.92229  0.66343  0.94294  1.0000
  H   H1480     1.0  0.94823  0.71880  0.94030  1.0000
  S   S190      1.0  0.93683  0.79296  0.52163  1.0000
  H   H1481     1.0  0.70204  0.98485  0.70408  1.0000
  C   C839      1.0  0.74696  0.54577  0.93638  1.0000
  H   H1482     1.0  0.93128  0.75291  0.92849  1.0000
  H   H1483     1.0  0.94527  0.67965  0.98225  1.0000
  H   H1484     1.0  0.93543  0.68498  0.71027  1.0000
  H   H1485     1.0  0.95214  0.77401  0.65884  1.0000
  C   C840      1.0  0.73032  0.97542  0.91897  1.0000
  H   H1486     1.0  0.73089  0.55407  0.94138  1.0000
  N   N48       1.0  0.71710  0.83714  0.62584  1.0000
  H   H1487     1.0  0.81493  0.79397  0.65999  1.0000
  C   C841      1.0  0.73921  0.82562  0.62963  1.0000
  C   C842      1.0  0.68761  0.81148  0.61164  1.0000
  C   C843      1.0  0.71059  0.84640  0.66162  1.0000
  C   C844      1.0  0.73641  0.87538  0.67875  1.0000
  H   H1488     1.0  0.89563  0.72336  0.62189  1.0000
  C   C845      1.0  0.68510  0.96757  0.95402  1.0000
  C   C846      1.0  0.77352  0.84890  0.62534  1.0000
  C   C847      1.0  0.79308  0.83475  0.63343  1.0000
  C   C848      1.0  0.72479  0.88437  0.71159  1.0000
  H   H1489     1.0  0.77657  0.50142  0.84182  1.0000
  H   H1490     1.0  0.75128  0.88134  0.60637  1.0000
  H   H1491     1.0  0.74843  0.64504  0.54923  1.0000
  H   H1492     1.0  0.73594  0.81397  0.65584  1.0000
  H   H1493     1.0  0.73459  0.80813  0.60896  1.0000
  H   H1494     1.0  0.69081  0.80523  0.58407  1.0000
  H   H1495     1.0  0.67036  0.81845  0.60898  1.0000
  H   H1496     1.0  0.69011  0.84890  0.65974  1.0000
  H   H1497     1.0  0.70461  0.82840  0.68192  1.0000
  H   H1498     1.0  0.74586  0.89479  0.66007  1.0000
  H   H1499     1.0  0.75478  0.87136  0.68796  1.0000
  H   H1500     1.0  0.66089  0.49181  0.95050  1.0000
  H   H1501     1.0  0.71518  0.86586  0.73169  1.0000
  H   H1502     1.0  0.88609  0.77925  0.91828  1.0000
  H   H1503     1.0  0.68774  0.77242  0.63665  1.0000
  H   H1504     1.0  0.92151  0.76006  0.60385  1.0000
  H   H1505     1.0  0.78086  0.86856  0.64314  1.0000
  H   H1506     1.0  0.78802  0.81637  0.61411  1.0000
  H   H1507     1.0  0.81745  0.85201  0.63058  1.0000
  C   C849      1.0  0.75774  0.80171  0.53690  1.0000
  H   H1508     1.0  0.70691  0.88971  0.70377  1.0000
  H   H1509     1.0  0.77851  0.85718  0.59725  1.0000
  H   H1510     1.0  0.74374  0.90468  0.72423  1.0000
  C   C850      1.0  0.78038  0.73086  0.96269  1.0000
  H   H1511     1.0  0.66752  0.78666  0.66204  1.0000
  H   H1512     1.0  0.75662  0.71561  0.95394  1.0000
  C   C851      1.0  0.91045  0.79192  0.91060  1.0000
  H   H1513     1.0  0.85270  0.60687  0.97787  1.0000
  H   H1514     1.0  0.72841  0.51921  0.71534  1.0000
  C   C852      1.0  0.70531  0.49151  0.83567  1.0000
  C   C853      1.0  0.97911  0.74356  0.50932  1.0000
  H   H1515     1.0  0.80531  0.58222  0.73810  1.0000
  C   C854      1.0  0.95642  0.75146  0.51330  1.0000
  H   H1516     1.0  0.75848  0.55517  0.91042  1.0000
  H   H1517     1.0  0.76455  0.55424  0.95764  1.0000
  C   C855      1.0  0.97150  0.77928  0.98729  1.0000
  H   H1518     1.0  0.71944  0.61536  0.57647  1.0000
  H   H1519     1.0  0.72975  0.91125  0.88648  1.0000
  C   C856      1.0  0.73399  0.98306  0.98488  1.0000
  C   C857      1.0  0.92481  0.67644  0.96775  1.0000
  S   S191      1.0  0.66770  0.89259  0.81942  1.0000
  H   H1520     1.0  0.67659  0.67144  0.59029  1.0000
  H   H1521     1.0  0.91387  0.78109  0.88680  1.0000
  H   H1522     1.0  0.90773  0.70217  0.94187  1.0000
  H   H1523     1.0  0.72085  0.97896  0.89392  1.0000
  H   H1524     1.0  0.78377  0.53386  0.70565  1.0000
  H   H1525     1.0  0.95450  0.80688  0.93344  1.0000
  C   C858      1.0  0.73962  0.51098  0.73416  1.0000
  C   C859      1.0  0.93046  0.72547  0.99160  1.0000
  C   C860      1.0  0.96443  0.78143  0.51965  1.0000
  H   H1526     1.0  0.84365  0.63418  0.99508  1.0000
  C   C861      1.0  0.83489  0.60972  0.99145  1.0000
  S   S192      1.0  0.86356  0.71115  0.52068  1.0000
  H   H1527     1.0  0.97642  0.80302  0.98619  1.0000
  C   C862      1.0  0.83637  0.68445  0.99860  1.0000
  C   C863      1.0  0.66206  0.70030  0.61294  1.0000
  H   H1528     1.0  0.72891  0.89671  0.54079  1.0000
  H   H1529     1.0  0.77574  0.77215  0.00606  1.0000
  C   C864      1.0  0.78205  0.73406  0.00342  1.0000
  H   H1530     1.0  0.72240  0.81314  0.53056  1.0000
  H   H1531     1.0  0.97771  0.78895  0.77433  1.0000
  H   H1532     1.0  0.74136  0.73769  0.00327  1.0000
  H   H1533     1.0  0.75909  0.49026  0.67962  1.0000
  H   H1534     1.0  0.98100  0.77366  0.93127  1.0000
  H   H1535     1.0  0.94297  0.65460  0.75589  1.0000
  H   H1536     1.0  0.67926  0.48935  0.72189  1.0000
