data_image0
_chemical_formula_structural       CHNCSH3SCFeS2FeSFeSCSFeS2FeHCFeHCHSH3C6H4C4H7CHNCH2C2FeC7H5C2H4CSCSCH7CH10SHSCSH8CHSH5C2HFeH6SH3CHCH2NCHC3HCSHCHC3H7CH10C2H2CH5CH3CH2C2SCH2C3H2SCHCH4CH5C3H3NHC3H2C4HC4HNCHCH4CSH2C2HC2H3C2H4CH3C2H7CH3FeH2SH2CS2FeS2FeSFeS3FeS2FeS2FeHFeNS2CHC6HC2HC5H9CHCH2CHC6H4C3HCH4C2H2CHCH5FeH2NC2HCH3CHC2HC2H2CH2CH6FeHCH3NH3CH2CHCHFeCHC2HCNC12H25CH5CH3CH3CH4CHCHCHCH4CHCH11NC8SC2H4CH12C2H8CH2CHCHCHC2HSH4C2H3C2H5CH4C2H5CHCH3C3HC2H4S2H4SCHFeS2FeS2FeSFeS3FeS2FeSCFeSFeHS2H5CHC4H4C6H2CHCHSC3HC6H6CH2C5HSH5C2H2CH3CH4C2HCH4CHCH11C4NH2NC8HCH21CHC2HCHNC11H2C3H16CH3CH2CH3NHCHC2H2C3HNH5CSH4CH7CHCH3C2HCHCH4CH4CHCH3SH8CH3CH2CHC2SHCFeS2FeS2FeSFeS3FeS2FeSHFeSFeS3C4H4C4H3C6H4C2HCHCNC6H6C10H2CH4NH7CH3C2HCH2CH2CH2CH2CHNH4CHCHCHCFeH3CH9CH5CH3NC2HCHC2H5SHCHC6HCHCFeCNHCHC2H15CSHCH2CHNH4CH4CH8CH2CHSHCHCH9C2H9C2H3C2H2C2HCH2C2H4CHCH8C2H9CH3C2HCH2C3HCH2C2HCH6FeHSH2CHCHFeS2FeSH2SHFeS2FeS2FeSFeS3HNCH4CH2CHC2H4C6H3C7H4C6H4CHCH2FeH2C9H4CHCHFeCH4CH2C2HC2H3CSC2SCHCH5CHCHC2HNC8HC3H16CHCH9CHCH2CH2CH2NH5C2SCHCH3C3H4C2NC11H28CHSCH6CHC2HSH8NH3C2HSHSCH6CHCH3SCHNH2C2H5CHCHCNHCHCSH3S2CHC2HCFeS2H4SHFeS2FeS2FeSFeS3HSCH3CH5CHCNH3C5H3C7H4C6H8CH3CH2C6HCH3SHFeHCH2C2H2CHCHCH2C2HSH5CH3CH2C2H3CHCH3C2H4NH3C2H4C2HCHFeH3CH3SCH4NC3H2C2HCH9CH2C2H2C2HSHCHC2HFeCH4CNH2CH2CH5CH3C2H3FeH8CHCHC2H3C2SH4C2H2CHSHFeS2FeS2FeSFeS3FeSCFeH2FeSH2SH3C2H3CH2CHC6HCH2C6H4C6H4C4H5CHCH3CHSH4CH2CHCH2C2H2CH4SNC2HCH5CHCH5CH8CHCH2SCHCH5FeH2CH3SHC2H2C2H2C2H2CH4SC2NHNH6C3HCHSH2CHCH3C2HNC3H2C6HCH6CH8C2NH4CHNHCHCH2CH2C3H2CHCSH5CH2SCH7CHCH2CH4CH2CSHFeS2FeS2FeSFeS3FeS2HCHFeSHCS2H2C6H4C6H4C6H4C2H2C3H3CHC2HNCHCH4CFeCH2NC2HC2H2C2H14CH5CH3NH5CH2CH8C2HCH4CHCH2C2H4CHCHCH5C2FeC2H2NC11H25CH2CHS2CH4CH2CHC2H3C4H9CH5C4HCH3C4H2CH5CHSH3CHCH3C2HCSFeSHSNH2FeS2HCFeSHSFeS2FeSHFeSFeCS2H3C6H4CHC4H7C6H5FeCH2NCHC4HCHSC2H4CH2CH4C3H3FeHSH3CH2CNCH5NHC2H3CH4CH3C2HCH2CH3CH2SC2H3SCHC3H2CHCHC3H5SHC2HFeC2HC5H7NHC2HCHCH4C2H13CH3CH4CH10C3H4CSH2CH6CHC4SH3C2H2CH2CH4CH3C2HCHNHFeC2H2CHCHCHFeSHSH2SFeS2CHFeSFeSFeS2FeSHFeSFeNS2HFeHC6H4C6H7C6H4C2SH7CH3CH3SC2H2CHNC3H4C2H5CH2C3S2H3CH3CH3CH4C2HSH6C2HCH5C2H2C2HC2HCH16SC2HCHFeC4H3CHCH2CHCHC2HCH3C4H2C2HCHCH4CH3CFeHCH5NCHC2HCHSH2CH13CSHCH4C2HC3H2C2HCH3NH2CHCHFeSH2SFeS2FeS2FeSFeS3HNCFeS2CHFeSCSHCHCH3FeC6H4C2HC3H5CHCHC8H2CH3CH3CSHCH4C2H4CH2CHCH3C3H5CH3NCHSHSH2SCHCH4C4H2CHCH2FeC2HCHNCH2CH7C2HCH4SHCH3CH2CFeH3CH5CH6C5H2CH3CH5CHCH2C2H5CHCHCH2FeHCHC2HC3H3CH2CH2CH4SCHNC10SCH25SH3CH5CH3C2H4CHCHNH2CH3CSH2CNH2CH6FeSH2SFeS2FeS2FeSFeS3H2CFeS4FeS3H2C3FeH2C6H4C6H4C3H2CHC6H2CFeH3SHC2HCHSHCHNCHCFeH7SHCH7CH2CHSCH3CHC2H2C2H3CH4CH3C2HNC8HC3H31C3H7CH3C2H5CH2FeH2SCHC2HCHC2SCFeH2C2H3CHCHNHCH2CH3C2H7C2NC2HC2HC6H10SH9CHCH2CHCHCH6CH2C2H3CHCH4CHC2H3CHCNHSHCSCFeSH4FeSFeSCSFeHSFeS2FeS2FeSFeCS2H3SCH2C5H3C7H4FeH3C2SH4C2H2CHCSHNC10H24CH5C2H2C2H2CHNHC3HCHC2H7CH2CSH2CSC2HCHSHCSC2H2C2H3CH9NHC4H7CH4CHCH2CH3CH3CHCHC2H5CH2CH2CHCHCH3CHCHCH5FeH2C4HCHSH5SHC2HC2FeSH2SH3FeSHSH3FeSHFeS2FeSFeHS2CFeH2CHC6H3C7H6C2H2C2H4C2HSCH5FeH2C4H2CH3SH2SH3NH2CH3CH2CNC2HC2HC3H2C2H3CH5C2H9CHCH2C2SHC2HFeHC2HC2H2FeC2H3CH4FeH5CH3NHNC3H2C4H2CH6FeH8CH3NCH9C2H2CHC4HSHNCH2CHCH2CH2CH4CH2CHS2CHSCH2CH6C2FeH3C4NHSH2CH2CH2CHCHFeS2FeS2FeSFeS3FeS2FeS2FeS2FeSFeS3CH6C4H5CHC6H4C6H5C2HSH3NC11H26CHCH2CSHC2H2CH7NC12H28FeH6C4H3CH5C4SCH2CH2NCH7C3H3CH2CH3CSCHC3NCH3SHCFeCH2CHCH5CH3NC7HCHCHCH6CHCH2C2H6CH2CHFeNHCH3FeS2FeS2FeSFeS3FeS2FeS2FeHSC2FeS3H2CHCH2C3HC3H4C6H4C6H5CH4NH2CHC5HC2HCH5CH4SHC2H2CHCHFeH3CH4CHC2H2CNSHFeHCHCH2C2H2C4H4C3H2SH2NH2CH2CHCNH2CHC2HSHC3H4CH4CH4CH2CH3CH2CNH4CH12CH2CSHCHC3H3C5NC7HC3H13CHCH10CHSHCHFeSHC3H2C2H6CHCHCHCSH3CHCNHC2H5C2H5FeHSH2CH6C3H4CH7CHCH2CH2CHC3HCH6CH9NH4CH2FeHSFeH2CSH2CFeS2CFeH2SFeS2FeS2FeSFeS3C6H7C6H5CHCH2CHC2H2CH2NH3C3H2SH2C4H2FeH2CH6NC2SFeH6C2H4CH2CHCHC2HC2HSHCHSH2SH2NHC4HC2HCH2CHCH2C2HCH7CHSC2H7C2H2CH3CH2C2H2CH6CSH2CH2CH5C2FeC2N2CH3CH2CHCSCH4CH2C4HCHCH3CHCHCH3CSHC2H2CH4C2H3SCHFeHSFeC2HSCFeHFeS2Fe2HS2FeS2FeS2FeSFeS3C6H5C2HC6H4CH2CH2CHCH2CHCH3CFeCH3CH3C2H5C2SH9C2H11NH2C2HSC2H4CFeHCH2SCH4CH3NC9HCH7CH4CH12NC7S2CH2C2HCH3NHCHCHCH2C2H3SH3SH6CH2CH7CH2C2H2CHCH6CHC3H2CH3CHCHCH2CH3SFeSHFeSHFeHFeS3FeS2HS2FeSFeS3FeHFeS2FeSFeHS2H5C4HCH4C4H2CSC7H5CH2CH9CH2CH2C2HCHC2H6C4H2CH3C2HNH5CHC2H6CH2CH4CNC2H3C3HSCH2NC3H6C3H3CHCHNC8HC2H9CH4CH2SH6SH3CHNFeHCH5C2HC4H5CH3CH8CHCSH4CHCH5CH3CH2C3H3CHCH3CH8C2HCH3C3H7FeSCFeSHFeSFeS3FeS2H2CFeSFeHSCH2FeS2FeCH2SH4NCH3CH6CH3CH2NHC6H5SC2HCH2C3HCH7CH5CH2CHCH2CH3C3H3S2H3NC7HFeCH2SHCH7CH2NC2H6C2H3CHCSCHC2H2CH3CH3NSC7H2CH2NH3CH9CH4CH4CHCHCH2C2FeCHC2H4CSHCHCH2C4HCH4CH4CH4C2H5CHCSFeSHFeSHFeSFeS3FeS2CH2FeSHCSHFeS2CHCFeH2SH2CH4C2HSH2C3H2C6H4C2H2SH4C4HCSC3H2CH7C2H3FeH3CH2FeH9NH2NC8HC2H18SH7SCHC2H2CHC4H2SCH2C2HCHCHCSH5CHCH3CH2CNC9HC2H28C2H2SC2HCNFeC3HFeH2CSCSCHC2HCH4CH4C2HCH2CSH3FeSCFeSHFeSFeS2CFeS2CSHFeSFeS2HFeS2CH2FeH2SHCH2C5HCH4CH2C6H4C2H2CFeH3C2HCHSHC2H3CH2CH4CH4CNC10H25FeHCH2C3H2CHSCH9CH4CHC2HCH6C3H2CHC3H2NSH2C2H2CNH4C2HC2H3SCHC2HCHC3HCH4SC2H4CH5C2HC2HCH4C3H3CHC2HNH2CH6NC2H4NH2CH5CH4CHCHC3H4CH5C2HCFeHCFeSHFeSCHS2H2FeSH4SCFeS2FeS2FeNFeS3HC2HC2HC6H4C6H5CHSH4C2SCHFeH6NC8HC3H16SHC2H2CH5FeNHCH2CHC2H3C2H6C3HC2H3SCH2C2HCNHCH2CH4CHCH2C2HSHCHCH2SHSHSCH6C3H3NCH2C5HCH5C4HFeHFeCH2CH5CH4CH10C2H7CH6CH6CH3CHFeCHFeSHFeSH2SH3FeS2HSHSHFeSCFeS2FeSFeS3H2C3H2C6H4C6H5CHCH3NCSCH3CHCH6CHFeH2CHC2H3C2H6C2HC2H5C3H2CH2CFeH3C3H2CH2CH9CHC2H7CHCH3CSH5C3H2CHC5H3CH6SH2CHCHCFeS2H9CH3C2HCH3CH8NH2SCH2C6HCH4CHC2N2H2CHNCH3CSCHCH3CH2NSHCHSHCHC3FeCH4CH2CH2CH2CH2CH2SHCH7CHC2SH2
_chemical_formula_sum              "C2304 H4096 N128 S512 Fe256"
_cell_length_a       70.6192
_cell_length_b       68.9818
_cell_length_c       34.0343
_cell_angle_alpha    90.1912
_cell_angle_beta     90.8354
_cell_angle_gamma    88.4511

_space_group_name_H-M_alt    "P 1"
_space_group_IT_number       1

loop_
  _space_group_symop_operation_xyz
  'x, y, z'

loop_
  _atom_site_type_symbol
  _atom_site_label
  _atom_site_symmetry_multiplicity
  _atom_site_fract_x
  _atom_site_fract_y
  _atom_site_fract_z
  _atom_site_occupancy
  C   C1        1.0  0.00092  0.03562  0.50905  1.0000
  H   H1        1.0  0.97923  0.09174  0.45988  1.0000
  N   N1        1.0  0.23519  0.20142  0.34327  1.0000
  C   C2        1.0  0.12215  0.12035  0.15498  1.0000
  S   S1        1.0  0.27281  0.15595  0.27770  1.0000
  H   H2        1.0  0.19587  0.19747  0.34965  1.0000
  H   H3        1.0  0.08416  0.08479  0.10329  1.0000
  H   H4        1.0  0.03858  0.02638  0.03804  1.0000
  S   S2        1.0  0.16950  0.19263  0.03567  1.0000
  C   C3        1.0  0.04558  0.12814  0.13725  1.0000
  Fe  Fe1       1.0  0.21908  0.18183  0.08430  1.0000
  S   S3        1.0  0.19208  0.17767  0.11701  1.0000
  S   S4        1.0  0.24983  0.17961  0.10352  1.0000
  Fe  Fe2       1.0  0.18109  0.16448  0.06045  1.0000
  S   S5        1.0  0.20906  0.16614  0.03032  1.0000
  Fe  Fe3       1.0  0.18259  0.20599  0.08986  1.0000
  S   S6        1.0  0.16807  0.23060  0.12256  1.0000
  C   C4        1.0  0.04949  0.06527  0.06960  1.0000
  S   S7        1.0  0.21036  0.21118  0.06146  1.0000
  Fe  Fe4       1.0  0.06329  0.06748  0.44882  1.0000
  S   S8        1.0  0.05128  0.04027  0.47325  1.0000
  S   S9        1.0  0.04841  0.08806  0.40626  1.0000
  Fe  Fe5       1.0  0.10139  0.06090  0.48857  1.0000
  H   H5        1.0  0.13093  0.17157  0.50932  1.0000
  C   C5        1.0  0.99996  0.05268  0.48060  1.0000
  Fe  Fe6       1.0  0.07917  0.02651  0.45726  1.0000
  H   H6        1.0  0.01669  0.10170  0.05514  1.0000
  C   C6        1.0  0.18295  0.21140  0.48424  1.0000
  H   H7        1.0  0.18296  0.21474  0.29079  1.0000
  S   S10       1.0  0.09024  0.05295  0.42851  1.0000
  H   H8        1.0  0.07783  0.03407  0.33107  1.0000
  H   H9        1.0  0.03422  0.01622  0.15963  1.0000
  H   H10       1.0  0.05843  0.10156  0.11733  1.0000
  C   C7        1.0  0.03030  0.07775  0.37774  1.0000
  C   C8        1.0  0.02520  0.05863  0.38408  1.0000
  C   C9        1.0  0.00979  0.05090  0.36372  1.0000
  C   C10       1.0  0.00009  0.06182  0.33498  1.0000
  C   C11       1.0  0.00560  0.08074  0.32721  1.0000
  C   C12       1.0  0.02052  0.08882  0.34907  1.0000
  H   H11       1.0  0.03298  0.04980  0.40499  1.0000
  H   H12       1.0  0.00554  0.03628  0.36988  1.0000
  H   H13       1.0  0.99832  0.08913  0.30461  1.0000
  H   H14       1.0  0.02451  0.10360  0.34375  1.0000
  C   C13       1.0  0.06481  0.02440  0.23249  1.0000
  C   C14       1.0  0.04267  0.05782  0.10465  1.0000
  C   C15       1.0  0.02619  0.06580  0.12129  1.0000
  C   C16       1.0  0.01697  0.08187  0.10395  1.0000
  H   H15       1.0  0.20682  0.13347  0.47722  1.0000
  H   H16       1.0  0.26341  0.14839  0.36379  1.0000
  H   H17       1.0  0.05004  0.04571  0.11871  1.0000
  H   H18       1.0  0.02093  0.05977  0.14796  1.0000
  H   H19       1.0  0.98988  0.11472  0.44942  1.0000
  H   H20       1.0  0.26662  0.18309  0.38271  1.0000
  H   H21       1.0  0.00039  0.01270  0.09734  1.0000
  C   C17       1.0  0.22024  0.20214  0.31097  1.0000
  H   H22       1.0  0.25411  0.21170  0.41592  1.0000
  N   N2        1.0  0.09654  0.11309  0.10180  1.0000
  C   C18       1.0  0.04244  0.03190  0.28640  1.0000
  H   H23       1.0  0.04051  0.04180  0.31201  1.0000
  H   H24       1.0  0.12620  0.05043  0.10193  1.0000
  C   C19       1.0  0.25034  0.22431  0.18103  1.0000
  C   C20       1.0  0.09128  0.13515  0.04097  1.0000
  Fe  Fe7       1.0  0.30089  0.16681  0.29949  1.0000
  C   C21       1.0  0.14099  0.13041  0.16121  1.0000
  C   C22       1.0  0.26603  0.16346  0.23006  1.0000
  C   C23       1.0  0.27923  0.17147  0.20509  1.0000
  C   C24       1.0  0.27399  0.17629  0.16634  1.0000
  C   C25       1.0  0.25543  0.17371  0.15267  1.0000
  C   C26       1.0  0.24200  0.16632  0.17802  1.0000
  C   C27       1.0  0.24737  0.16101  0.21659  1.0000
  H   H25       1.0  0.29354  0.17358  0.21553  1.0000
  H   H26       1.0  0.28422  0.18214  0.14678  1.0000
  H   H27       1.0  0.22765  0.16424  0.16766  1.0000
  H   H28       1.0  0.23709  0.15483  0.23584  1.0000
  H   H29       1.0  0.12795  0.16370  0.43565  1.0000
  C   C28       1.0  0.17862  0.23718  0.16770  1.0000
  C   C29       1.0  0.19447  0.22689  0.18246  1.0000
  H   H30       1.0  0.09218  0.10853  0.41910  1.0000
  H   H31       1.0  0.21678  0.21742  0.30299  1.0000
  H   H32       1.0  0.20007  0.21443  0.16664  1.0000
  H   H33       1.0  0.00027  0.09250  0.43068  1.0000
  C   C30       1.0  0.11484  0.12286  0.11204  1.0000
  S   S11       1.0  0.99144  0.04800  0.19685  1.0000
  C   C31       1.0  0.03526  0.01138  0.02856  1.0000
  S   S12       1.0  0.07516  0.07740  0.50727  1.0000
  C   C32       1.0  0.18427  0.21925  0.44648  1.0000
  H   H34       1.0  0.21893  0.20430  0.39653  1.0000
  H   H35       1.0  0.29522  0.20178  0.47625  1.0000
  H   H36       1.0  0.17245  0.19141  0.29600  1.0000
  H   H37       1.0  0.18619  0.20974  0.42147  1.0000
  H   H38       1.0  0.11180  0.12390  0.46963  1.0000
  H   H39       1.0  0.24398  0.14641  0.39757  1.0000
  H   H40       1.0  0.09252  0.02830  0.28892  1.0000
  C   C33       1.0  0.30525  0.23175  0.14499  1.0000
  H   H41       1.0  0.15210  0.12360  0.14246  1.0000
  H   H42       1.0  0.24793  0.23202  0.20923  1.0000
  H   H43       1.0  0.10160  0.01151  0.37757  1.0000
  H   H44       1.0  0.14553  0.18138  0.34082  1.0000
  H   H45       1.0  0.24321  0.23974  0.32579  1.0000
  H   H46       1.0  0.98688  0.01155  0.03346  1.0000
  H   H47       1.0  0.22367  0.24499  0.14015  1.0000
  H   H48       1.0  0.05328  0.01615  0.21810  1.0000
  H   H49       1.0  0.97889  0.12295  0.26128  1.0000
  H   H50       1.0  0.98184  0.13799  0.30411  1.0000
  S   S13       1.0  0.18521  0.18624  0.49106  1.0000
  H   H51       1.0  0.19043  0.19469  0.25973  1.0000
  S   S14       1.0  0.29975  0.22077  0.39510  1.0000
  C   C34       1.0  0.23426  0.23208  0.44107  1.0000
  S   S15       1.0  0.16479  0.13657  0.06264  1.0000
  H   H52       1.0  0.05697  0.12060  0.08119  1.0000
  H   H53       1.0  0.02245  0.02418  0.09480  1.0000
  H   H54       1.0  0.07092  0.04042  0.17821  1.0000
  H   H55       1.0  0.10925  0.05903  0.29815  1.0000
  H   H56       1.0  0.20643  0.10776  0.48627  1.0000
  H   H57       1.0  0.00199  0.01481  0.46195  1.0000
  H   H58       1.0  0.17729  0.15100  0.45627  1.0000
  H   H59       1.0  0.11187  0.12681  0.17593  1.0000
  C   C35       1.0  0.14442  0.14316  0.49803  1.0000
  H   H60       1.0  0.11741  0.06025  0.14753  1.0000
  S   S16       1.0  0.13162  0.07062  0.49501  1.0000
  H   H61       1.0  0.22158  0.25103  0.07312  1.0000
  H   H62       1.0  0.14567  0.12903  0.19238  1.0000
  H   H63       1.0  0.14265  0.11067  0.45239  1.0000
  H   H64       1.0  0.21532  0.22466  0.22906  1.0000
  H   H65       1.0  0.29245  0.22298  0.14852  1.0000
  C   C36       1.0  0.07838  0.03088  0.19991  1.0000
  C   C37       1.0  0.00093  0.01674  0.02424  1.0000
  H   H66       1.0  0.00867  0.04946  0.45449  1.0000
  Fe  Fe8       1.0  0.98059  0.07503  0.16661  1.0000
  H   H67       1.0  0.09054  0.03867  0.21276  1.0000
  H   H68       1.0  0.12459  0.10485  0.16249  1.0000
  H   H69       1.0  0.26471  0.20947  0.34865  1.0000
  H   H70       1.0  0.22417  0.24388  0.43174  1.0000
  H   H71       1.0  0.10532  0.10728  0.04227  1.0000
  H   H72       1.0  0.24266  0.17184  0.32781  1.0000
  S   S17       1.0  0.98075  0.05143  0.31084  1.0000
  H   H73       1.0  0.30107  0.24558  0.13028  1.0000
  H   H74       1.0  0.13957  0.14608  0.15386  1.0000
  H   H75       1.0  0.20246  0.17685  0.31946  1.0000
  C   C38       1.0  0.08071  0.12323  0.12385  1.0000
  H   H76       1.0  0.04776  0.12480  0.16892  1.0000
  C   C39       1.0  0.02380  0.08930  0.06873  1.0000
  H   H77       1.0  0.24967  0.20043  0.02876  1.0000
  H   H78       1.0  0.11460  0.15438  0.49032  1.0000
  N   N3        1.0  0.05627  0.04031  0.25780  1.0000
  C   C40       1.0  0.23660  0.25363  0.14471  1.0000
  H   H79       1.0  0.22510  0.17402  0.36462  1.0000
  C   C41       1.0  0.04544  0.05429  0.23099  1.0000
  C   C42       1.0  0.07126  0.05168  0.27916  1.0000
  C   C43       1.0  0.08533  0.04005  0.30561  1.0000
  H   H80       1.0  0.12624  0.18295  0.37481  1.0000
  C   C44       1.0  0.03227  0.06944  0.25178  1.0000
  S   S18       1.0  0.07051  0.05540  0.05056  1.0000
  H   H81       1.0  0.09588  0.01829  0.15391  1.0000
  C   C45       1.0  0.10074  0.05304  0.32222  1.0000
  H   H82       1.0  0.12781  0.08611  0.10317  1.0000
  C   C46       1.0  0.02674  0.08652  0.22512  1.0000
  C   C47       1.0  0.20317  0.23278  0.21769  1.0000
  C   C48       1.0  0.20014  0.11972  0.46813  1.0000
  H   H83       1.0  0.11134  0.10861  0.38468  1.0000
  H   H84       1.0  0.11037  0.04439  0.34189  1.0000
  H   H85       1.0  0.03637  0.04621  0.20981  1.0000
  H   H86       1.0  0.05538  0.06254  0.21272  1.0000
  H   H87       1.0  0.07961  0.06010  0.25798  1.0000
  H   H88       1.0  0.06469  0.06272  0.29890  1.0000
  H   H89       1.0  0.15045  0.17233  0.44920  1.0000
  C   C49       1.0  0.25715  0.15422  0.39132  1.0000
  H   H90       1.0  0.20331  0.11669  0.43679  1.0000
  H   H91       1.0  0.17662  0.12355  0.50613  1.0000
  H   H92       1.0  0.03892  0.07558  0.27845  1.0000
  H   H93       1.0  0.01904  0.06243  0.26057  1.0000
  H   H94       1.0  0.98510  0.05578  0.47095  1.0000
  H   H95       1.0  0.10108  0.05185  0.11006  1.0000
  H   H96       1.0  0.07283  0.01344  0.25038  1.0000
  H   H97       1.0  0.11030  0.13855  0.42546  1.0000
  H   H98       1.0  0.03115  0.12357  0.12844  1.0000
  H   H99       1.0  0.09436  0.06515  0.33960  1.0000
  C   C50       1.0  0.17890  0.24384  0.51104  1.0000
  C   C51       1.0  0.29629  0.18572  0.47448  1.0000
  H   H100      1.0  0.14681  0.10041  0.04958  1.0000
  H   H101      1.0  0.08239  0.12051  0.15593  1.0000
  C   C52       1.0  0.27049  0.23788  0.29831  1.0000
  H   H102      1.0  0.01837  0.08156  0.19947  1.0000
  H   H103      1.0  0.01780  0.09715  0.24157  1.0000
  H   H104      1.0  0.03949  0.09396  0.21479  1.0000
  H   H105      1.0  0.11339  0.13877  0.10698  1.0000
  H   H106      1.0  0.22573  0.19506  0.28369  1.0000
  C   C53       1.0  0.18583  0.19882  0.28979  1.0000
  H   H107      1.0  0.26308  0.21469  0.18469  1.0000
  H   H108      1.0  0.24629  0.24754  0.06891  1.0000
  H   H109      1.0  0.09721  0.09052  0.14604  1.0000
  C   C54       1.0  0.03418  0.00602  0.33621  1.0000
  H   H110      1.0  0.27030  0.21395  0.01816  1.0000
  H   H111      1.0  0.21879  0.22561  0.36768  1.0000
  C   C55       1.0  0.16945  0.13760  0.44944  1.0000
  C   C56       1.0  0.13824  0.12429  0.43694  1.0000
  S   S19       1.0  0.30715  0.19803  0.29082  1.0000
  C   C57       1.0  0.14834  0.16133  0.38976  1.0000
  H   H112      1.0  0.26675  0.24620  0.15506  1.0000
  H   H113      1.0  0.08146  0.13925  0.12081  1.0000
  C   C58       1.0  0.18332  0.23944  0.44113  1.0000
  C   C59       1.0  0.10785  0.10800  0.41636  1.0000
  C   C60       1.0  0.14183  0.18086  0.37240  1.0000
  H   H114      1.0  0.17288  0.10685  0.46603  1.0000
  H   H115      1.0  0.99966  0.04293  0.06204  1.0000
  S   S20       1.0  0.99773  0.09363  0.12699  1.0000
  C   C61       1.0  0.25300  0.17601  0.38766  1.0000
  H   H116      1.0  0.12631  0.11802  0.09200  1.0000
  C   C62       1.0  0.25125  0.22938  0.30695  1.0000
  H   H117      1.0  0.17264  0.13391  0.41835  1.0000
  H   H118      1.0  0.14245  0.12190  0.40591  1.0000
  H   H119      1.0  0.02811  0.03083  0.27246  1.0000
  H   H120      1.0  0.97880  0.02023  0.47929  1.0000
  C   C63       1.0  0.24330  0.22236  0.40525  1.0000
  H   H121      1.0  0.16388  0.16010  0.38562  1.0000
  H   H122      1.0  0.14138  0.14974  0.37262  1.0000
  H   H123      1.0  0.24353  0.22833  0.27844  1.0000
  H   H124      1.0  0.25091  0.23362  0.38934  1.0000
  H   H125      1.0  0.22664  0.22133  0.45873  1.0000
  C   C64       1.0  0.17146  0.25331  0.18852  1.0000
  C   C65       1.0  0.09722  0.09200  0.11350  1.0000
  C   C66       1.0  0.09329  0.11432  0.05796  1.0000
  H   H126      1.0  0.25872  0.19883  0.30326  1.0000
  H   H127      1.0  0.11326  0.09399  0.42872  1.0000
  H   H128      1.0  0.11228  0.07766  0.06474  1.0000
  N   N4        1.0  0.14841  0.14130  0.45453  1.0000
  H   H129      1.0  0.14896  0.19293  0.38788  1.0000
  C   C67       1.0  0.20101  0.19292  0.32030  1.0000
  C   C68       1.0  0.06030  0.11727  0.11244  1.0000
  C   C69       1.0  0.22812  0.21325  0.37789  1.0000
  H   H130      1.0  0.04638  0.14403  0.13268  1.0000
  H   H131      1.0  0.24714  0.18094  0.41621  1.0000
  C   C70       1.0  0.11395  0.07952  0.09703  1.0000
  C   C71       1.0  0.11636  0.12505  0.43866  1.0000
  C   C72       1.0  0.14329  0.16014  0.43388  1.0000
  C   C73       1.0  0.23841  0.18039  0.35430  1.0000
  H   H132      1.0  0.30779  0.18073  0.09462  1.0000
  C   C74       1.0  0.25319  0.20900  0.32623  1.0000
  C   C75       1.0  0.17875  0.12104  0.47436  1.0000
  C   C76       1.0  0.11463  0.05930  0.11539  1.0000
  C   C77       1.0  0.08630  0.01336  0.17725  1.0000
  H   H133      1.0  0.26747  0.15149  0.41575  1.0000
  N   N5        1.0  0.01658  0.00538  0.04529  1.0000
  C   C78       1.0  0.03988  0.08078  0.05117  1.0000
  H   H134      1.0  0.28326  0.17972  0.48703  1.0000
  C   C79       1.0  0.01545  0.01024  0.08862  1.0000
  H   H135      1.0  0.27922  0.23896  0.32559  1.0000
  H   H136      1.0  0.04511  0.08660  0.02405  1.0000
  H   H137      1.0  0.29714  0.15659  0.04332  1.0000
  H   H138      1.0  0.18460  0.24549  0.41203  1.0000
  C   C80       1.0  0.18078  0.25174  0.47353  1.0000
  S   S21       1.0  0.30505  0.16802  0.36461  1.0000
  H   H139      1.0  0.24541  0.23854  0.45993  1.0000
  H   H140      1.0  0.03718  0.01545  0.36196  1.0000
  C   C81       1.0  0.00089  0.03907  0.03048  1.0000
  C   C82       1.0  0.98665  0.10017  0.43734  1.0000
  H   H141      1.0  0.27813  0.22873  0.27647  1.0000
  C   C83       1.0  0.04695  0.01110  0.30212  1.0000
  C   C84       1.0  0.25342  0.23878  0.14804  1.0000
  H   H142      1.0  0.01901  0.00772  0.32742  1.0000
  H   H143      1.0  0.07465  0.00521  0.16314  1.0000
  H   H144      1.0  0.29383  0.24064  0.46794  1.0000
  C   C85       1.0  0.30869  0.24130  0.46097  1.0000
  C   C86       1.0  0.14545  0.10864  0.02268  1.0000
  H   H145      1.0  0.00553  0.06580  0.49530  1.0000
  H   H146      1.0  0.98271  0.11079  0.37896  1.0000
  H   H147      1.0  0.23805  0.21513  0.17393  1.0000
  H   H148      1.0  0.26837  0.25263  0.28579  1.0000
  C   C87       1.0  0.99368  0.01691  0.48911  1.0000
  H   H149      1.0  0.10491  0.14272  0.04405  1.0000
  H   H150      1.0  0.25527  0.23041  0.12041  1.0000
  H   H151      1.0  0.01086  0.00764  0.17049  1.0000
  C   C88       1.0  0.19616  0.24901  0.23833  1.0000
  C   C89       1.0  0.15374  0.12686  0.02025  1.0000
  H   H152      1.0  0.29706  0.18129  0.44321  1.0000
  H   H153      1.0  0.08010  0.14384  0.05596  1.0000
  H   H154      1.0  0.06175  0.00924  0.31246  1.0000
  H   H155      1.0  0.08076  0.10584  0.04872  1.0000
  H   H156      1.0  0.26115  0.21210  0.51119  1.0000
  H   H157      1.0  0.01403  0.04535  0.01912  1.0000
  H   H158      1.0  0.15664  0.14975  0.51382  1.0000
  C   C90       1.0  0.12701  0.15606  0.51007  1.0000
  H   H159      1.0  0.14298  0.12852  0.51120  1.0000
  H   H160      1.0  0.98420  0.06472  0.01496  1.0000
  H   H161      1.0  0.28488  0.23870  0.98483  1.0000
  Fe  Fe9       1.0  0.06546  0.04862  0.52959  1.0000
  H   H162      1.0  0.27346  0.14269  0.98556  1.0000
  H   H163      1.0  0.23934  0.20547  0.71946  1.0000
  S   S22       1.0  0.27771  0.14316  0.80000  1.0000
  H   H164      1.0  0.25868  0.18823  0.72839  1.0000
  H   H165      1.0  0.10250  0.05005  0.59781  1.0000
  C   C91       1.0  0.19002  0.11895  0.75843  1.0000
  S   S23       1.0  0.16199  0.17902  0.59456  1.0000
  S   S24       1.0  0.20626  0.20455  0.94890  1.0000
  Fe  Fe10      1.0  0.21425  0.16546  0.61987  1.0000
  S   S25       1.0  0.19156  0.16477  0.66525  1.0000
  S   S26       1.0  0.24531  0.15812  0.62837  1.0000
  Fe  Fe11      1.0  0.17421  0.15089  0.61761  1.0000
  S   S27       1.0  0.15519  0.12658  0.63403  1.0000
  Fe  Fe12      1.0  0.18129  0.19284  0.63864  1.0000
  S   S28       1.0  0.16924  0.21701  0.67595  1.0000
  S   S29       1.0  0.19770  0.14929  0.57408  1.0000
  S   S30       1.0  0.20564  0.19498  0.59732  1.0000
  Fe  Fe13      1.0  0.05756  0.07359  0.90815  1.0000
  S   S31       1.0  0.05703  0.04570  0.94154  1.0000
  S   S32       1.0  0.03266  0.08774  0.87606  1.0000
  Fe  Fe14      1.0  0.09935  0.07946  0.92540  1.0000
  S   S33       1.0  0.10256  0.05180  0.95992  1.0000
  S   S34       1.0  0.12183  0.10160  0.91408  1.0000
  Fe  Fe15      1.0  0.08465  0.03850  0.91227  1.0000
  H   H166      1.0  0.23443  0.09316  0.60405  1.0000
  Fe  Fe16      1.0  0.07480  0.06088  0.98633  1.0000
  N   N6        1.0  0.25769  0.15846  0.94018  1.0000
  S   S35       1.0  0.08383  0.06531  0.87487  1.0000
  S   S36       1.0  0.07290  0.08959  0.95586  1.0000
  C   C92       1.0  0.21140  0.08357  0.72509  1.0000
  H   H167      1.0  0.20528  0.08134  0.75466  1.0000
  C   C93       1.0  0.01448  0.07196  0.86367  1.0000
  C   C94       1.0  0.00428  0.07480  0.82850  1.0000
  C   C95       1.0  0.99134  0.06099  0.81562  1.0000
  C   C96       1.0  0.11468  0.04535  0.61683  1.0000
  C   C97       1.0  0.99704  0.04280  0.87541  1.0000
  C   C98       1.0  0.01055  0.05617  0.88758  1.0000
  H   H168      1.0  0.00698  0.08730  0.81052  1.0000
  C   C99       1.0  0.10401  0.01049  0.61360  1.0000
  C   C100      1.0  0.15264  0.13700  0.98470  1.0000
  H   H169      1.0  0.01793  0.05427  0.91539  1.0000
  C   C101      1.0  0.02964  0.04570  0.59792  1.0000
  C   C102      1.0  0.01969  0.03425  0.62416  1.0000
  C   C103      1.0  0.00135  0.03983  0.63583  1.0000
  C   C104      1.0  0.04474  0.01346  0.82261  1.0000
  C   C105      1.0  0.00239  0.06787  0.59359  1.0000
  H   H170      1.0  0.09930  0.02514  0.82363  1.0000
  H   H171      1.0  0.02629  0.02114  0.63598  1.0000
  H   H172      1.0  0.22549  0.22301  0.77849  1.0000
  H   H173      1.0  0.29964  0.23873  0.62223  1.0000
  H   H174      1.0  0.28449  0.13506  0.89877  1.0000
  H   H175      1.0  0.17869  0.21774  0.54556  1.0000
  H   H176      1.0  0.21293  0.06874  0.71243  1.0000
  H   H177      1.0  0.21175  0.12208  0.91099  1.0000
  H   H178      1.0  0.30879  0.21271  0.99881  1.0000
  C   C106      1.0  0.13419  0.11108  0.95507  1.0000
  H   H179      1.0  0.09674  0.12595  0.98066  1.0000
  C   C107      1.0  0.13003  0.10490  0.59220  1.0000
  H   H180      1.0  0.23544  0.11879  0.59481  1.0000
  H   H181      1.0  0.14632  0.07143  0.66731  1.0000
  C   C108      1.0  0.22178  0.24875  0.58412  1.0000
  H   H182      1.0  0.11962  0.11064  0.61236  1.0000
  C   C109      1.0  0.26873  0.14716  0.75229  1.0000
  C   C110      1.0  0.28096  0.14959  0.72087  1.0000
  C   C111      1.0  0.27357  0.15253  0.68281  1.0000
  C   C112      1.0  0.25395  0.15370  0.67622  1.0000
  C   C113      1.0  0.24170  0.15158  0.70772  1.0000
  C   C114      1.0  0.24908  0.14798  0.74563  1.0000
  H   H183      1.0  0.29612  0.14886  0.72577  1.0000
  H   H184      1.0  0.28310  0.15405  0.65848  1.0000
  H   H185      1.0  0.22661  0.15277  0.70291  1.0000
  H   H186      1.0  0.23963  0.14621  0.76998  1.0000
  C   C115      1.0  0.18954  0.14034  0.77032  1.0000
  C   C116      1.0  0.18579  0.23444  0.68863  1.0000
  C   C117      1.0  0.20511  0.23067  0.68342  1.0000
  H   H187      1.0  0.17556  0.11348  0.76267  1.0000
  C   C118      1.0  0.14883  0.11071  0.59585  1.0000
  H   H188      1.0  0.20996  0.21693  0.67136  1.0000
  H   H189      1.0  0.15453  0.04646  0.66870  1.0000
  H   H190      1.0  0.28969  0.18689  0.61623  1.0000
  H   H191      1.0  0.25033  0.21446  0.98414  1.0000
  C   C119      1.0  0.21371  0.23923  0.91523  1.0000
  C   C120      1.0  0.20150  0.22914  0.93933  1.0000
  H   H192      1.0  0.23437  0.18391  0.89291  1.0000
  H   H193      1.0  0.20386  0.14649  0.76842  1.0000
  C   C121      1.0  0.25263  0.19066  0.84547  1.0000
  H   H194      1.0  0.22645  0.23209  0.90447  1.0000
  C   C122      1.0  0.16234  0.10345  0.56968  1.0000
  H   H195      1.0  0.17578  0.23077  0.97256  1.0000
  H   H196      1.0  0.23566  0.08141  0.79141  1.0000
  H   H197      1.0  0.07303  0.01825  0.01258  1.0000
  H   H198      1.0  0.25993  0.15620  0.87698  1.0000
  H   H199      1.0  0.12906  0.08689  0.99280  1.0000
  Fe  Fe17      1.0  0.18714  0.17880  0.55524  1.0000
  H   H200      1.0  0.20907  0.24597  0.56568  1.0000
  H   H201      1.0  0.14215  0.13689  0.92470  1.0000
  N   N7        1.0  0.19808  0.09593  0.70003  1.0000
  C   C123      1.0  0.12454  0.09250  0.56146  1.0000
  C   C124      1.0  0.26451  0.20954  0.65853  1.0000
  H   H202      1.0  0.99568  0.08089  0.58162  1.0000
  C   C125      1.0  0.09848  0.00968  0.81884  1.0000
  H   H203      1.0  0.27791  0.18055  0.00344  1.0000
  H   H204      1.0  0.23976  0.08873  0.70298  1.0000
  H   H205      1.0  0.98552  0.08023  0.93417  1.0000
  C   C126      1.0  0.20780  0.13511  0.92861  1.0000
  H   H206      1.0  0.25399  0.19832  0.90646  1.0000
  C   C127      1.0  0.22236  0.15093  0.92389  1.0000
  C   C128      1.0  0.15582  0.06085  0.68310  1.0000
  H   H207      1.0  0.99200  0.03987  0.53438  1.0000
  C   C129      1.0  0.22603  0.10700  0.60389  1.0000
  C   C130      1.0  0.12069  0.02439  0.60752  1.0000
  H   H208      1.0  0.24327  0.06369  0.75505  1.0000
  H   H209      1.0  0.24585  0.19198  0.51888  1.0000
  C   C131      1.0  0.17637  0.06722  0.68154  1.0000
  H   H210      1.0  0.19831  0.23888  0.84062  1.0000
  H   H211      1.0  0.21027  0.08133  0.64947  1.0000
  C   C132      1.0  0.02576  0.00555  0.83730  1.0000
  H   H212      1.0  0.16787  0.09741  0.68800  1.0000
  H   H213      1.0  0.22411  0.23629  0.60434  1.0000
  H   H214      1.0  0.16909  0.23659  0.86185  1.0000
  H   H215      1.0  0.29705  0.23947  0.84531  1.0000
  H   H216      1.0  0.25730  0.08464  0.76518  1.0000
  H   H217      1.0  0.99402  0.03118  0.65672  1.0000
  Fe  Fe18      1.0  0.19838  0.19534  0.00986  1.0000
  H   H218      1.0  0.09959  0.01209  0.64483  1.0000
  C   C133      1.0  0.26754  0.18778  0.98310  1.0000
  H   H219      1.0  0.03425  0.01243  0.99596  1.0000
  H   H220      1.0  0.10666  0.01086  0.75793  1.0000
  H   H221      1.0  0.00146  0.01418  0.99195  1.0000
  N   N8        1.0  0.27954  0.21593  0.63049  1.0000
  H   H222      1.0  0.08598  0.14978  0.98540  1.0000
  H   H223      1.0  0.24766  0.16600  0.99815  1.0000
  H   H224      1.0  0.23933  0.21546  0.53808  1.0000
  C   C134      1.0  0.23182  0.09087  0.73061  1.0000
  H   H225      1.0  0.18589  0.12485  0.69631  1.0000
  H   H226      1.0  0.18025  0.06758  0.65009  1.0000
  C   C135      1.0  0.25150  0.20536  0.53239  1.0000
  H   H227      1.0  0.99399  0.03065  0.89397  1.0000
  C   C136      1.0  0.25206  0.17334  0.97074  1.0000
  H   H228      1.0  0.20667  0.13096  0.96002  1.0000
  Fe  Fe19      1.0  0.30706  0.15449  0.80965  1.0000
  C   C137      1.0  0.24240  0.14359  0.93696  1.0000
  H   H229      1.0  0.19364  0.14061  0.91843  1.0000
  C   C138      1.0  0.15696  0.09062  0.53964  1.0000
  C   C139      1.0  0.21834  0.11142  0.64481  1.0000
  H   H230      1.0  0.17693  0.10763  0.57268  1.0000
  C   C140      1.0  0.24259  0.07938  0.76253  1.0000
  N   N9        1.0  0.05399  0.06707  0.70736  1.0000
  C   C141      1.0  0.03520  0.07674  0.69646  1.0000
  C   C142      1.0  0.06847  0.07072  0.67588  1.0000
  C   C143      1.0  0.05100  0.04552  0.70920  1.0000
  C   C144      1.0  0.06120  0.07355  0.74709  1.0000
  C   C145      1.0  0.06440  0.09552  0.75203  1.0000
  C   C146      1.0  0.01822  0.07235  0.72304  1.0000
  C   C147      1.0  0.06898  0.03245  0.71638  1.0000
  C   C148      1.0  0.06609  0.08971  0.65166  1.0000
  C   C149      1.0  0.08266  0.09197  0.62395  1.0000
  C   C150      1.0  0.07127  0.10021  0.79370  1.0000
  C   C151      1.0  0.00151  0.08632  0.71439  1.0000
  C   C152      1.0  0.06497  0.01135  0.70625  1.0000
  H   H231      1.0  0.03089  0.07227  0.66620  1.0000
  H   H232      1.0  0.03638  0.09272  0.69523  1.0000
  H   H233      1.0  0.08308  0.07018  0.68872  1.0000
  H   H234      1.0  0.06837  0.05897  0.65337  1.0000
  H   H235      1.0  0.04422  0.04072  0.68135  1.0000
  H   H236      1.0  0.04102  0.04191  0.73293  1.0000
  H   H237      1.0  0.05162  0.06900  0.77076  1.0000
  H   H238      1.0  0.07503  0.06616  0.75415  1.0000
  H   H239      1.0  0.05114  0.10412  0.74668  1.0000
  H   H240      1.0  0.07550  0.10026  0.73178  1.0000
  H   H241      1.0  0.01332  0.05740  0.71749  1.0000
  H   H242      1.0  0.02202  0.07375  0.75448  1.0000
  H   H243      1.0  0.07344  0.03313  0.74778  1.0000
  H   H244      1.0  0.08111  0.03675  0.69838  1.0000
  H   H245      1.0  0.05305  0.08937  0.63302  1.0000
  H   H246      1.0  0.06518  0.10273  0.67071  1.0000
  H   H247      1.0  0.09626  0.09173  0.64073  1.0000
  H   H248      1.0  0.08289  0.08004  0.60194  1.0000
  H   H249      1.0  0.08113  0.10596  0.60801  1.0000
  H   H250      1.0  0.08500  0.09258  0.80033  1.0000
  H   H251      1.0  0.07331  0.11605  0.79672  1.0000
  H   H252      1.0  0.06067  0.09588  0.81557  1.0000
  H   H253      1.0  0.99782  0.08629  0.68256  1.0000
  H   H254      1.0  0.98891  0.08184  0.73074  1.0000
  H   H255      1.0  0.00501  0.10129  0.72357  1.0000
  C   C153      1.0  0.97873  0.09405  0.94417  1.0000
  H   H256      1.0  0.05339  0.00597  0.72451  1.0000
  H   H257      1.0  0.06090  0.00994  0.67476  1.0000
  H   H258      1.0  0.21730  0.16350  0.94138  1.0000
  H   H259      1.0  0.13291  0.02051  0.62709  1.0000
  H   H260      1.0  0.97831  0.09402  0.97676  1.0000
  C   C154      1.0  0.17862  0.08731  0.70166  1.0000
  H   H261      1.0  0.23209  0.10634  0.73932  1.0000
  H   H262      1.0  0.19163  0.09829  0.63773  1.0000
  H   H263      1.0  0.17669  0.25330  0.53603  1.0000
  C   C155      1.0  0.26719  0.21531  0.70257  1.0000
  H   H264      1.0  0.28187  0.21298  0.71354  1.0000
  H   H265      1.0  0.27309  0.18913  0.56319  1.0000
  H   H266      1.0  0.15118  0.05963  0.71404  1.0000
  C   C156      1.0  0.04483  0.03554  0.82423  1.0000
  H   H267      1.0  0.30063  0.11691  0.97522  1.0000
  H   H268      1.0  0.99437  0.01306  0.57064  1.0000
  H   H269      1.0  0.98516  0.04651  0.97671  1.0000
  H   H270      1.0  0.24439  0.20407  0.83796  1.0000
  C   C157      1.0  0.99258  0.05662  0.62050  1.0000
  H   H271      1.0  0.12558  0.02405  0.57673  1.0000
  C   C158      1.0  0.08615  0.13479  0.99725  1.0000
  H   H272      1.0  0.12660  0.05508  0.61108  1.0000
  C   C159      1.0  0.24969  0.18564  0.88861  1.0000
  H   H273      1.0  0.23311  0.24179  0.69004  1.0000
  C   C160      1.0  0.26163  0.16728  0.90059  1.0000
  H   H274      1.0  0.23056  0.11268  0.66520  1.0000
  H   H275      1.0  0.11401  0.13698  0.55192  1.0000
  H   H276      1.0  0.30599  0.20546  0.60623  1.0000
  H   H277      1.0  0.23218  0.23796  0.81991  1.0000
  C   C161      1.0  0.12055  0.15143  0.55154  1.0000
  H   H278      1.0  0.21427  0.10605  0.58201  1.0000
  C   C162      1.0  0.29528  0.20075  0.62758  1.0000
  H   H279      1.0  0.22238  0.15490  0.89232  1.0000
  H   H280      1.0  0.20001  0.11122  0.77878  1.0000
  H   H281      1.0  0.24623  0.13224  0.91504  1.0000
  H   H282      1.0  0.11065  0.04686  0.64814  1.0000
  H   H283      1.0  0.29461  0.23447  0.67160  1.0000
  H   H284      1.0  0.03296  0.04194  0.80641  1.0000
  H   H285      1.0  0.04367  0.04060  0.85508  1.0000
  H   H286      1.0  0.05846  0.04065  0.81283  1.0000
  H   H287      1.0  0.26369  0.23092  0.70696  1.0000
  H   H288      1.0  0.02397  0.01135  0.86756  1.0000
  H   H289      1.0  0.01405  0.01247  0.81964  1.0000
  N   N10       1.0  0.16993  0.21419  0.81656  1.0000
  C   C163      1.0  0.15610  0.20674  0.78621  1.0000
  C   C164      1.0  0.16156  0.23263  0.83406  1.0000
  C   C165      1.0  0.18845  0.21780  0.79671  1.0000
  C   C166      1.0  0.17351  0.19977  0.84926  1.0000
  C   C167      1.0  0.15562  0.19245  0.86991  1.0000
  C   C168      1.0  0.16110  0.18662  0.76801  1.0000
  C   C169      1.0  0.20399  0.22652  0.82344  1.0000
  C   C170      1.0  0.13549  0.10089  0.99046  1.0000
  S   S37       1.0  0.05340  0.03945  0.58765  1.0000
  C   C171      1.0  0.16099  0.17820  0.90281  1.0000
  C   C172      1.0  0.14525  0.17995  0.74043  1.0000
  H   H290      1.0  0.28919  0.24268  0.91448  1.0000
  H   H291      1.0  0.15474  0.21698  0.76107  1.0000
  H   H292      1.0  0.14159  0.20618  0.79849  1.0000
  H   H293      1.0  0.14671  0.23036  0.84314  1.0000
  C   C173      1.0  0.27095  0.21842  0.58972  1.0000
  H   H294      1.0  0.18615  0.22723  0.77057  1.0000
  H   H295      1.0  0.19471  0.20406  0.78487  1.0000
  H   H296      1.0  0.18197  0.18699  0.83871  1.0000
  H   H297      1.0  0.18246  0.20627  0.87281  1.0000
  H   H298      1.0  0.14618  0.18484  0.84896  1.0000
  H   H299      1.0  0.14751  0.20470  0.88332  1.0000
  H   H300      1.0  0.17418  0.18729  0.75045  1.0000
  H   H301      1.0  0.16317  0.17537  0.79093  1.0000
  H   H302      1.0  0.20974  0.21530  0.84404  1.0000
  H   H303      1.0  0.17418  0.08544  0.73261  1.0000
  H   H304      1.0  0.04760  0.00899  0.79202  1.0000
  H   H305      1.0  0.09198  0.01645  0.59553  1.0000
  C   C174      1.0  0.98414  0.04889  0.00893  1.0000
  C   C175      1.0  0.20419  0.09585  0.65756  1.0000
  H   H306      1.0  0.28171  0.22386  0.56906  1.0000
  H   H307      1.0  0.28738  0.15837  0.95698  1.0000
  H   H308      1.0  0.17000  0.18526  0.92546  1.0000
  H   H309      1.0  0.14796  0.17331  0.91728  1.0000
  H   H310      1.0  0.14941  0.16589  0.72661  1.0000
  H   H311      1.0  0.13198  0.17799  0.75691  1.0000
  H   H312      1.0  0.14254  0.19069  0.71661  1.0000
  H   H313      1.0  0.27309  0.11845  0.93107  1.0000
  C   C176      1.0  0.18009  0.22371  0.51645  1.0000
  H   H314      1.0  0.27534  0.19308  0.95740  1.0000
  H   H315      1.0  0.17963  0.14868  0.75075  1.0000
  C   C177      1.0  0.18520  0.23849  0.95370  1.0000
  H   H316      1.0  0.20970  0.12416  0.71263  1.0000
  C   C178      1.0  0.13800  0.08543  0.53496  1.0000
  H   H317      1.0  0.10980  0.16243  0.56110  1.0000
  C   C179      1.0  0.28780  0.23514  0.64204  1.0000
  H   H318      1.0  0.23945  0.18197  0.96109  1.0000
  C   C180      1.0  0.98793  0.04483  0.83880  1.0000
  C   C181      1.0  0.30569  0.19497  0.66624  1.0000
  H   H319      1.0  0.25938  0.22960  0.59009  1.0000
  S   S38       1.0  0.08789  0.00666  0.89689  1.0000
  H   H320      1.0  0.24780  0.17873  0.82604  1.0000
  H   H321      1.0  0.15907  0.15100  0.98245  1.0000
  H   H322      1.0  0.25588  0.20898  0.75981  1.0000
  H   H323      1.0  0.21099  0.12584  0.64361  1.0000
  C   C182      1.0  0.27551  0.14810  0.95510  1.0000
  C   C183      1.0  0.19623  0.11648  0.71513  1.0000
  H   H324      1.0  0.18462  0.14186  0.80106  1.0000
  H   H325      1.0  0.98436  0.06254  0.78739  1.0000
  H   H326      1.0  0.02848  0.07141  0.56220  1.0000
  C   C184      1.0  0.02090  0.06247  0.58239  1.0000
  C   C185      1.0  0.30208  0.12303  0.94531  1.0000
  H   H327      1.0  0.10991  0.08857  0.55794  1.0000
  H   H328      1.0  0.21571  0.24739  0.78379  1.0000
  H   H329      1.0  0.07186  0.12878  0.99266  1.0000
  H   H330      1.0  0.16870  0.16528  0.89090  1.0000
  H   H331      1.0  0.13263  0.15145  0.57273  1.0000
  C   C186      1.0  0.28288  0.13074  0.92991  1.0000
  H   H332      1.0  0.26317  0.19352  0.65689  1.0000
  H   H333      1.0  0.27060  0.24130  0.79450  1.0000
  H   H334      1.0  0.01579  0.03361  0.51932  1.0000
  H   H335      1.0  0.25026  0.21538  0.64941  1.0000
  C   C187      1.0  0.26207  0.20024  0.57070  1.0000
  C   C188      1.0  0.14302  0.12903  0.95211  1.0000
  H   H336      1.0  0.27672  0.17155  0.89883  1.0000
  H   H337      1.0  0.25909  0.24834  0.64947  1.0000
  H   H338      1.0  0.25178  0.19379  0.59073  1.0000
  H   H339      1.0  0.18533  0.05596  0.69654  1.0000
  H   H340      1.0  0.24106  0.13602  0.96569  1.0000
  C   C189      1.0  0.22036  0.23409  0.79975  1.0000
  H   H341      1.0  0.26781  0.19320  0.83998  1.0000
  C   C190      1.0  0.25439  0.20379  0.72905  1.0000
  H   H342      1.0  0.29588  0.18751  0.68595  1.0000
  H   H343      1.0  0.30748  0.11134  0.92556  1.0000
  H   H344      1.0  0.15376  0.24768  0.77866  1.0000
  C   C191      1.0  0.25890  0.20525  0.00479  1.0000
  C   C192      1.0  0.16111  0.25069  0.80691  1.0000
  C   C193      1.0  0.21822  0.24465  0.69422  1.0000
  H   H345      1.0  0.23881  0.24871  0.99493  1.0000
  C   C194      1.0  0.27340  0.25265  0.64081  1.0000
  C   C195      1.0  0.17961  0.25210  0.70512  1.0000
  H   H346      1.0  0.05661  0.00819  0.84139  1.0000
  H   H347      1.0  0.98750  0.10632  0.93485  1.0000
  H   H348      1.0  0.23424  0.24983  0.56480  1.0000
  H   H349      1.0  0.16748  0.08482  0.51971  1.0000
  S   S39       1.0  0.30861  0.18647  0.82017  1.0000
  S   S40       1.0  0.09274  0.03300  0.51535  1.0000
  H   H350      1.0  0.30691  0.35164  0.41641  1.0000
  H   H351      1.0  0.25296  0.27422  0.41544  1.0000
  H   H352      1.0  0.18688  0.33470  0.48954  1.0000
  H   H353      1.0  0.01035  0.45662  0.42156  1.0000
  S   S41       1.0  0.20803  0.25611  0.28164  1.0000
  C   C196      1.0  0.28027  0.28610  0.40275  1.0000
  H   H354      1.0  0.15761  0.36116  0.41150  1.0000
  Fe  Fe20      1.0  0.10075  0.41147  0.20442  1.0000
  S   S42       1.0  0.09407  0.43973  0.23473  1.0000
  S   S43       1.0  0.13023  0.39771  0.20555  1.0000
  Fe  Fe21      1.0  0.06086  0.40723  0.17409  1.0000
  S   S44       1.0  0.05041  0.43474  0.20227  1.0000
  S   S45       1.0  0.04067  0.38899  0.13939  1.0000
  Fe  Fe22      1.0  0.07705  0.44758  0.18061  1.0000
  S   S46       1.0  0.07177  0.47897  0.16409  1.0000
  Fe  Fe23      1.0  0.06785  0.42532  0.25417  1.0000
  S   S47       1.0  0.05593  0.43287  0.31309  1.0000
  S   S48       1.0  0.08625  0.42070  0.14756  1.0000
  S   S49       1.0  0.07574  0.39623  0.22863  1.0000
  Fe  Fe24      1.0  0.21233  0.31405  0.36568  1.0000
  S   S50       1.0  0.18583  0.31882  0.39958  1.0000
  S   S51       1.0  0.23752  0.33253  0.37950  1.0000
  Fe  Fe25      1.0  0.19633  0.28000  0.32063  1.0000
  S   S52       1.0  0.16837  0.28167  0.35178  1.0000
  C   C197      1.0  0.00935  0.49232  0.15278  1.0000
  Fe  Fe26      1.0  0.17039  0.31392  0.34258  1.0000
  S   S53       1.0  0.14396  0.33298  0.33589  1.0000
  Fe  Fe27      1.0  0.18582  0.28668  0.40631  1.0000
  H   H355      1.0  0.04449  0.40026  0.50712  1.0000
  S   S54       1.0  0.19716  0.31195  0.30734  1.0000
  S   S55       1.0  0.21357  0.28205  0.37637  1.0000
  H   H356      1.0  0.06336  0.42889  0.50774  1.0000
  H   H357      1.0  0.99118  0.43820  0.36072  1.0000
  H   H358      1.0  0.02633  0.36756  0.50704  1.0000
  H   H359      1.0  0.03409  0.36375  0.06039  1.0000
  H   H360      1.0  0.21186  0.33820  0.49604  1.0000
  C   C198      1.0  0.99880  0.42975  0.07631  1.0000
  H   H361      1.0  0.16928  0.38363  0.42144  1.0000
  C   C199      1.0  0.00737  0.39765  0.10063  1.0000
  C   C200      1.0  0.02476  0.40449  0.11429  1.0000
  C   C201      1.0  0.02938  0.42378  0.10789  1.0000
  C   C202      1.0  0.01635  0.43643  0.08921  1.0000
  H   H362      1.0  0.98395  0.34298  0.21691  1.0000
  H   H363      1.0  0.22590  0.28522  0.04044  1.0000
  H   H364      1.0  0.04299  0.42901  0.11748  1.0000
  H   H365      1.0  0.01997  0.45137  0.08452  1.0000
  C   C203      1.0  0.03205  0.42677  0.31330  1.0000
  C   C204      1.0  0.02526  0.41269  0.28745  1.0000
  C   C205      1.0  0.00614  0.40775  0.28820  1.0000
  C   C206      1.0  0.99377  0.41700  0.31446  1.0000
  C   C207      1.0  0.00062  0.43098  0.34044  1.0000
  C   C208      1.0  0.01970  0.43597  0.33957  1.0000
  H   H366      1.0  0.03477  0.40543  0.26718  1.0000
  H   H367      1.0  0.00101  0.39664  0.26868  1.0000
  C   C209      1.0  0.99245  0.47455  0.22493  1.0000
  H   H368      1.0  0.02476  0.44732  0.35847  1.0000
  C   C210      1.0  0.08001  0.48787  0.11941  1.0000
  H   H369      1.0  0.26787  0.38485  0.35380  1.0000
  S   S56       1.0  0.18014  0.27701  0.46806  1.0000
  C   C211      1.0  0.09252  0.47694  0.09622  1.0000
  C   C212      1.0  0.17578  0.42025  0.24934  1.0000
  C   C213      1.0  0.98464  0.35899  0.21979  1.0000
  H   H370      1.0  0.09707  0.46253  0.10534  1.0000
  C   C214      1.0  0.13424  0.37976  0.24181  1.0000
  C   C215      1.0  0.14969  0.36660  0.23872  1.0000
  C   C216      1.0  0.15287  0.35206  0.26723  1.0000
  C   C217      1.0  0.14074  0.35084  0.29924  1.0000
  C   C218      1.0  0.12550  0.36416  0.30253  1.0000
  C   C219      1.0  0.12225  0.37856  0.27398  1.0000
  H   H371      1.0  0.15895  0.36739  0.21376  1.0000
  H   H372      1.0  0.16436  0.34153  0.26399  1.0000
  H   H373      1.0  0.11606  0.36327  0.32717  1.0000
  H   H374      1.0  0.11047  0.38876  0.27696  1.0000
  H   H375      1.0  0.26414  0.26412  0.37246  1.0000
  H   H376      1.0  0.25419  0.40724  0.35661  1.0000
  C   C220      1.0  0.98690  0.47738  0.29816  1.0000
  H   H377      1.0  0.19942  0.27606  0.08017  1.0000
  H   H378      1.0  0.16825  0.40907  0.23207  1.0000
  C   C221      1.0  0.29102  0.29778  0.26708  1.0000
  C   C222      1.0  0.10044  0.42194  0.51335  1.0000
  C   C223      1.0  0.23736  0.31169  0.44747  1.0000
  C   C224      1.0  0.24686  0.32535  0.42560  1.0000
  C   C225      1.0  0.26400  0.33257  0.44017  1.0000
  H   H379      1.0  0.25006  0.27738  0.03265  1.0000
  S   S57       1.0  0.28702  0.30216  0.02838  1.0000
  H   H380      1.0  0.22388  0.30648  0.43741  1.0000
  H   H381      1.0  0.27129  0.34335  0.42358  1.0000
  H   H382      1.0  0.97888  0.40998  0.16407  1.0000
  H   H383      1.0  0.19922  0.26434  0.12711  1.0000
  H   H384      1.0  0.14750  0.48529  0.24111  1.0000
  C   C226      1.0  0.30485  0.30346  0.33559  1.0000
  C   C227      1.0  0.99378  0.43305  0.19453  1.0000
  H   H385      1.0  0.00380  0.38272  0.10566  1.0000
  H   H386      1.0  0.28497  0.33120  0.48735  1.0000
  C   C228      1.0  0.27178  0.32564  0.47607  1.0000
  H   H387      1.0  0.29936  0.26717  0.36933  1.0000
  H   H388      1.0  0.28283  0.31174  0.26841  1.0000
  H   H389      1.0  0.98805  0.49341  0.29769  1.0000
  C   C229      1.0  0.08983  0.47192  0.34705  1.0000
  H   H390      1.0  0.23538  0.37834  0.37222  1.0000
  H   H391      1.0  0.01488  0.49169  0.09035  1.0000
  H   H392      1.0  0.98093  0.40502  0.07101  1.0000
  H   H393      1.0  0.10532  0.49800  0.35266  1.0000
  C   C230      1.0  0.08391  0.47014  0.38985  1.0000
  C   C231      1.0  0.07781  0.49070  0.26912  1.0000
  H   H394      1.0  0.03738  0.35786  0.46319  1.0000
  C   C232      1.0  0.09951  0.48491  0.06153  1.0000
  H   H395      1.0  0.13893  0.35013  0.47451  1.0000
  H   H396      1.0  0.07808  0.47467  0.26605  1.0000
  H   H397      1.0  0.28103  0.29198  0.43309  1.0000
  H   H398      1.0  0.00634  0.46708  0.23132  1.0000
  C   C233      1.0  0.09261  0.49341  0.33582  1.0000
  H   H399      1.0  0.26835  0.26745  0.10422  1.0000
  C   C234      1.0  0.19302  0.41111  0.27052  1.0000
  H   H400      1.0  0.25987  0.39669  0.30920  1.0000
  H   H401      1.0  0.12839  0.32689  0.46488  1.0000
  H   H402      1.0  0.10325  0.46339  0.34345  1.0000
  H   H403      1.0  0.07878  0.46521  0.32864  1.0000
  H   H404      1.0  0.10571  0.48404  0.21494  1.0000
  H   H405      1.0  0.01604  0.46400  0.47129  1.0000
  H   H406      1.0  0.28722  0.30226  0.17832  1.0000
  H   H407      1.0  0.28300  0.28746  0.24852  1.0000
  H   H408      1.0  0.29341  0.28213  0.14685  1.0000
  H   H409      1.0  0.27975  0.28659  0.32016  1.0000
  H   H410      1.0  0.12477  0.49027  0.29670  1.0000
  C   C235      1.0  0.05812  0.49692  0.28498  1.0000
  C   C236      1.0  0.08700  0.41200  0.48447  1.0000
  C   C237      1.0  0.00137  0.47175  0.15591  1.0000
  C   C238      1.0  0.99445  0.41026  0.08122  1.0000
  N   N11       1.0  0.98539  0.46953  0.18422  1.0000
  H   H411      1.0  0.08296  0.45461  0.39768  1.0000
  H   H412      1.0  0.09439  0.47694  0.40990  1.0000
  N   N12       1.0  0.20232  0.38315  0.31997  1.0000
  C   C239      1.0  0.22093  0.39343  0.32243  1.0000
  C   C240      1.0  0.18697  0.39624  0.30183  1.0000
  C   C241      1.0  0.19662  0.37858  0.36150  1.0000
  C   C242      1.0  0.20407  0.36429  0.29763  1.0000
  C   C243      1.0  0.21061  0.36570  0.25458  1.0000
  C   C244      1.0  0.23793  0.38180  0.34098  1.0000
  C   C245      1.0  0.17681  0.36965  0.36606  1.0000
  C   C246      1.0  0.21358  0.34560  0.23631  1.0000
  H   H413      1.0  0.99419  0.50210  0.02660  1.0000
  C   C247      1.0  0.17122  0.36878  0.40921  1.0000
  H   H414      1.0  0.21906  0.40714  0.33958  1.0000
  H   H415      1.0  0.22560  0.39798  0.29300  1.0000
  H   H416      1.0  0.17550  0.38738  0.28865  1.0000
  H   H417      1.0  0.17986  0.40525  0.32487  1.0000
  H   H418      1.0  0.19704  0.39194  0.38001  1.0000
  H   H419      1.0  0.20677  0.36792  0.37531  1.0000
  H   H420      1.0  0.21357  0.35377  0.31362  1.0000
  H   H421      1.0  0.19019  0.35714  0.29623  1.0000
  H   H422      1.0  0.22417  0.37331  0.25246  1.0000
  H   H423      1.0  0.19954  0.37334  0.23657  1.0000
  H   H424      1.0  0.15919  0.26132  0.17717  1.0000
  H   H425      1.0  0.24075  0.36810  0.32468  1.0000
  H   H426      1.0  0.17713  0.35463  0.35446  1.0000
  H   H427      1.0  0.16544  0.37795  0.35019  1.0000
  H   H428      1.0  0.20228  0.40450  0.24793  1.0000
  H   H429      1.0  0.20005  0.33774  0.23546  1.0000
  H   H430      1.0  0.21856  0.34706  0.20569  1.0000
  H   H431      1.0  0.22440  0.33698  0.25329  1.0000
  H   H432      1.0  0.00112  0.47068  0.30421  1.0000
  H   H433      1.0  0.29833  0.31791  0.40792  1.0000
  H   H434      1.0  0.18218  0.36071  0.42681  1.0000
  C   C248      1.0  0.29397  0.28933  0.30821  1.0000
  H   H435      1.0  0.00587  0.43251  0.17418  1.0000
  C   C249      1.0  0.19833  0.33654  0.51183  1.0000
  C   C250      1.0  0.28337  0.29465  0.15069  1.0000
  H   H436      1.0  0.01735  0.49589  0.18000  1.0000
  C   C251      1.0  0.26235  0.31150  0.49720  1.0000
  H   H437      1.0  0.30487  0.30014  0.25303  1.0000
  N   N13       1.0  0.05273  0.41539  0.45479  1.0000
  C   C252      1.0  0.04672  0.39724  0.47528  1.0000
  C   C253      1.0  0.26671  0.26931  0.40292  1.0000
  C   C254      1.0  0.03606  0.42962  0.45543  1.0000
  C   C255      1.0  0.05830  0.41178  0.41256  1.0000
  C   C256      1.0  0.06808  0.39186  0.40300  1.0000
  C   C257      1.0  0.02826  0.38823  0.45900  1.0000
  C   C258      1.0  0.03968  0.45034  0.44024  1.0000
  C   C259      1.0  0.06879  0.34889  0.08654  1.0000
  C   C260      1.0  0.07549  0.39124  0.36102  1.0000
  C   C261      1.0  0.02593  0.36766  0.47438  1.0000
  C   C262      1.0  0.02148  0.46282  0.44088  1.0000
  H   H438      1.0  0.01371  0.46222  0.16435  1.0000
  H   H439      1.0  0.05804  0.38582  0.47474  1.0000
  C   C263      1.0  0.25603  0.39344  0.33999  1.0000
  C   C264      1.0  0.02288  0.49342  0.11839  1.0000
  C   C265      1.0  0.14087  0.33419  0.47782  1.0000
  H   H440      1.0  0.02408  0.42420  0.43719  1.0000
  H   H441      1.0  0.04564  0.41282  0.39267  1.0000
  H   H442      1.0  0.06763  0.42344  0.40237  1.0000
  H   H443      1.0  0.05788  0.38000  0.40549  1.0000
  H   H444      1.0  0.08009  0.38837  0.42309  1.0000
  H   H445      1.0  0.01574  0.39702  0.46848  1.0000
  H   H446      1.0  0.02796  0.38781  0.42641  1.0000
  H   H447      1.0  0.04526  0.44989  0.40999  1.0000
  H   H448      1.0  0.27412  0.29761  0.38336  1.0000
  H   H449      1.0  0.07835  0.49626  0.23855  1.0000
  H   H450      1.0  0.09461  0.41050  0.45629  1.0000
  H   H451      1.0  0.08291  0.37711  0.35551  1.0000
  H   H452      1.0  0.06355  0.39276  0.33953  1.0000
  H   H453      1.0  0.08562  0.40302  0.35617  1.0000
  H   H454      1.0  0.02889  0.47870  0.03069  1.0000
  H   H455      1.0  0.27260  0.25721  0.42113  1.0000
  C   C266      1.0  0.11695  0.48994  0.23430  1.0000
  H   H456      1.0  0.08300  0.35207  0.09898  1.0000
  H   H457      1.0  0.28493  0.30486  0.12581  1.0000
  H   H458      1.0  0.03417  0.48193  0.12074  1.0000
  C   C267      1.0  0.11220  0.48673  0.27816  1.0000
  H   H459      1.0  0.18037  0.43159  0.22872  1.0000
  H   H460      1.0  0.99699  0.46683  0.12613  1.0000
  C   C268      1.0  0.13552  0.47950  0.22357  1.0000
  H   H461      1.0  0.16581  0.42703  0.27065  1.0000
  H   H462      1.0  0.13836  0.48175  0.19190  1.0000
  H   H463      1.0  0.10946  0.47660  0.04393  1.0000
  N   N14       1.0  0.23797  0.26874  0.11289  1.0000
  H   H464      1.0  0.06893  0.33363  0.07600  1.0000
  C   C269      1.0  0.22288  0.28425  0.11979  1.0000
  H   H465      1.0  0.07341  0.43777  0.46376  1.0000
  C   C270      1.0  0.25705  0.27805  0.11334  1.0000
  C   C271      1.0  0.26302  0.28770  0.15268  1.0000
  H   H466      1.0  0.11066  0.47084  0.28160  1.0000
  H   H467      1.0  0.30137  0.27510  0.30510  1.0000
  C   C272      1.0  0.20216  0.27810  0.11211  1.0000
  C   C273      1.0  0.18795  0.29343  0.12693  1.0000
  C   C274      1.0  0.23548  0.27235  0.03727  1.0000
  H   H468      1.0  0.99626  0.40184  0.19979  1.0000
  N   N15       1.0  0.09475  0.49742  0.29257  1.0000
  H   H469      1.0  0.23476  0.26058  0.17407  1.0000
  H   H470      1.0  0.05829  0.35066  0.11040  1.0000
  H   H471      1.0  0.22370  0.28948  0.15076  1.0000
  H   H472      1.0  0.22535  0.29733  0.10167  1.0000
  H   H473      1.0  0.06502  0.37780  0.06470  1.0000
  C   C275      1.0  0.04225  0.49034  0.25745  1.0000
  S   S58       1.0  0.98200  0.44621  0.05665  1.0000
  H   H474      1.0  0.25738  0.28978  0.09098  1.0000
  H   H475      1.0  0.26223  0.27762  0.17785  1.0000
  H   H476      1.0  0.25369  0.30053  0.15879  1.0000
  H   H477      1.0  0.05002  0.45788  0.45905  1.0000
  C   C276      1.0  0.06862  0.42437  0.47821  1.0000
  H   H478      1.0  0.20088  0.42297  0.28504  1.0000
  H   H479      1.0  0.13461  0.46365  0.22878  1.0000
  H   H480      1.0  0.06978  0.47726  0.39413  1.0000
  H   H481      1.0  0.01208  0.36210  0.46421  1.0000
  H   H482      1.0  0.19004  0.30754  0.11222  1.0000
  H   H483      1.0  0.17332  0.28868  0.12034  1.0000
  H   H484      1.0  0.18944  0.29525  0.15928  1.0000
  C   C277      1.0  0.97890  0.47010  0.25902  1.0000
  H   H485      1.0  0.03061  0.43111  0.48586  1.0000
  C   C278      1.0  0.04316  0.48509  0.03003  1.0000
  H   H486      1.0  0.02454  0.47761  0.43070  1.0000
  H   H487      1.0  0.04241  0.47425  0.25526  1.0000
  H   H488      1.0  0.29479  0.31592  0.34080  1.0000
  C   C279      1.0  0.23511  0.25892  0.07368  1.0000
  C   C280      1.0  0.24520  0.30458  0.48261  1.0000
  H   H489      1.0  0.03021  0.39533  0.03460  1.0000
  C   C281      1.0  0.06402  0.36284  0.05280  1.0000
  H   H490      1.0  0.05183  0.47881  0.05456  1.0000
  C   C282      1.0  0.04376  0.35952  0.03612  1.0000
  H   H491      1.0  0.15355  0.32939  0.46104  1.0000
  H   H492      1.0  0.99535  0.49033  0.22677  1.0000
  H   H493      1.0  0.30750  0.27310  0.41661  1.0000
  H   H494      1.0  0.03005  0.49304  0.36458  1.0000
  C   C283      1.0  0.30047  0.27951  0.39012  1.0000
  H   H495      1.0  0.10335  0.50306  0.50818  1.0000
  H   H496      1.0  0.98594  0.49030  0.46643  1.0000
  H   H497      1.0  0.99934  0.43554  0.22468  1.0000
  H   H498      1.0  0.99807  0.36250  0.23537  1.0000
  C   C284      1.0  0.07720  0.48782  0.51065  1.0000
  H   H499      1.0  0.17469  0.27176  0.23960  1.0000
  C   C285      1.0  0.18022  0.25925  0.22380  1.0000
  H   H500      1.0  0.07503  0.36073  0.03025  1.0000
  H   H501      1.0  0.04182  0.34368  0.03187  1.0000
  H   H502      1.0  0.08423  0.39748  0.49655  1.0000
  S   S59       1.0  0.06629  0.49968  0.47027  1.0000
  H   H503      1.0  0.10390  0.43665  0.50281  1.0000
  H   H504      1.0  0.02835  0.49537  0.26909  1.0000
  H   H505      1.0  0.23791  0.29351  0.49823  1.0000
  H   H506      1.0  0.04395  0.49653  0.22768  1.0000
  H   H507      1.0  0.00459  0.36399  0.04249  1.0000
  H   H508      1.0  0.98488  0.36558  0.19006  1.0000
  H   H509      1.0  0.05574  0.49016  0.31391  1.0000
  H   H510      1.0  0.29363  0.25634  0.01937  1.0000
  C   C286      1.0  0.98508  0.41307  0.19351  1.0000
  H   H511      1.0  0.08067  0.50232  0.34800  1.0000
  H   H512      1.0  0.99734  0.49644  0.39854  1.0000
  H   H513      1.0  0.05334  0.39620  0.01600  1.0000
  C   C287      1.0  0.97893  0.44891  0.18199  1.0000
  H   H514      1.0  0.99801  0.50348  0.14816  1.0000
  H   H515      1.0  0.04186  0.50103  0.03453  1.0000
  C   C288      1.0  0.16087  0.37255  0.62602  1.0000
  H   H516      1.0  0.13562  0.26452  0.83086  1.0000
  C   C289      1.0  0.00128  0.40032  0.54530  1.0000
  C   C290      1.0  0.17494  0.37049  0.88597  1.0000
  S   S60       1.0  0.27092  0.30235  0.54245  1.0000
  H   H517      1.0  0.16845  0.33164  0.87126  1.0000
  C   C291      1.0  0.14947  0.38996  0.85549  1.0000
  Fe  Fe28      1.0  0.08875  0.39193  0.68168  1.0000
  S   S61       1.0  0.09366  0.42230  0.70320  1.0000
  S   S62       1.0  0.10451  0.36387  0.69730  1.0000
  Fe  Fe29      1.0  0.05455  0.40418  0.63123  1.0000
  S   S63       1.0  0.05661  0.43544  0.64823  1.0000
  S   S64       1.0  0.03237  0.39129  0.59114  1.0000
  Fe  Fe30      1.0  0.08780  0.43095  0.64036  1.0000
  S   S65       1.0  0.10557  0.45327  0.61096  1.0000
  Fe  Fe31      1.0  0.06199  0.42451  0.70936  1.0000
  S   S66       1.0  0.04705  0.44236  0.75597  1.0000
  S   S67       1.0  0.08548  0.40040  0.61821  1.0000
  S   S68       1.0  0.05745  0.39339  0.69317  1.0000
  Fe  Fe32      1.0  0.23962  0.32413  0.83402  1.0000
  S   S69       1.0  0.21211  0.33480  0.85939  1.0000
  S   S70       1.0  0.26876  0.33216  0.85571  1.0000
  Fe  Fe33      1.0  0.22014  0.29940  0.77267  1.0000
  S   S71       1.0  0.19080  0.30747  0.79287  1.0000
  H   H518      1.0  0.16798  0.26481  0.95326  1.0000
  Fe  Fe34      1.0  0.20169  0.33768  0.79685  1.0000
  S   S72       1.0  0.18638  0.36509  0.77591  1.0000
  Fe  Fe35      1.0  0.20339  0.30387  0.85359  1.0000
  S   S73       1.0  0.18622  0.29124  0.90205  1.0000
  S   S74       1.0  0.23012  0.32989  0.77184  1.0000
  S   S75       1.0  0.23175  0.29296  0.83295  1.0000
  C   C292      1.0  0.00349  0.49304  0.77513  1.0000
  C   C293      1.0  0.04047  0.48810  0.95589  1.0000
  C   C294      1.0  0.21638  0.32006  0.56815  1.0000
  C   C295      1.0  0.98384  0.36157  0.99668  1.0000
  H   H519      1.0  0.09548  0.35814  0.61347  1.0000
  H   H520      1.0  0.20259  0.29516  0.65079  1.0000
  H   H521      1.0  0.15636  0.33594  0.53220  1.0000
  H   H522      1.0  0.17011  0.32614  0.66285  1.0000
  C   C296      1.0  0.01648  0.40757  0.56728  1.0000
  C   C297      1.0  0.01918  0.42755  0.56857  1.0000
  C   C298      1.0  0.00673  0.44024  0.54808  1.0000
  C   C299      1.0  0.19271  0.26765  0.91757  1.0000
  H   H523      1.0  0.14673  0.30453  0.87722  1.0000
  H   H524      1.0  0.03109  0.43323  0.58453  1.0000
  H   H525      1.0  0.00900  0.45569  0.54887  1.0000
  C   C300      1.0  0.03445  0.42957  0.79126  1.0000
  C   C301      1.0  0.03749  0.40963  0.79674  1.0000
  C   C302      1.0  0.02793  0.40000  0.82655  1.0000
  C   C303      1.0  0.01514  0.41021  0.85063  1.0000
  C   C304      1.0  0.01187  0.43008  0.84465  1.0000
  C   C305      1.0  0.02165  0.43974  0.81530  1.0000
  H   H526      1.0  0.04748  0.40171  0.77855  1.0000
  H   H527      1.0  0.03047  0.38462  0.83101  1.0000
  H   H528      1.0  0.00198  0.43807  0.86293  1.0000
  H   H529      1.0  0.01945  0.45515  0.81150  1.0000
  C   C306      1.0  0.09457  0.46640  0.57224  1.0000
  C   C307      1.0  0.07606  0.46250  0.56021  1.0000
  H   H530      1.0  0.11992  0.39738  0.86943  1.0000
  C   C308      1.0  0.03472  0.49346  0.88598  1.0000
  H   H531      1.0  0.06841  0.45119  0.57432  1.0000
  C   C309      1.0  0.03168  0.40561  0.97476  1.0000
  N   N16       1.0  0.04935  0.48640  0.91579  1.0000
  C   C310      1.0  0.12719  0.36449  0.71927  1.0000
  C   C311      1.0  0.13692  0.38179  0.72279  1.0000
  C   C312      1.0  0.15517  0.38171  0.73984  1.0000
  C   C313      1.0  0.16374  0.36440  0.75356  1.0000
  C   C314      1.0  0.15400  0.34708  0.74993  1.0000
  C   C315      1.0  0.13581  0.34713  0.73266  1.0000
  H   H532      1.0  0.13044  0.39520  0.71217  1.0000
  H   H533      1.0  0.16267  0.39514  0.74242  1.0000
  H   H534      1.0  0.16043  0.33368  0.76055  1.0000
  H   H535      1.0  0.12833  0.33370  0.72991  1.0000
  H   H536      1.0  0.20727  0.37213  0.93460  1.0000
  H   H537      1.0  0.07198  0.43396  0.83640  1.0000
  C   C316      1.0  0.13270  0.29458  0.58876  1.0000
  C   C317      1.0  0.15074  0.26782  0.82632  1.0000
  C   C318      1.0  0.06223  0.49678  0.76087  1.0000
  C   C319      1.0  0.22939  0.26158  0.00016  1.0000
  C   C320      1.0  0.26469  0.30706  0.96268  1.0000
  C   C321      1.0  0.26049  0.31359  0.92445  1.0000
  C   C322      1.0  0.27373  0.32418  0.90397  1.0000
  C   C323      1.0  0.29125  0.32810  0.92188  1.0000
  C   C324      1.0  0.29565  0.32113  0.95983  1.0000
  C   C325      1.0  0.05372  0.46515  0.90844  1.0000
  H   H538      1.0  0.24689  0.31061  0.91106  1.0000
  H   H539      1.0  0.14115  0.31450  0.63425  1.0000
  C   C326      1.0  0.23654  0.30585  0.62173  1.0000
  H   H540      1.0  0.10811  0.32619  0.63737  1.0000
  H   H541      1.0  0.19517  0.34988  0.52916  1.0000
  H   H542      1.0  0.15367  0.36286  0.56803  1.0000
  H   H543      1.0  0.98331  0.46005  0.78126  1.0000
  N   N17       1.0  0.21766  0.30487  0.60006  1.0000
  H   H544      1.0  0.07282  0.33565  0.64190  1.0000
  H   H545      1.0  0.02107  0.41438  0.66699  1.0000
  H   H546      1.0  0.18378  0.34012  0.69719  1.0000
  H   H547      1.0  0.02589  0.43102  0.01118  1.0000
  H   H548      1.0  0.18771  0.30490  0.61326  1.0000
  H   H549      1.0  0.30137  0.33665  0.90655  1.0000
  H   H550      1.0  0.29220  0.27583  0.65653  1.0000
  C   C327      1.0  0.02087  0.47743  0.63085  1.0000
  H   H551      1.0  0.98461  0.34547  0.99699  1.0000
  H   H552      1.0  0.09126  0.34845  0.56507  1.0000
  H   H553      1.0  0.18797  0.27962  0.72884  1.0000
  C   C328      1.0  0.99989  0.43471  0.68912  1.0000
  C   C329      1.0  0.06644  0.43772  0.86594  1.0000
  H   H554      1.0  0.15993  0.28309  0.56813  1.0000
  C   C330      1.0  0.21211  0.26231  0.71059  1.0000
  H   H555      1.0  0.15786  0.38870  0.82799  1.0000
  H   H556      1.0  0.22947  0.31923  0.55032  1.0000
  C   C331      1.0  0.18360  0.32649  0.67982  1.0000
  H   H557      1.0  0.28112  0.26752  0.91431  1.0000
  H   H558      1.0  0.05015  0.47739  0.64977  1.0000
  C   C332      1.0  0.01035  0.41505  0.69046  1.0000
  H   H559      1.0  0.25705  0.32256  0.68387  1.0000
  H   H560      1.0  0.01765  0.41291  0.71928  1.0000
  C   C333      1.0  0.99844  0.47849  0.74297  1.0000
  H   H561      1.0  0.20268  0.28345  0.56522  1.0000
  H   H562      1.0  0.01040  0.44611  0.69390  1.0000
  C   C334      1.0  0.27925  0.26920  0.66773  1.0000
  H   H563      1.0  0.30917  0.32419  0.97347  1.0000
  N   N18       1.0  0.12704  0.33192  0.58932  1.0000
  H   H564      1.0  0.07247  0.49622  0.85118  1.0000
  H   H565      1.0  0.27222  0.25844  0.61037  1.0000
  H   H566      1.0  0.02153  0.46196  0.62198  1.0000
  H   H567      1.0  0.07698  0.43267  0.88845  1.0000
  C   C335      1.0  0.20154  0.30691  0.62849  1.0000
  H   H568      1.0  0.25153  0.33015  0.59567  1.0000
  C   C336      1.0  0.27962  0.31003  0.75215  1.0000
  H   H569      1.0  0.18587  0.31768  0.55384  1.0000
  C   C337      1.0  0.28772  0.25427  0.98927  1.0000
  H   H570      1.0  0.10156  0.31509  0.59198  1.0000
  C   C338      1.0  0.01905  0.36446  0.98529  1.0000
  Fe  Fe36      1.0  0.30157  0.30515  0.56000  1.0000
  H   H571      1.0  0.27553  0.30008  0.77593  1.0000
  H   H572      1.0  0.26850  0.32159  0.74955  1.0000
  H   H573      1.0  0.28054  0.30172  0.72424  1.0000
  C   C339      1.0  0.30924  0.36952  0.68605  1.0000
  H   H574      1.0  0.98430  0.46742  0.67119  1.0000
  H   H575      1.0  0.15406  0.40346  0.87031  1.0000
  H   H576      1.0  0.98227  0.34380  0.65099  1.0000
  H   H577      1.0  0.30898  0.30661  0.76512  1.0000
  H   H578      1.0  0.11543  0.39062  0.96782  1.0000
  H   H579      1.0  0.14651  0.31287  0.52211  1.0000
  H   H580      1.0  0.06582  0.37357  0.97186  1.0000
  H   H581      1.0  0.13126  0.35474  0.85748  1.0000
  H   H582      1.0  0.01881  0.34847  0.98139  1.0000
  C   C340      1.0  0.29862  0.31889  0.76228  1.0000
  H   H583      1.0  0.17566  0.25537  0.80054  1.0000
  H   H584      1.0  0.04588  0.48393  0.59934  1.0000
  H   H585      1.0  0.15204  0.35438  0.82969  1.0000
  H   H586      1.0  0.11408  0.32559  0.53264  1.0000
  H   H587      1.0  0.06799  0.32582  0.59335  1.0000
  C   C341      1.0  0.18079  0.25772  0.94270  1.0000
  H   H588      1.0  0.00041  0.40306  0.68530  1.0000
  H   H589      1.0  0.15547  0.27846  0.61958  1.0000
  H   H590      1.0  0.16498  0.34475  0.59935  1.0000
  N   N19       1.0  0.30745  0.26191  0.88361  1.0000
  C   C342      1.0  0.14358  0.32874  0.52109  1.0000
  C   C343      1.0  0.13420  0.34996  0.60930  1.0000
  H   H591      1.0  0.99388  0.43619  0.65889  1.0000
  C   C344      1.0  0.12572  0.33442  0.54521  1.0000
  H   H592      1.0  0.00031  0.38583  0.01464  1.0000
  C   C345      1.0  0.15347  0.33497  0.87899  1.0000
  C   C346      1.0  0.20599  0.38367  0.91193  1.0000
  H   H593      1.0  0.15416  0.31639  0.59066  1.0000
  H   H594      1.0  0.06373  0.45926  0.93115  1.0000
  H   H595      1.0  0.05307  0.42995  0.87015  1.0000
  H   H596      1.0  0.17484  0.37773  0.61661  1.0000
  H   H597      1.0  0.19930  0.33887  0.63334  1.0000
  S   S76       1.0  0.99056  0.44537  0.94611  1.0000
  H   H598      1.0  0.02670  0.48050  0.95614  1.0000
  C   C347      1.0  0.98905  0.41297  0.52407  1.0000
  H   H599      1.0  0.13496  0.40920  0.78914  1.0000
  C   C348      1.0  0.03479  0.42676  0.98584  1.0000
  C   C349      1.0  0.07264  0.33881  0.60988  1.0000
  C   C350      1.0  0.14691  0.35459  0.86044  1.0000
  C   C351      1.0  0.09224  0.34482  0.59678  1.0000
  C   C352      1.0  0.21658  0.28523  0.58048  1.0000
  C   C353      1.0  0.29801  0.25559  0.84572  1.0000
  H   H600      1.0  0.21300  0.39679  0.92343  1.0000
  C   C354      1.0  0.12492  0.36760  0.92792  1.0000
  H   H601      1.0  0.08304  0.34924  0.92725  1.0000
  C   C355      1.0  0.26235  0.32563  0.65409  1.0000
  Fe  Fe37      1.0  0.98221  0.41719  0.91950  1.0000
  C   C356      1.0  0.14162  0.31832  0.86350  1.0000
  N   N20       1.0  0.15365  0.37252  0.88131  1.0000
  H   H602      1.0  0.12253  0.38143  0.82717  1.0000
  C   C357      1.0  0.19953  0.31877  0.53857  1.0000
  H   H603      1.0  0.23013  0.27139  0.97444  1.0000
  C   C358      1.0  0.05225  0.36609  0.96657  1.0000
  C   C359      1.0  0.14515  0.37528  0.92159  1.0000
  H   H604      1.0  0.99058  0.43216  0.74925  1.0000
  H   H605      1.0  0.05405  0.46433  0.84354  1.0000
  H   H606      1.0  0.15263  0.33531  0.91151  1.0000
  H   H607      1.0  0.14343  0.26496  0.58176  1.0000
  H   H608      1.0  0.18499  0.40027  0.88007  1.0000
  H   H609      1.0  0.26776  0.28048  0.66831  1.0000
  H   H610      1.0  0.23577  0.33766  0.63378  1.0000
  H   H611      1.0  0.03067  0.43617  0.96068  1.0000
  H   H612      1.0  0.30068  0.37709  0.70877  1.0000
  H   H613      1.0  0.17885  0.35824  0.90598  1.0000
  H   H614      1.0  0.04049  0.45677  0.91059  1.0000
  H   H615      1.0  0.17837  0.39405  0.92945  1.0000
  H   H616      1.0  0.14297  0.31698  0.83111  1.0000
  H   H617      1.0  0.05451  0.46441  0.98993  1.0000
  H   H618      1.0  0.27743  0.28004  0.83735  1.0000
  C   C360      1.0  0.11704  0.37455  0.96733  1.0000
  S   S77       1.0  0.00383  0.39811  0.88880  1.0000
  H   H619      1.0  0.27311  0.31436  0.64579  1.0000
  C   C361      1.0  0.12654  0.41150  0.81611  1.0000
  H   H620      1.0  0.11382  0.41323  0.51652  1.0000
  H   H621      1.0  0.27422  0.26283  0.98662  1.0000
  C   C362      1.0  0.13959  0.31487  0.60160  1.0000
  H   H622      1.0  0.06455  0.33760  0.98439  1.0000
  N   N21       1.0  0.03844  0.37049  0.99909  1.0000
  H   H623      1.0  0.07597  0.49472  0.68478  1.0000
  H   H624      1.0  0.01632  0.40396  0.96904  1.0000
  H   H625      1.0  0.12639  0.29483  0.55871  1.0000
  H   H626      1.0  0.04497  0.48845  0.71192  1.0000
  C   C363      1.0  0.06725  0.49798  0.91570  1.0000
  H   H627      1.0  0.12167  0.28972  0.60922  1.0000
  H   H628      1.0  0.07284  0.32594  0.91849  1.0000
  H   H629      1.0  0.23533  0.30003  0.65202  1.0000
  H   H630      1.0  0.21879  0.26605  0.88577  1.0000
  C   C364      1.0  0.19279  0.26600  0.71634  1.0000
  H   H631      1.0  0.25612  0.26312  0.79076  1.0000
  H   H632      1.0  0.22760  0.28392  0.55750  1.0000
  H   H633      1.0  0.04664  0.37208  0.93821  1.0000
  H   H634      1.0  0.01559  0.37060  0.95570  1.0000
  H   H635      1.0  0.27989  0.26296  0.77288  1.0000
  H   H636      1.0  0.21331  0.32701  0.67181  1.0000
  H   H637      1.0  0.11870  0.48419  0.56271  1.0000
  H   H638      1.0  0.03936  0.40274  0.94710  1.0000
  C   C365      1.0  0.10435  0.48112  0.55352  1.0000
  H   H639      1.0  0.07938  0.48908  0.92779  1.0000
  H   H640      1.0  0.16464  0.25501  0.70914  1.0000
  C   C366      1.0  0.28228  0.31073  0.98044  1.0000
  H   H641      1.0  0.21602  0.33489  0.58071  1.0000
  S   S78       1.0  0.22892  0.27950  0.72338  1.0000
  H   H642      1.0  0.07315  0.48506  0.75687  1.0000
  C   C367      1.0  0.21892  0.26738  0.60788  1.0000
  H   H643      1.0  0.10294  0.36831  0.97206  1.0000
  C   C368      1.0  0.14893  0.27942  0.58971  1.0000
  H   H644      1.0  0.29720  0.32618  0.79115  1.0000
  H   H645      1.0  0.10371  0.50162  0.88360  1.0000
  H   H646      1.0  0.98364  0.48403  0.99548  1.0000
  H   H647      1.0  0.12165  0.34973  0.53796  1.0000
  H   H648      1.0  0.12647  0.32066  0.87100  1.0000
  H   H649      1.0  0.11478  0.37224  0.90456  1.0000
  H   H650      1.0  0.04389  0.33608  0.95322  1.0000
  H   H651      1.0  0.26918  0.33994  0.65459  1.0000
  H   H652      1.0  0.15422  0.36796  0.94452  1.0000
  C   C369      1.0  0.20056  0.32595  0.65257  1.0000
  C   C370      1.0  0.10743  0.32853  0.60491  1.0000
  H   H653      1.0  0.15062  0.38507  0.62603  1.0000
  H   H654      1.0  0.11145  0.41379  0.80714  1.0000
  H   H655      1.0  0.07718  0.46618  0.86699  1.0000
  H   H656      1.0  0.98883  0.36425  0.62185  1.0000
  H   H657      1.0  0.30050  0.36187  0.77549  1.0000
  H   H658      1.0  0.01046  0.46795  0.74046  1.0000
  H   H659      1.0  0.13137  0.42480  0.83132  1.0000
  H   H660      1.0  0.12524  0.35152  0.92830  1.0000
  H   H661      1.0  0.16245  0.36687  0.65645  1.0000
  C   C371      1.0  0.04061  0.48583  0.62972  1.0000
  C   C372      1.0  0.18518  0.38851  0.90231  1.0000
  H   H662      1.0  0.18149  0.36675  0.85730  1.0000
  H   H663      1.0  0.29975  0.35979  0.66932  1.0000
  H   H664      1.0  0.30422  0.27661  0.96495  1.0000
  C   C373      1.0  0.15417  0.35664  0.59810  1.0000
  C   C374      1.0  0.24585  0.32601  0.62464  1.0000
  H   H665      1.0  0.23119  0.26863  0.62829  1.0000
  H   H666      1.0  0.14505  0.39092  0.92990  1.0000
  C   C375      1.0  0.06305  0.45968  0.86895  1.0000
  C   C376      1.0  0.05270  0.48039  0.99109  1.0000
  H   H667      1.0  0.24739  0.29621  0.60761  1.0000
  C   C377      1.0  0.20936  0.25847  0.90452  1.0000
  H   H668      1.0  0.00510  0.48574  0.80403  1.0000
  H   H669      1.0  0.21351  0.37874  0.88507  1.0000
  C   C378      1.0  0.06953  0.34162  0.92301  1.0000
  C   C379      1.0  0.12851  0.39391  0.84326  1.0000
  H   H670      1.0  0.13396  0.34805  0.64182  1.0000
  H   H671      1.0  0.06219  0.35087  0.60432  1.0000
  H   H672      1.0  0.02250  0.48351  0.88500  1.0000
  H   H673      1.0  0.18439  0.31409  0.70058  1.0000
  C   C380      1.0  0.05693  0.34429  0.95890  1.0000
  H   H674      1.0  0.25424  0.29918  0.97848  1.0000
  C   C381      1.0  0.27776  0.26396  0.83686  1.0000
  H   H675      1.0  0.01103  0.48546  0.61050  1.0000
  H   H676      1.0  0.07512  0.49540  0.61747  1.0000
  H   H677      1.0  0.29187  0.34267  0.72354  1.0000
  H   H678      1.0  0.30601  0.38984  0.82316  1.0000
  H   H679      1.0  0.12472  0.36269  0.60292  1.0000
  H   H680      1.0  0.01540  0.47837  0.66111  1.0000
  H   H681      1.0  0.06214  0.34728  0.89618  1.0000
  H   H682      1.0  0.06690  0.48690  0.99166  1.0000
  C   C382      1.0  0.29403  0.25792  0.91663  1.0000
  C   C383      1.0  0.27074  0.25738  0.79630  1.0000
  H   H683      1.0  0.12661  0.36981  0.99190  1.0000
  H   H684      1.0  0.99924  0.38486  0.54406  1.0000
  H   H685      1.0  0.99674  0.48686  0.71539  1.0000
  H   H686      1.0  0.20592  0.26575  0.62538  1.0000
  H   H687      1.0  0.15747  0.27121  0.85512  1.0000
  H   H688      1.0  0.15145  0.28080  0.80724  1.0000
  H   H689      1.0  0.29779  0.29195  0.87984  1.0000
  H   H690      1.0  0.20147  0.30594  0.51908  1.0000
  H   H691      1.0  0.98092  0.36656  0.96611  1.0000
  C   C384      1.0  0.99182  0.43295  0.52533  1.0000
  H   H692      1.0  0.28183  0.26403  0.69825  1.0000
  H   H693      1.0  0.30749  0.32501  0.70279  1.0000
  H   H694      1.0  0.09391  0.42330  0.54276  1.0000
  C   C385      1.0  0.98398  0.43585  0.72014  1.0000
  C   C386      1.0  0.98069  0.49740  0.01289  1.0000
  H   H695      1.0  0.26749  0.25871  0.85853  1.0000
  C   C387      1.0  0.30182  0.26108  0.95901  1.0000
  H   H696      1.0  0.05167  0.49157  0.78198  1.0000
  H   H697      1.0  0.30407  0.39282  0.64418  1.0000
  C   C388      1.0  0.09566  0.49189  0.52284  1.0000
  C   C389      1.0  0.30465  0.33341  0.73017  1.0000
  C   C390      1.0  0.98013  0.46800  0.75342  1.0000
  H   H698      1.0  0.04043  0.49288  0.85581  1.0000
  C   C391      1.0  0.03870  0.39188  0.00816  1.0000
  H   H699      1.0  0.30664  0.25933  0.82021  1.0000
  H   H700      1.0  0.01697  0.50003  0.76816  1.0000
  C   C392      1.0  0.05238  0.50164  0.72169  1.0000
  C   C393      1.0  0.00231  0.36988  0.01254  1.0000
  H   H701      1.0  0.04991  0.42912  0.99330  1.0000
  C   C394      1.0  0.06739  0.47323  0.52967  1.0000
  H   H702      1.0  0.21456  0.25683  0.00279  1.0000
  H   H703      1.0  0.05294  0.47033  0.52113  1.0000
  H   H704      1.0  0.03709  0.50356  0.96295  1.0000
  H   H705      1.0  0.21771  0.71623  0.08233  1.0000
  H   H706      1.0  0.25467  0.66900  0.02439  1.0000
  H   H707      1.0  0.29519  0.72058  0.22351  1.0000
  Fe  Fe38      1.0  0.06319  0.57146  0.46408  1.0000
  H   H708      1.0  0.19283  0.74943  0.38761  1.0000
  S   S79       1.0  0.26744  0.64651  0.10546  1.0000
  H   H709      1.0  0.12607  0.64448  0.06332  1.0000
  H   H710      1.0  0.19359  0.62068  0.42733  1.0000
  C   C395      1.0  0.22469  0.73021  0.08769  1.0000
  H   H711      1.0  0.16687  0.65479  0.43162  1.0000
  C   C396      1.0  0.20842  0.64370  0.03796  1.0000
  H   H712      1.0  0.12786  0.67323  0.48910  1.0000
  Fe  Fe39      1.0  0.06639  0.55583  0.38070  1.0000
  S   S80       1.0  0.07763  0.58234  0.41031  1.0000
  S   S81       1.0  0.05544  0.55332  0.31860  1.0000
  Fe  Fe40      1.0  0.10146  0.56228  0.42970  1.0000
  S   S82       1.0  0.13175  0.57191  0.42651  1.0000
  H   H713      1.0  0.18043  0.73754  0.32541  1.0000
  H   H714      1.0  0.04503  0.54797  0.51401  1.0000
  S   S83       1.0  0.09111  0.53629  0.39672  1.0000
  H   H715      1.0  0.00231  0.57439  0.48870  1.0000
  Fe  Fe41      1.0  0.21217  0.67092  0.29606  1.0000
  S   S84       1.0  0.18660  0.66994  0.25639  1.0000
  S   S85       1.0  0.24291  0.66872  0.27866  1.0000
  Fe  Fe42      1.0  0.18900  0.68152  0.36783  1.0000
  S   S86       1.0  0.16144  0.68192  0.33431  1.0000
  S   S87       1.0  0.19297  0.68696  0.43265  1.0000
  Fe  Fe43      1.0  0.17271  0.65458  0.30614  1.0000
  S   S88       1.0  0.15142  0.63151  0.29215  1.0000
  Fe  Fe44      1.0  0.17720  0.69714  0.28733  1.0000
  S   S89       1.0  0.16260  0.72067  0.25124  1.0000
  S   S90       1.0  0.19929  0.65290  0.34329  1.0000
  S   S91       1.0  0.20381  0.69939  0.32375  1.0000
  H   H716      1.0  0.23709  0.58786  0.11763  1.0000
  N   N22       1.0  0.24527  0.72687  0.09900  1.0000
  C   C397      1.0  0.18545  0.70976  0.45048  1.0000
  H   H717      1.0  0.97994  0.53500  0.02872  1.0000
  H   H718      1.0  0.22311  0.75236  0.49508  1.0000
  H   H719      1.0  0.27818  0.72508  0.43943  1.0000
  H   H720      1.0  0.18617  0.73382  0.08536  1.0000
  C   C398      1.0  0.17195  0.72112  0.42998  1.0000
  H   H721      1.0  0.07645  0.52886  0.06360  1.0000
  H   H722      1.0  0.20929  0.73184  0.14293  1.0000
  C   C399      1.0  0.11389  0.55024  0.29874  1.0000
  H   H723      1.0  0.16617  0.71602  0.40233  1.0000
  C   C400      1.0  0.17795  0.73851  0.23542  1.0000
  C   C401      1.0  0.19702  0.73785  0.24692  1.0000
  H   H724      1.0  0.14946  0.63710  0.04802  1.0000
  H   H725      1.0  0.16051  0.59018  0.01728  1.0000
  H   H726      1.0  0.20261  0.72598  0.26431  1.0000
  H   H727      1.0  0.09419  0.52305  0.25574  1.0000
  C   C402      1.0  0.02549  0.57621  0.06496  1.0000
  C   C403      1.0  0.01064  0.58468  0.08650  1.0000
  C   C404      1.0  0.99651  0.57314  0.10204  1.0000
  C   C405      1.0  0.99711  0.55312  0.09565  1.0000
  C   C406      1.0  0.01202  0.54465  0.07423  1.0000
  C   C407      1.0  0.02630  0.55614  0.05920  1.0000
  H   H728      1.0  0.01003  0.60021  0.09109  1.0000
  H   H729      1.0  0.03778  0.54951  0.04284  1.0000
  H   H730      1.0  0.01248  0.52917  0.06914  1.0000
  C   C408      1.0  0.19278  0.74673  0.09877  1.0000
  C   C409      1.0  0.03101  0.55822  0.31504  1.0000
  C   C410      1.0  0.02040  0.54917  0.28560  1.0000
  C   C411      1.0  0.00096  0.55347  0.28119  1.0000
  C   C412      1.0  0.99209  0.56680  0.30639  1.0000
  C   C413      1.0  0.00266  0.57554  0.33644  1.0000
  C   C414      1.0  0.02211  0.57121  0.34088  1.0000
  H   H731      1.0  0.02720  0.53865  0.26656  1.0000
  H   H732      1.0  0.99278  0.54641  0.25851  1.0000
  H   H733      1.0  0.99581  0.58579  0.35614  1.0000
  H   H734      1.0  0.03025  0.57817  0.36387  1.0000
  C   C415      1.0  0.13723  0.58798  0.38827  1.0000
  C   C416      1.0  0.12405  0.59264  0.35844  1.0000
  C   C417      1.0  0.12872  0.60565  0.32860  1.0000
  C   C418      1.0  0.14633  0.61461  0.32908  1.0000
  C   C419      1.0  0.15956  0.60985  0.35867  1.0000
  C   C420      1.0  0.15509  0.59639  0.38790  1.0000
  H   H735      1.0  0.11034  0.58609  0.35816  1.0000
  H   H736      1.0  0.11851  0.60911  0.30554  1.0000
  H   H737      1.0  0.17330  0.61640  0.35884  1.0000
  H   H738      1.0  0.16544  0.59267  0.41059  1.0000
  C   C421      1.0  0.01365  0.51976  0.37487  1.0000
  H   H739      1.0  0.03851  0.50738  0.40555  1.0000
  C   C422      1.0  0.30673  0.67867  0.34145  1.0000
  H   H740      1.0  0.11995  0.61225  0.47846  1.0000
  H   H741      1.0  0.12662  0.73743  0.09432  1.0000
  Fe  Fe45      1.0  0.07497  0.52948  0.45108  1.0000
  H   H742      1.0  0.24322  0.72116  0.23833  1.0000
  H   H743      1.0  0.29547  0.73629  0.38017  1.0000
  C   C423      1.0  0.11497  0.52813  0.30179  1.0000
  C   C424      1.0  0.16134  0.64224  0.44800  1.0000
  C   C425      1.0  0.28300  0.72707  0.37626  1.0000
  C   C426      1.0  0.26045  0.65313  0.15321  1.0000
  C   C427      1.0  0.27387  0.65899  0.18107  1.0000
  C   C428      1.0  0.26830  0.66356  0.21948  1.0000
  C   C429      1.0  0.24924  0.66263  0.23017  1.0000
  C   C430      1.0  0.23572  0.65715  0.20209  1.0000
  C   C431      1.0  0.24135  0.65237  0.16369  1.0000
  H   H744      1.0  0.12724  0.67385  0.40611  1.0000
  H   H745      1.0  0.23214  0.75222  0.38812  1.0000
  H   H746      1.0  0.22103  0.65633  0.21015  1.0000
  H   H747      1.0  0.23096  0.64802  0.14211  1.0000
  C   C432      1.0  0.99969  0.51201  0.40551  1.0000
  H   H748      1.0  0.11830  0.50552  0.22740  1.0000
  C   C433      1.0  0.12691  0.64557  0.43680  1.0000
  H   H749      1.0  0.20487  0.60011  0.09974  1.0000
  Fe  Fe46      1.0  0.29625  0.65800  0.09134  1.0000
  C   C434      1.0  0.22952  0.75160  0.46555  1.0000
  H   H750      1.0  0.30232  0.69608  0.27709  1.0000
  H   H751      1.0  0.25687  0.70267  0.21318  1.0000
  H   H752      1.0  0.20703  0.62459  0.47197  1.0000
  H   H753      1.0  0.14602  0.67838  0.45507  1.0000
  C   C435      1.0  0.19150  0.61338  0.02947  1.0000
  H   H754      1.0  0.14149  0.65479  0.38372  1.0000
  H   H755      1.0  0.27044  0.74252  0.11358  1.0000
  C   C436      1.0  0.22434  0.61330  0.05787  1.0000
  C   C437      1.0  0.30066  0.72685  0.28552  1.0000
  H   H756      1.0  0.98450  0.54516  0.48188  1.0000
  C   C438      1.0  0.17750  0.63402  0.47508  1.0000
  C   C439      1.0  0.19134  0.59121  0.02160  1.0000
  H   H757      1.0  0.12714  0.52296  0.28397  1.0000
  H   H758      1.0  0.27525  0.73131  0.24967  1.0000
  H   H759      1.0  0.28054  0.66611  0.36304  1.0000
  C   C440      1.0  0.24441  0.71275  0.21059  1.0000
  S   S92       1.0  0.04278  0.59109  0.04560  1.0000
  C   C441      1.0  0.17318  0.74575  0.48141  1.0000
  C   C442      1.0  0.03229  0.50802  0.37544  1.0000
  S   S93       1.0  0.04646  0.58964  0.50670  1.0000
  C   C443      1.0  0.99668  0.57072  0.45914  1.0000
  H   H760      1.0  0.22625  0.60101  0.15772  1.0000
  C   C444      1.0  0.99338  0.54894  0.45654  1.0000
  H   H761      1.0  0.25713  0.72254  0.40898  1.0000
  H   H762      1.0  0.10186  0.55629  0.31601  1.0000
  H   H763      1.0  0.21118  0.62442  0.11226  1.0000
  H   H764      1.0  0.28061  0.70431  0.29716  1.0000
  H   H765      1.0  0.26146  0.70724  0.13704  1.0000
  C   C445      1.0  0.23201  0.60240  0.12769  1.0000
  H   H766      1.0  0.11178  0.63862  0.36214  1.0000
  C   C446      1.0  0.14244  0.66875  0.47989  1.0000
  H   H767      1.0  0.01698  0.53504  0.38139  1.0000
  C   C447      1.0  0.21201  0.74129  0.11736  1.0000
  C   C448      1.0  0.15642  0.67439  0.51323  1.0000
  H   H768      1.0  0.27454  0.73217  0.35039  1.0000
  N   N23       1.0  0.14366  0.68409  0.15034  1.0000
  C   C449      1.0  0.13915  0.70088  0.12308  1.0000
  C   C450      1.0  0.13813  0.66543  0.13037  1.0000
  C   C451      1.0  0.13137  0.68672  0.18611  1.0000
  C   C452      1.0  0.16419  0.68311  0.16360  1.0000
  C   C453      1.0  0.17915  0.68979  0.13383  1.0000
  C   C454      1.0  0.14120  0.72140  0.14144  1.0000
  C   C455      1.0  0.13199  0.66988  0.21632  1.0000
  C   C456      1.0  0.14910  0.65954  0.09290  1.0000
  H   H769      1.0  0.08355  0.61277  0.28406  1.0000
  C   C457      1.0  0.19899  0.68229  0.14530  1.0000
  C   C458      1.0  0.19784  0.67754  0.01660  1.0000
  C   C459      1.0  0.12253  0.67602  0.25467  1.0000
  H   H770      1.0  0.12428  0.70005  0.11180  1.0000
  H   H771      1.0  0.14793  0.70015  0.09640  1.0000
  H   H772      1.0  0.14038  0.65292  0.15059  1.0000
  H   H773      1.0  0.12269  0.66599  0.12289  1.0000
  H   H774      1.0  0.11625  0.68923  0.17712  1.0000
  H   H775      1.0  0.13548  0.69990  0.20277  1.0000
  H   H776      1.0  0.16643  0.69218  0.19029  1.0000
  H   H777      1.0  0.16809  0.66807  0.17317  1.0000
  H   H778      1.0  0.17947  0.70585  0.13301  1.0000
  H   H779      1.0  0.17616  0.68483  0.10364  1.0000
  H   H780      1.0  0.12934  0.72464  0.16175  1.0000
  H   H781      1.0  0.15462  0.72251  0.15851  1.0000
  H   H782      1.0  0.14675  0.66509  0.22342  1.0000
  H   H783      1.0  0.12419  0.65727  0.20472  1.0000
  H   H784      1.0  0.14859  0.67119  0.07053  1.0000
  H   H785      1.0  0.16407  0.65578  0.10069  1.0000
  C   C460      1.0  0.25448  0.71555  0.06589  1.0000
  H   H786      1.0  0.27021  0.71615  0.06847  1.0000
  C   C461      1.0  0.13823  0.63511  0.50151  1.0000
  H   H787      1.0  0.19939  0.66621  0.14707  1.0000
  H   H788      1.0  0.20921  0.68660  0.12272  1.0000
  H   H789      1.0  0.20339  0.68842  0.17416  1.0000
  H   H790      1.0  0.18319  0.75288  0.12143  1.0000
  H   H791      1.0  0.06225  0.61238  0.31264  1.0000
  H   H792      1.0  0.30338  0.63860  0.34994  1.0000
  H   H793      1.0  0.10754  0.68067  0.24922  1.0000
  H   H794      1.0  0.12280  0.66357  0.27527  1.0000
  H   H795      1.0  0.13025  0.68809  0.26874  1.0000
  C   C462      1.0  0.19265  0.71631  0.48659  1.0000
  H   H796      1.0  0.27884  0.66786  0.24088  1.0000
  C   C463      1.0  0.98302  0.54395  0.41766  1.0000
  H   H797      1.0  0.15918  0.63097  0.42526  1.0000
  H   H798      1.0  0.23135  0.70428  0.20694  1.0000
  C   C464      1.0  0.12809  0.65814  0.39926  1.0000
  H   H799      1.0  0.11217  0.55483  0.26766  1.0000
  H   H800      1.0  0.27987  0.67182  0.31151  1.0000
  C   C465      1.0  0.08099  0.51442  0.07261  1.0000
  H   H801      1.0  0.22252  0.65048  0.04089  1.0000
  H   H802      1.0  0.23533  0.73755  0.17707  1.0000
  N   N24       1.0  0.98082  0.52274  0.40829  1.0000
  H   H803      1.0  0.26036  0.73411  0.18058  1.0000
  H   H804      1.0  0.28865  0.65960  0.17327  1.0000
  H   H805      1.0  0.08454  0.52669  0.30267  1.0000
  H   H806      1.0  0.12654  0.63034  0.42584  1.0000
  H   H807      1.0  0.20081  0.64482  0.44067  1.0000
  C   C466      1.0  0.28898  0.66614  0.33573  1.0000
  C   C467      1.0  0.14085  0.64150  0.07376  1.0000
  S   S94       1.0  0.04938  0.54718  0.43209  1.0000
  C   C468      1.0  0.11166  0.65412  0.37093  1.0000
  H   H808      1.0  0.00737  0.54136  0.45927  1.0000
  C   C469      1.0  0.29082  0.73135  0.24625  1.0000
  H   H809      1.0  0.27496  0.69817  0.36405  1.0000
  H   H810      1.0  0.11302  0.66303  0.34409  1.0000
  H   H811      1.0  0.14098  0.62917  0.09471  1.0000
  C   C470      1.0  0.27067  0.73026  0.41236  1.0000
  C   C471      1.0  0.24745  0.71514  0.13636  1.0000
  C   C472      1.0  0.25555  0.74567  0.10355  1.0000
  H   H812      1.0  0.17233  0.56708  0.02524  1.0000
  H   H813      1.0  0.12718  0.55636  0.31070  1.0000
  H   H814      1.0  0.25065  0.72220  0.03691  1.0000
  H   H815      1.0  0.23668  0.70369  0.13693  1.0000
  C   C473      1.0  0.21658  0.61051  0.09987  1.0000
  C   C474      1.0  0.29623  0.70609  0.29971  1.0000
  N   N25       1.0  0.06280  0.57775  0.19151  1.0000
  C   C475      1.0  0.07753  0.56813  0.16570  1.0000
  C   C476      1.0  0.05359  0.59440  0.16907  1.0000
  C   C477      1.0  0.07239  0.58461  0.22881  1.0000
  C   C478      1.0  0.04772  0.56378  0.20246  1.0000
  C   C479      1.0  0.03730  0.55405  0.16754  1.0000
  C   C480      1.0  0.08606  0.54850  0.18074  1.0000
  C   C481      1.0  0.06009  0.59757  0.25642  1.0000
  C   C482      1.0  0.06667  0.61134  0.15904  1.0000
  C   C483      1.0  0.05554  0.62758  0.13781  1.0000
  C   C484      1.0  0.02308  0.53959  0.18206  1.0000
  C   C485      1.0  0.10252  0.54149  0.15520  1.0000
  H   H816      1.0  0.25722  0.68560  0.08681  1.0000
  H   H817      1.0  0.08963  0.57791  0.16172  1.0000
  H   H818      1.0  0.07177  0.56573  0.13543  1.0000
  H   H819      1.0  0.04788  0.58925  0.14030  1.0000
  H   H820      1.0  0.04100  0.60032  0.18492  1.0000
  H   H821      1.0  0.08549  0.59252  0.22208  1.0000
  H   H822      1.0  0.07729  0.57199  0.24692  1.0000
  H   H823      1.0  0.05365  0.55224  0.22228  1.0000
  H   H824      1.0  0.03650  0.57133  0.21984  1.0000
  H   H825      1.0  0.04718  0.54622  0.14767  1.0000
  H   H826      1.0  0.02920  0.56506  0.15020  1.0000
  H   H827      1.0  0.09157  0.54984  0.21115  1.0000
  H   H828      1.0  0.07527  0.53711  0.18025  1.0000
  H   H829      1.0  0.04769  0.58966  0.26692  1.0000
  H   H830      1.0  0.05484  0.61096  0.24147  1.0000
  H   H831      1.0  0.07319  0.61766  0.18580  1.0000
  H   H832      1.0  0.07815  0.60629  0.13923  1.0000
  H   H833      1.0  0.04915  0.62209  0.11001  1.0000
  H   H834      1.0  0.04410  0.63358  0.15675  1.0000
  H   H835      1.0  0.15507  0.74770  0.43004  1.0000
  H   H836      1.0  0.03032  0.52797  0.19957  1.0000
  H   H837      1.0  0.01200  0.54709  0.19971  1.0000
  H   H838      1.0  0.01593  0.53288  0.15658  1.0000
  H   H839      1.0  0.10712  0.52658  0.16402  1.0000
  H   H840      1.0  0.09819  0.54118  0.12373  1.0000
  H   H841      1.0  0.11472  0.55121  0.15875  1.0000
  H   H842      1.0  0.28129  0.63655  0.32305  1.0000
  H   H843      1.0  0.14471  0.60768  0.47002  1.0000
  C   C486      1.0  0.28854  0.70534  0.37104  1.0000
  H   H844      1.0  0.23724  0.62218  0.06101  1.0000
  S   S95       1.0  0.30347  0.66230  0.02834  1.0000
  C   C487      1.0  0.07151  0.60374  0.29268  1.0000
  H   H845      1.0  0.11813  0.52446  0.33288  1.0000
  H   H846      1.0  0.15194  0.73469  0.08825  1.0000
  H   H847      1.0  0.19410  0.68130  0.04722  1.0000
  H   H848      1.0  0.98507  0.57977  0.11853  1.0000
  H   H849      1.0  0.98923  0.51362  0.48823  1.0000
  H   H850      1.0  0.29617  0.73815  0.30671  1.0000
  C   C488      1.0  0.24684  0.72645  0.17597  1.0000
  H   H851      1.0  0.20294  0.70744  0.50273  1.0000
  C   C489      1.0  0.07414  0.50653  0.10741  1.0000
  C   C490      1.0  0.20894  0.75273  0.23625  1.0000
  H   H852      1.0  0.22344  0.73773  0.05898  1.0000
  S   S96       1.0  0.97923  0.53835  0.11311  1.0000
  H   H853      1.0  0.24421  0.61221  0.12930  1.0000
  H   H854      1.0  0.98324  0.57919  0.45446  1.0000
  H   H855      1.0  0.09789  0.65790  0.38478  1.0000
  H   H856      1.0  0.18447  0.61669  0.05789  1.0000
  H   H857      1.0  0.22728  0.73691  0.45316  1.0000
  H   H858      1.0  0.99014  0.55134  0.39323  1.0000
  H   H859      1.0  0.27118  0.68822  0.01868  1.0000
  H   H860      1.0  0.29337  0.69954  0.40021  1.0000
  N   N26       1.0  0.14271  0.64777  0.46691  1.0000
  H   H861      1.0  0.05683  0.51289  0.28797  1.0000
  H   H862      1.0  0.20195  0.64571  0.06732  1.0000
  H   H863      1.0  0.06435  0.51493  0.12515  1.0000
  C   C491      1.0  0.09625  0.51902  0.28714  1.0000
  C   C492      1.0  0.25615  0.68497  0.02390  1.0000
  H   H864      1.0  0.29472  0.74597  0.23616  1.0000
  S   S97       1.0  0.08790  0.55344  0.48634  1.0000
  H   H865      1.0  0.00715  0.57507  0.43696  1.0000
  S   S98       1.0  0.30250  0.68853  0.10798  1.0000
  C   C493      1.0  0.16566  0.73899  0.44571  1.0000
  H   H866      1.0  0.06518  0.63944  0.13045  1.0000
  H   H867      1.0  0.11288  0.64864  0.45050  1.0000
  H   H868      1.0  0.30203  0.64414  0.29784  1.0000
  H   H869      1.0  0.00786  0.51882  0.34451  1.0000
  H   H870      1.0  0.04257  0.51516  0.35629  1.0000
  H   H871      1.0  0.23441  0.69119  0.06565  1.0000
  C   C494      1.0  0.13439  0.61356  0.49151  1.0000
  H   H872      1.0  0.22978  0.59891  0.04745  1.0000
  C   C495      1.0  0.24972  0.69372  0.06296  1.0000
  H   H873      1.0  0.07706  0.59084  0.30911  1.0000
  H   H874      1.0  0.22361  0.75235  0.24591  1.0000
  H   H875      1.0  0.00747  0.51202  0.43405  1.0000
  S   S99       1.0  0.09365  0.57050  0.03462  1.0000
  C   C496      1.0  0.19582  0.63086  0.45225  1.0000
  H   H876      1.0  0.17375  0.61973  0.48712  1.0000
  N   N27       1.0  0.21068  0.62242  0.02824  1.0000
  H   H877      1.0  0.02974  0.50768  0.11817  1.0000
  H   H878      1.0  0.26748  0.74600  0.41594  1.0000
  C   C497      1.0  0.14054  0.73717  0.10997  1.0000
  C   C498      1.0  0.09392  0.50374  0.04996  1.0000
  H   H879      1.0  0.18051  0.64372  0.50016  1.0000
  H   H880      1.0  0.14257  0.75157  0.12394  1.0000
  H   H881      1.0  0.17109  0.67411  0.50201  1.0000
  H   H882      1.0  0.17026  0.58419  0.06521  1.0000
  H   H883      1.0  0.20266  0.58324  0.03823  1.0000
  C   C499      1.0  0.29437  0.64507  0.32611  1.0000
  H   H884      1.0  0.97903  0.52957  0.34610  1.0000
  C   C500      1.0  0.17245  0.58272  0.03307  1.0000
  H   H885      1.0  0.16133  0.74716  0.35443  1.0000
  C   C501      1.0  0.18662  0.73432  0.50190  1.0000
  N   N28       1.0  0.30322  0.70040  0.34046  1.0000
  H   H886      1.0  0.26461  0.75088  0.04265  1.0000
  C   C502      1.0  0.17415  0.75105  0.33799  1.0000
  H   H887      1.0  0.15217  0.70549  0.50291  1.0000
  C   C503      1.0  0.97853  0.50408  0.47494  1.0000
  S   S100      1.0  0.99004  0.58273  0.79698  1.0000
  H   H888      1.0  0.19345  0.58833  0.98977  1.0000
  H   H889      1.0  0.12492  0.60600  0.55006  1.0000
  H   H890      1.0  0.08003  0.63503  0.77602  1.0000
  S   S101      1.0  0.98071  0.53846  0.72300  1.0000
  S   S102      1.0  0.29440  0.66452  0.65918  1.0000
  C   C504      1.0  0.14478  0.64681  0.81371  1.0000
  H   H891      1.0  0.05018  0.62431  0.74411  1.0000
  C   C505      1.0  0.29895  0.65153  0.88386  1.0000
  C   C506      1.0  0.08880  0.64727  0.93258  1.0000
  H   H892      1.0  0.05177  0.60167  0.77034  1.0000
  C   C507      1.0  0.04083  0.56831  0.68216  1.0000
  Fe  Fe47      1.0  0.07811  0.56653  0.92493  1.0000
  S   S103      1.0  0.07608  0.59467  0.95787  1.0000
  S   S104      1.0  0.07240  0.56069  0.86059  1.0000
  H   H893      1.0  0.07886  0.63702  0.94575  1.0000
  H   H894      1.0  0.28306  0.61959  0.90111  1.0000
  H   H895      1.0  0.24639  0.71021  0.77305  1.0000
  H   H896      1.0  0.99639  0.57011  0.00078  1.0000
  S   S105      1.0  0.10789  0.55999  0.94576  1.0000
  H   H897      1.0  0.12526  0.59100  0.80320  1.0000
  Fe  Fe48      1.0  0.23768  0.68317  0.84642  1.0000
  S   S106      1.0  0.21352  0.66926  0.81464  1.0000
  S   S107      1.0  0.26890  0.68306  0.83272  1.0000
  Fe  Fe49      1.0  0.21215  0.70049  0.90932  1.0000
  S   S108      1.0  0.18552  0.68836  0.88313  1.0000
  S   S109      1.0  0.21727  0.71638  0.96616  1.0000
  Fe  Fe50      1.0  0.20307  0.66112  0.87433  1.0000
  S   S110      1.0  0.19342  0.63041  0.88372  1.0000
  Fe  Fe51      1.0  0.19774  0.69743  0.82535  1.0000
  S   S111      1.0  0.17915  0.70874  0.77548  1.0000
  S   S112      1.0  0.22879  0.67247  0.90522  1.0000
  S   S113      1.0  0.22281  0.71206  0.85260  1.0000
  H   H898      1.0  0.26994  0.61844  0.76340  1.0000
  S   S114      1.0  0.99892  0.53553  0.61546  1.0000
  C   C508      1.0  0.20530  0.73853  0.97426  1.0000
  H   H899      1.0  0.30442  0.68695  0.79474  1.0000
  H   H900      1.0  0.03412  0.51532  0.61458  1.0000
  H   H901      1.0  0.25645  0.63477  0.93154  1.0000
  C   C509      1.0  0.20082  0.74090  0.76815  1.0000
  H   H902      1.0  0.22224  0.60375  0.98282  1.0000
  H   H903      1.0  0.28918  0.73054  0.58568  1.0000
  H   H904      1.0  0.10795  0.57415  0.81841  1.0000
  H   H905      1.0  0.06937  0.60733  0.73419  1.0000
  H   H906      1.0  0.17743  0.72799  0.96169  1.0000
  C   C510      1.0  0.18687  0.72946  0.75120  1.0000
  H   H907      1.0  0.02858  0.54029  0.68293  1.0000
  C   C511      1.0  0.08953  0.62791  0.86900  1.0000
  N   N29       1.0  0.05886  0.51606  0.65219  1.0000
  H   H908      1.0  0.27958  0.60669  0.96999  1.0000
  H   H909      1.0  0.07023  0.54479  0.65983  1.0000
  H   H910      1.0  0.14983  0.60070  0.54134  1.0000
  C   C512      1.0  0.02079  0.58297  0.56450  1.0000
  C   C513      1.0  0.00986  0.57106  0.58812  1.0000
  C   C514      1.0  0.01157  0.55087  0.58480  1.0000
  C   C515      1.0  0.02396  0.54267  0.55723  1.0000
  C   C516      1.0  0.03514  0.55453  0.53427  1.0000
  H   H911      1.0  0.01931  0.59858  0.56689  1.0000
  H   H912      1.0  0.00013  0.57755  0.60873  1.0000
  H   H913      1.0  0.02507  0.52710  0.55362  1.0000
  C   C517      1.0  0.08574  0.60824  0.81003  1.0000
  C   C518      1.0  0.04941  0.56646  0.84318  1.0000
  C   C519      1.0  0.04320  0.55901  0.80694  1.0000
  C   C520      1.0  0.02486  0.56363  0.79253  1.0000
  C   C521      1.0  0.01292  0.57610  0.81396  1.0000
  C   C522      1.0  0.01929  0.58368  0.84991  1.0000
  C   C523      1.0  0.03742  0.57874  0.86471  1.0000
  H   H914      1.0  0.05248  0.54949  0.79026  1.0000
  H   H915      1.0  0.01994  0.55763  0.76495  1.0000
  H   H916      1.0  0.01011  0.59344  0.86636  1.0000
  H   H917      1.0  0.04217  0.58464  0.89253  1.0000
  C   C524      1.0  0.14269  0.61701  0.96043  1.0000
  C   C525      1.0  0.14915  0.63604  0.95825  1.0000
  C   C526      1.0  0.16433  0.64048  0.93387  1.0000
  C   C527      1.0  0.17341  0.62580  0.91221  1.0000
  C   C528      1.0  0.16687  0.60680  0.91424  1.0000
  C   C529      1.0  0.15141  0.60243  0.93790  1.0000
  H   H918      1.0  0.23365  0.64664  0.97909  1.0000
  H   H919      1.0  0.16921  0.65518  0.93233  1.0000
  H   H920      1.0  0.17392  0.59538  0.89766  1.0000
  H   H921      1.0  0.14660  0.58770  0.93964  1.0000
  H   H922      1.0  0.14657  0.58057  0.85881  1.0000
  H   H923      1.0  0.11081  0.64809  0.89059  1.0000
  H   H924      1.0  0.10032  0.59135  0.87687  1.0000
  H   H925      1.0  0.10992  0.62575  0.91825  1.0000
  C   C530      1.0  0.25355  0.70202  0.59374  1.0000
  H   H926      1.0  0.24859  0.61014  0.93634  1.0000
  H   H927      1.0  0.12901  0.56365  0.87432  1.0000
  H   H928      1.0  0.06195  0.62955  0.81106  1.0000
  C   C531      1.0  0.29851  0.61625  0.89924  1.0000
  H   H929      1.0  0.14024  0.56059  0.82755  1.0000
  H   H930      1.0  0.08056  0.65943  0.91868  1.0000
  C   C532      1.0  0.28754  0.66998  0.70737  1.0000
  C   C533      1.0  0.30034  0.67747  0.73484  1.0000
  C   C534      1.0  0.29449  0.68130  0.77343  1.0000
  C   C535      1.0  0.27579  0.67798  0.78436  1.0000
  C   C536      1.0  0.26297  0.67067  0.75680  1.0000
  C   C537      1.0  0.26889  0.66656  0.71843  1.0000
  H   H931      1.0  0.03518  0.57243  0.65266  1.0000
  C   C538      1.0  0.23670  0.63079  0.97866  1.0000
  H   H932      1.0  0.24856  0.66801  0.76510  1.0000
  H   H933      1.0  0.25899  0.66067  0.69725  1.0000
  H   H934      1.0  0.25734  0.71512  0.57733  1.0000
  S   S115      1.0  0.12446  0.61182  0.99332  1.0000
  H   H935      1.0  0.30454  0.66252  0.86348  1.0000
  Fe  Fe52      1.0  0.06509  0.57704  0.00753  1.0000
  H   H936      1.0  0.24644  0.73641  0.77384  1.0000
  C   C539      1.0  0.17885  0.73473  0.71466  1.0000
  H   H937      1.0  0.09485  0.52466  0.90229  1.0000
  H   H938      1.0  0.14237  0.64740  0.97541  1.0000
  C   C540      1.0  0.02633  0.51421  0.89340  1.0000
  C   C541      1.0  0.15216  0.69505  0.52770  1.0000
  H   H939      1.0  0.07863  0.61874  0.88260  1.0000
  H   H940      1.0  0.19699  0.71132  0.58239  1.0000
  C   C542      1.0  0.30634  0.61181  0.94136  1.0000
  H   H941      1.0  0.14526  0.64481  0.78134  1.0000
  C   C543      1.0  0.06018  0.61347  0.75762  1.0000
  H   H942      1.0  0.09583  0.52539  0.65365  1.0000
  C   C544      1.0  0.28480  0.62015  0.77372  1.0000
  H   H943      1.0  0.08171  0.64039  0.85524  1.0000
  H   H944      1.0  0.05140  0.54351  0.62487  1.0000
  C   C545      1.0  0.13423  0.63034  0.83286  1.0000
  C   C546      1.0  0.13537  0.60078  0.52808  1.0000
  H   H945      1.0  0.06606  0.51056  0.93620  1.0000
  S   S116      1.0  0.06412  0.54956  0.97197  1.0000
  H   H946      1.0  0.25665  0.74244  0.60974  1.0000
  H   H947      1.0  0.15958  0.64696  0.82534  1.0000
  H   H948      1.0  0.27761  0.68161  0.91913  1.0000
  H   H949      1.0  0.29972  0.60210  0.88339  1.0000
  H   H950      1.0  0.13785  0.66105  0.82055  1.0000
  C   C547      1.0  0.09263  0.52005  0.62363  1.0000
  H   H951      1.0  0.98265  0.51570  0.96256  1.0000
  H   H952      1.0  0.19976  0.65328  0.97787  1.0000
  H   H953      1.0  0.16798  0.72593  0.70152  1.0000
  C   C548      1.0  0.10142  0.63697  0.90245  1.0000
  H   H954      1.0  0.09285  0.59997  0.78604  1.0000
  H   H955      1.0  0.11508  0.62394  0.78533  1.0000
  C   C549      1.0  0.11360  0.62900  0.81629  1.0000
  C   C550      1.0  0.11912  0.58398  0.82918  1.0000
  H   H956      1.0  0.13479  0.63270  0.86497  1.0000
  H   H957      1.0  0.22627  0.72893  0.60113  1.0000
  H   H958      1.0  0.12156  0.60390  0.87855  1.0000
  C   C551      1.0  0.19311  0.71275  0.61380  1.0000
  H   H959      1.0  0.10746  0.64401  0.81379  1.0000
  C   C552      1.0  0.28513  0.62444  0.81783  1.0000
  H   H960      1.0  0.09709  0.52099  0.85014  1.0000
  H   H961      1.0  0.04887  0.54318  0.71543  1.0000
  H   H962      1.0  0.18617  0.72719  0.61863  1.0000
  C   C553      1.0  0.07208  0.62319  0.78963  1.0000
  C   C554      1.0  0.03348  0.57472  0.53755  1.0000
  H   H963      1.0  0.26380  0.67195  0.59697  1.0000
  H   H964      1.0  0.29521  0.74826  0.95671  1.0000
  H   H965      1.0  0.29088  0.63230  0.75714  1.0000
  H   H966      1.0  0.03735  0.52441  0.90307  1.0000
  N   N30       1.0  0.10025  0.61629  0.83843  1.0000
  H   H967      1.0  0.00582  0.58000  0.93408  1.0000
  H   H968      1.0  0.20780  0.62291  0.96462  1.0000
  H   H969      1.0  0.26626  0.68317  0.54962  1.0000
  C   C555      1.0  0.04296  0.54625  0.68567  1.0000
  C   C556      1.0  0.25603  0.74083  0.64217  1.0000
  H   H970      1.0  0.99225  0.50455  0.77733  1.0000
  H   H971      1.0  0.20690  0.73705  0.79632  1.0000
  H   H972      1.0  0.23307  0.62860  0.91502  1.0000
  H   H973      1.0  0.09778  0.65319  0.95660  1.0000
  C   C557      1.0  0.01114  0.56617  0.94731  1.0000
  C   C558      1.0  0.26727  0.68563  0.58183  1.0000
  H   H974      1.0  0.26799  0.72258  0.78393  1.0000
  C   C559      1.0  0.05645  0.53788  0.65402  1.0000
  H   H975      1.0  0.02494  0.56892  0.96209  1.0000
  Fe  Fe53      1.0  0.98109  0.55022  0.66161  1.0000
  H   H976      1.0  0.08515  0.54829  0.59739  1.0000
  H   H977      1.0  0.29296  0.60655  0.76720  1.0000
  H   H978      1.0  0.01346  0.55524  0.92378  1.0000
  C   C560      1.0  0.24414  0.62568  0.93790  1.0000
  H   H979      1.0  0.30105  0.68995  0.90828  1.0000
  H   H980      1.0  0.15572  0.66476  0.53907  1.0000
  H   H981      1.0  0.12545  0.64101  0.51680  1.0000
  S   S117      1.0  0.98114  0.58134  0.68089  1.0000
  C   C561      1.0  0.21865  0.61938  0.98772  1.0000
  H   H982      1.0  0.03075  0.57397  0.70445  1.0000
  H   H983      1.0  0.27744  0.74338  0.54521  1.0000
  H   H984      1.0  0.28209  0.68941  0.58931  1.0000
  H   H985      1.0  0.27101  0.73819  0.65181  1.0000
  N   N31       1.0  0.24402  0.72389  0.65278  1.0000
  C   C562      1.0  0.24134  0.72260  0.69656  1.0000
  C   C563      1.0  0.22483  0.72663  0.63331  1.0000
  C   C564      1.0  0.25397  0.70550  0.63890  1.0000
  H   H986      1.0  0.18184  0.61996  0.00675  1.0000
  H   H987      1.0  0.07674  0.59769  0.82528  1.0000
  C   C565      1.0  0.25961  0.72322  0.72228  1.0000
  C   C566      1.0  0.21070  0.71019  0.64019  1.0000
  H   H988      1.0  0.18073  0.65243  0.01237  1.0000
  C   C567      1.0  0.25476  0.72311  0.76590  1.0000
  H   H989      1.0  0.23431  0.70887  0.70416  1.0000
  H   H990      1.0  0.23137  0.73423  0.70674  1.0000
  H   H991      1.0  0.06617  0.51539  0.59036  1.0000
  H   H992      1.0  0.24801  0.69247  0.65291  1.0000
  H   H993      1.0  0.26909  0.70522  0.64884  1.0000
  H   H994      1.0  0.24747  0.69102  0.99918  1.0000
  H   H995      1.0  0.29132  0.72154  0.53623  1.0000
  H   H996      1.0  0.18280  0.70142  0.62071  1.0000
  H   H997      1.0  0.26897  0.71043  0.71606  1.0000
  C   C568      1.0  0.99717  0.55895  0.97737  1.0000
  H   H998      1.0  0.21708  0.69566  0.63416  1.0000
  H   H999      1.0  0.28353  0.65117  0.87718  1.0000
  C   C569      1.0  0.30573  0.62755  0.83293  1.0000
  C   C570      1.0  0.04008  0.50765  0.64070  1.0000
  H   H1000     1.0  0.26766  0.73651  0.71706  1.0000
  H   H1001     1.0  0.00321  0.54526  0.98992  1.0000
  C   C571      1.0  0.01648  0.52241  0.85664  1.0000
  C   C572      1.0  0.13468  0.57148  0.84886  1.0000
  H   H1002     1.0  0.14238  0.61669  0.82693  1.0000
  S   S118      1.0  0.30106  0.71799  0.01213  1.0000
  H   H1003     1.0  0.05468  0.57523  0.68711  1.0000
  C   C573      1.0  0.30803  0.74678  0.54894  1.0000
  H   H1004     1.0  0.29919  0.73639  0.81101  1.0000
  C   C574      1.0  0.11031  0.59919  0.85791  1.0000
  C   C575      1.0  0.19587  0.65590  0.00889  1.0000
  H   H1005     1.0  0.19981  0.74551  0.88754  1.0000
  Fe  Fe54      1.0  0.10481  0.58674  0.98296  1.0000
  C   C576      1.0  0.09571  0.53623  0.59392  1.0000
  H   H1006     1.0  0.06895  0.50983  0.77351  1.0000
  H   H1007     1.0  0.27859  0.61210  0.83285  1.0000
  H   H1008     1.0  0.01552  0.51376  0.91681  1.0000
  H   H1009     1.0  0.11011  0.54205  0.59810  1.0000
  C   C577      1.0  0.29035  0.73490  0.55447  1.0000
  N   N32       1.0  0.30811  0.63190  0.87631  1.0000
  H   H1010     1.0  0.29097  0.65106  0.94551  1.0000
  H   H1011     1.0  0.09456  0.53044  0.56351  1.0000
  C   C578      1.0  0.18554  0.74017  0.97176  1.0000
  H   H1012     1.0  0.13815  0.69597  0.54209  1.0000
  H   H1013     1.0  0.19213  0.73918  0.52983  1.0000
  C   C579      1.0  0.30015  0.65954  0.92617  1.0000
  H   H1014     1.0  0.00449  0.51320  0.84813  1.0000
  H   H1015     1.0  0.23915  0.69795  0.58375  1.0000
  H   H1016     1.0  0.27603  0.63758  0.82235  1.0000
  H   H1017     1.0  0.20597  0.71043  0.67118  1.0000
  H   H1018     1.0  0.29042  0.58531  0.94743  1.0000
  C   C580      1.0  0.09349  0.51388  0.87820  1.0000
  H   H1019     1.0  0.14974  0.63527  0.52398  1.0000
  H   H1020     1.0  0.01081  0.53729  0.86250  1.0000
  H   H1021     1.0  0.16318  0.69936  0.54940  1.0000
  C   C581      1.0  0.29283  0.68059  0.92785  1.0000
  C   C582      1.0  0.29317  0.59885  0.96407  1.0000
  H   H1022     1.0  0.21766  0.74012  0.64425  1.0000
  H   H1023     1.0  0.04145  0.51305  0.72719  1.0000
  H   H1024     1.0  0.02654  0.52310  0.83196  1.0000
  Fe  Fe55      1.0  0.09376  0.54446  0.99471  1.0000
  H   H1025     1.0  0.06383  0.51917  0.86775  1.0000
  H   H1026     1.0  0.18835  0.68596  0.99622  1.0000
  H   H1027     1.0  0.30914  0.74959  0.51703  1.0000
  H   H1028     1.0  0.02936  0.51016  0.66377  1.0000
  H   H1029     1.0  0.29990  0.59492  0.99277  1.0000
  H   H1030     1.0  0.24817  0.62748  0.00043  1.0000
  H   H1031     1.0  0.29420  0.68623  0.95822  1.0000
  H   H1032     1.0  0.07645  0.51845  0.70455  1.0000
  C   C583      1.0  0.06684  0.50787  0.69039  1.0000
  H   H1033     1.0  0.10347  0.50841  0.61796  1.0000
  C   C584      1.0  0.07325  0.50665  0.87578  1.0000
  H   H1034     1.0  0.30840  0.62506  0.95906  1.0000
  C   C585      1.0  0.30835  0.74810  0.82213  1.0000
  C   C586      1.0  0.07255  0.51135  0.61955  1.0000
  H   H1035     1.0  0.18091  0.75360  0.85502  1.0000
  H   H1036     1.0  0.13198  0.58566  0.51971  1.0000
  H   H1037     1.0  0.23098  0.75280  0.98988  1.0000
  C   C587      1.0  0.18498  0.75125  0.69495  1.0000
  C   C588      1.0  0.31022  0.74725  0.96327  1.0000
  S   S119      1.0  0.10337  0.51371  0.00732  1.0000
  H   H1038     1.0  0.21263  0.68175  0.01130  1.0000
  H   H1039     1.0  0.97998  0.54433  0.93506  1.0000
  H   H1040     1.0  0.31108  0.63964  0.81495  1.0000
  H   H1041     1.0  0.20876  0.85081  0.23067  1.0000
  C   C589      1.0  0.23469  0.78574  0.33754  1.0000
  C   C590      1.0  0.28661  0.83471  0.01524  1.0000
  H   H1042     1.0  0.24393  0.89365  0.15350  1.0000
  H   H1043     1.0  0.26747  0.86021  0.33014  1.0000
  C   C591      1.0  0.07484  0.88861  0.43939  1.0000
  H   H1044     1.0  0.19961  0.79373  0.40475  1.0000
  S   S120      1.0  0.28200  0.81166  0.36349  1.0000
  H   H1045     1.0  0.29111  0.81344  0.22787  1.0000
  Fe  Fe56      1.0  0.05483  0.90921  0.27412  1.0000
  S   S121      1.0  0.04709  0.94017  0.26030  1.0000
  S   S122      1.0  0.04593  0.89514  0.33010  1.0000
  Fe  Fe57      1.0  0.07868  0.90364  0.20125  1.0000
  S   S123      1.0  0.07335  0.93441  0.18175  1.0000
  S   S124      1.0  0.09244  0.88045  0.16298  1.0000
  Fe  Fe58      1.0  0.07772  0.94237  0.24522  1.0000
  S   S125      1.0  0.09355  0.96911  0.26284  1.0000
  Fe  Fe59      1.0  0.04320  0.92967  0.19839  1.0000
  S   S126      1.0  0.01962  0.94272  0.16078  1.0000
  S   S127      1.0  0.08596  0.91194  0.26345  1.0000
  S   S128      1.0  0.04802  0.89833  0.21355  1.0000
  Fe  Fe60      1.0  0.20874  0.80360  0.14668  1.0000
  S   S129      1.0  0.18011  0.81363  0.12451  1.0000
  C   C592      1.0  0.20590  0.76727  0.34331  1.0000
  Fe  Fe61      1.0  0.22988  0.82644  0.08519  1.0000
  H   H1046     1.0  0.20870  0.82588  0.24637  1.0000
  H   H1047     1.0  0.29721  0.83275  0.03823  1.0000
  Fe  Fe62      1.0  0.19295  0.84293  0.11981  1.0000
  S   S130      1.0  0.18143  0.87003  0.14920  1.0000
  H   H1048     1.0  0.03314  0.93618  0.46632  1.0000
  H   H1049     1.0  0.11854  0.87084  0.29522  1.0000
  S   S131      1.0  0.22065  0.83304  0.14635  1.0000
  H   H1050     1.0  0.02785  0.87030  0.04346  1.0000
  H   H1051     1.0  0.99015  0.89087  0.41249  1.0000
  H   H1052     1.0  0.11120  0.80986  0.13040  1.0000
  C   C593      1.0  0.02160  0.89768  0.33908  1.0000
  C   C594      1.0  0.01474  0.89279  0.37607  1.0000
  H   H1053     1.0  0.16974  0.76101  0.31376  1.0000
  H   H1054     1.0  0.05295  0.83469  0.14631  1.0000
  H   H1055     1.0  0.11681  0.97728  0.48335  1.0000
  C   C595      1.0  0.00897  0.90429  0.30969  1.0000
  H   H1056     1.0  0.02446  0.88751  0.39867  1.0000
  H   H1057     1.0  0.26718  0.79061  0.29461  1.0000
  C   C596      1.0  0.98780  0.96682  0.26287  1.0000
  H   H1058     1.0  0.01420  0.90796  0.28101  1.0000
  C   C597      1.0  0.00792  0.92753  0.12730  1.0000
  C   C598      1.0  0.99751  0.93595  0.09620  1.0000
  C   C599      1.0  0.20205  0.76790  0.21254  1.0000
  C   C600      1.0  0.98990  0.90413  0.07091  1.0000
  C   C601      1.0  0.99978  0.89564  0.10276  1.0000
  C   C602      1.0  0.00883  0.90734  0.13093  1.0000
  H   H1059     1.0  0.07310  0.91865  0.08492  1.0000
  C   C603      1.0  0.29810  0.84328  0.17141  1.0000
  H   H1060     1.0  0.00057  0.88002  0.10543  1.0000
  H   H1061     1.0  0.01645  0.90075  0.15540  1.0000
  C   C604      1.0  0.11720  0.87826  0.15891  1.0000
  C   C605      1.0  0.12486  0.86414  0.13351  1.0000
  C   C606      1.0  0.14457  0.86159  0.13019  1.0000
  C   C607      1.0  0.15670  0.87318  0.15225  1.0000
  C   C608      1.0  0.14905  0.88740  0.17744  1.0000
  C   C609      1.0  0.12931  0.88995  0.18082  1.0000
  H   H1062     1.0  0.11552  0.85517  0.11630  1.0000
  H   H1063     1.0  0.15040  0.85082  0.11026  1.0000
  H   H1064     1.0  0.15841  0.89650  0.19436  1.0000
  H   H1065     1.0  0.12350  0.90094  0.20031  1.0000
  C   C610      1.0  0.27489  0.80438  0.41038  1.0000
  C   C611      1.0  0.28447  0.78937  0.43057  1.0000
  C   C612      1.0  0.27812  0.78358  0.46757  1.0000
  C   C613      1.0  0.26238  0.79292  0.48474  1.0000
  C   C614      1.0  0.25270  0.80777  0.46433  1.0000
  C   C615      1.0  0.25893  0.81344  0.42718  1.0000
  H   H1066     1.0  0.29666  0.78215  0.41758  1.0000
  H   H1067     1.0  0.99665  0.95154  0.09346  1.0000
  H   H1068     1.0  0.26687  0.78634  0.04854  1.0000
  H   H1069     1.0  0.25155  0.82513  0.41171  1.0000
  C   C616      1.0  0.08256  0.98846  0.38926  1.0000
  C   C617      1.0  0.07436  0.97163  0.37440  1.0000
  C   C618      1.0  0.07788  0.96549  0.33581  1.0000
  C   C619      1.0  0.08988  0.97598  0.31205  1.0000
  H   H1070     1.0  0.03783  0.94556  0.07768  1.0000
  H   H1071     1.0  0.25844  0.85755  0.26014  1.0000
  H   H1072     1.0  0.06510  0.96338  0.39264  1.0000
  H   H1073     1.0  0.07140  0.95255  0.32462  1.0000
  H   H1074     1.0  0.21841  0.75491  0.12767  1.0000
  C   C620      1.0  0.04569  0.97726  0.50129  1.0000
  H   H1075     1.0  0.05247  0.91808  0.11556  1.0000
  C   C621      1.0  0.14630  0.81914  0.20109  1.0000
  H   H1076     1.0  0.13243  0.79541  0.14006  1.0000
  H   H1077     1.0  0.19205  0.80483  0.33303  1.0000
  H   H1078     1.0  0.23218  0.87376  0.17590  1.0000
  C   C622      1.0  0.09870  0.99238  0.32743  1.0000
  H   H1079     1.0  0.10925  0.83446  0.24675  1.0000
  S   S132      1.0  0.26078  0.83146  0.07360  1.0000
  H   H1080     1.0  0.11848  0.83173  0.18508  1.0000
  H   H1081     1.0  0.28145  0.77407  0.08549  1.0000
  H   H1082     1.0  0.18230  0.83419  0.20005  1.0000
  H   H1083     1.0  0.15233  0.83118  0.18411  1.0000
  C   C623      1.0  0.12585  0.81731  0.18470  1.0000
  H   H1084     1.0  0.24061  0.81510  0.47745  1.0000
  H   H1085     1.0  0.20063  0.84513  0.27910  1.0000
  C   C624      1.0  0.99533  0.89470  0.38388  1.0000
  H   H1086     1.0  0.13404  0.82014  0.12332  1.0000
  C   C625      1.0  0.98299  0.98309  0.49373  1.0000
  H   H1087     1.0  0.27644  0.77488  0.15944  1.0000
  H   H1088     1.0  0.05977  0.86904  0.40020  1.0000
  C   C626      1.0  0.02586  0.92689  0.48767  1.0000
  C   C627      1.0  0.06870  0.87908  0.47829  1.0000
  H   H1089     1.0  0.04820  0.84802  0.07972  1.0000
  H   H1090     1.0  0.08952  0.89384  0.44183  1.0000
  C   C628      1.0  0.24916  0.76987  0.32355  1.0000
  H   H1091     1.0  0.99884  0.98061  0.05144  1.0000
  H   H1092     1.0  0.24916  0.75495  0.12679  1.0000
  H   H1093     1.0  0.02733  0.99493  0.46462  1.0000
  H   H1094     1.0  0.15452  0.80578  0.19276  1.0000
  S   S133      1.0  0.20313  0.83904  0.05776  1.0000
  N   N33       1.0  0.14851  0.82273  0.24467  1.0000
  C   C629      1.0  0.14070  0.80574  0.26651  1.0000
  C   C630      1.0  0.11021  0.86264  0.27311  1.0000
  H   H1095     1.0  0.05400  0.99004  0.51024  1.0000
  C   C631      1.0  0.98271  0.90121  0.35447  1.0000
  H   H1096     1.0  0.24318  0.79758  0.35069  1.0000
  H   H1097     1.0  0.24223  0.76241  0.05502  1.0000
  H   H1098     1.0  0.09423  0.90710  0.49976  1.0000
  H   H1099     1.0  0.25925  0.78567  0.09850  1.0000
  H   H1100     1.0  0.28132  0.87626  0.30104  1.0000
  C   C632      1.0  0.98951  0.90584  0.31730  1.0000
  H   H1101     1.0  0.17384  0.85305  0.23260  1.0000
  C   C633      1.0  0.03647  0.90743  0.49232  1.0000
  H   H1102     1.0  0.01131  0.92440  0.47636  1.0000
  H   H1103     1.0  0.29821  0.79831  0.04064  1.0000
  H   H1104     1.0  0.17194  0.82637  0.28553  1.0000
  H   H1105     1.0  0.09530  0.86223  0.28298  1.0000
  H   H1106     1.0  0.18076  0.77272  0.38053  1.0000
  C   C634      1.0  0.27855  0.86082  0.30738  1.0000
  H   H1107     1.0  0.00314  0.99345  0.25312  1.0000
  H   H1108     1.0  0.07934  0.88100  0.37828  1.0000
  H   H1109     1.0  0.30060  0.85897  0.16720  1.0000
  H   H1110     1.0  0.03350  0.85220  0.14547  1.0000
  H   H1111     1.0  0.11687  0.83462  0.29707  1.0000
  H   H1112     1.0  0.13702  0.79008  0.36404  1.0000
  H   H1113     1.0  0.22779  0.79211  0.31071  1.0000
  H   H1114     1.0  0.17643  0.80874  0.24811  1.0000
  C   C635      1.0  0.10901  0.96596  0.49915  1.0000
  H   H1115     1.0  0.04859  0.91452  0.02606  1.0000
  C   C636      1.0  0.07443  0.87401  0.40554  1.0000
  H   H1116     1.0  0.06005  0.95149  0.10056  1.0000
  H   H1117     1.0  0.20085  0.77503  0.31635  1.0000
  S   S134      1.0  0.21741  0.78618  0.19985  1.0000
  C   C637      1.0  0.98353  0.98242  0.44794  1.0000
  H   H1118     1.0  0.07843  0.86631  0.48292  1.0000
  C   C638      1.0  0.26735  0.83530  0.02470  1.0000
  H   H1119     1.0  0.03627  0.90015  0.46324  1.0000
  H   H1120     1.0  0.14060  0.85263  0.23160  1.0000
  H   H1121     1.0  0.17785  0.78001  0.18127  1.0000
  H   H1122     1.0  0.08221  0.99407  0.02123  1.0000
  H   H1123     1.0  0.03148  0.99224  0.17960  1.0000
  Fe  Fe63      1.0  0.19234  0.80877  0.06441  1.0000
  H   H1124     1.0  0.08393  0.86128  0.41194  1.0000
  H   H1125     1.0  0.21310  0.81891  0.33648  1.0000
  C   C639      1.0  0.19077  0.82820  0.37469  1.0000
  H   H1126     1.0  0.17875  0.82219  0.39101  1.0000
  H   H1127     1.0  0.18501  0.83884  0.35288  1.0000
  H   H1128     1.0  0.05623  0.85861  0.16618  1.0000
  S   S135      1.0  0.07781  0.99542  0.43789  1.0000
  H   H1129     1.0  0.01389  0.98247  0.11948  1.0000
  C   C640      1.0  0.13940  0.84202  0.25607  1.0000
  C   C641      1.0  0.18313  0.76837  0.19990  1.0000
  H   H1130     1.0  0.22141  0.80528  0.40130  1.0000
  H   H1131     1.0  0.12511  0.80511  0.26279  1.0000
  C   C642      1.0  0.14531  0.80503  0.31123  1.0000
  C   C643      1.0  0.13273  0.79090  0.33253  1.0000
  H   H1132     1.0  0.16019  0.79987  0.31595  1.0000
  H   H1133     1.0  0.14360  0.81957  0.32502  1.0000
  C   C644      1.0  0.02584  0.98385  0.48785  1.0000
  C   C645      1.0  0.18837  0.76056  0.36574  1.0000
  H   H1134     1.0  0.98059  0.93092  0.04421  1.0000
  H   H1135     1.0  0.20016  0.83595  0.39566  1.0000
  C   C646      1.0  0.98849  0.92430  0.06817  1.0000
  H   H1136     1.0  0.03771  0.98928  0.10977  1.0000
  H   H1137     1.0  0.10971  0.89676  0.02637  1.0000
  H   H1138     1.0  0.11032  0.87043  0.24463  1.0000
  H   H1139     1.0  0.99763  0.98539  0.43601  1.0000
  S   S136      1.0  0.21982  0.79597  0.08742  1.0000
  C   C647      1.0  0.26669  0.77724  0.07534  1.0000
  C   C648      1.0  0.01283  0.98417  0.03889  1.0000
  N   N34       1.0  0.06881  0.89195  0.51421  1.0000
  H   H1140     1.0  0.01085  0.97299  0.22335  1.0000
  N   N35       1.0  0.21990  0.77929  0.36611  1.0000
  H   H1141     1.0  0.11338  0.95154  0.48725  1.0000
  H   H1142     1.0  0.01711  0.97386  0.27479  1.0000
  H   H1143     1.0  0.11755  0.80688  0.20148  1.0000
  H   H1144     1.0  0.02307  0.97486  0.05554  1.0000
  H   H1145     1.0  0.22188  0.78131  0.45404  1.0000
  H   H1146     1.0  0.13419  0.77614  0.31954  1.0000
  C   C649      1.0  0.11829  0.84199  0.26839  1.0000
  C   C650      1.0  0.18087  0.83848  0.23127  1.0000
  C   C651      1.0  0.20187  0.81201  0.35367  1.0000
  H   H1147     1.0  0.05054  0.98304  0.03722  1.0000
  C   C652      1.0  0.22023  0.76710  0.43911  1.0000
  H   H1148     1.0  0.08305  0.88886  0.06982  1.0000
  S   S137      1.0  0.16540  0.76841  0.49992  1.0000
  H   H1149     1.0  0.98394  0.97127  0.29313  1.0000
  H   H1150     1.0  0.14626  0.79182  0.25373  1.0000
  C   C653      1.0  0.05333  0.94252  0.07735  1.0000
  H   H1151     1.0  0.20491  0.76438  0.43739  1.0000
  C   C654      1.0  0.04052  0.87547  0.02767  1.0000
  H   H1152     1.0  0.04806  0.86208  0.01717  1.0000
  H   H1153     1.0  0.30016  0.84415  0.25133  1.0000
  H   H1154     1.0  0.06413  0.92006  0.48674  1.0000
  C   C655      1.0  0.20096  0.84010  0.24809  1.0000
  C   C656      1.0  0.04713  0.90798  0.05553  1.0000
  H   H1155     1.0  0.07086  0.85432  0.10032  1.0000
  N   N36       1.0  0.28229  0.84053  0.20005  1.0000
  C   C657      1.0  0.27956  0.81929  0.20840  1.0000
  C   C658      1.0  0.28716  0.85073  0.23797  1.0000
  C   C659      1.0  0.26415  0.84885  0.18235  1.0000
  H   H1156     1.0  0.25946  0.78392  0.19440  1.0000
  H   H1157     1.0  0.05911  0.94667  0.04850  1.0000
  C   C660      1.0  0.27823  0.80571  0.17204  1.0000
  C   C661      1.0  0.26310  0.87119  0.17667  1.0000
  C   C662      1.0  0.27187  0.85035  0.27025  1.0000
  C   C663      1.0  0.16953  0.82322  0.25384  1.0000
  C   C664      1.0  0.27430  0.78493  0.18454  1.0000
  C   C665      1.0  0.24431  0.87767  0.15735  1.0000
  H   H1158     1.0  0.26631  0.81733  0.22510  1.0000
  C   C666      1.0  0.31055  0.78847  0.03533  1.0000
  H   H1159     1.0  0.06532  0.90104  0.43112  1.0000
  H   H1160     1.0  0.99135  0.95107  0.26214  1.0000
  H   H1161     1.0  0.25176  0.84476  0.20007  1.0000
  H   H1162     1.0  0.26161  0.84238  0.15293  1.0000
  H   H1163     1.0  0.98730  0.96857  0.50572  1.0000
  H   H1164     1.0  0.14719  0.84865  0.28123  1.0000
  C   C667      1.0  0.05057  0.87902  0.09629  1.0000
  H   H1165     1.0  0.09358  0.96813  0.49348  1.0000
  H   H1166     1.0  0.26663  0.81055  0.15178  1.0000
  H   H1167     1.0  0.27112  0.76577  0.28006  1.0000
  H   H1168     1.0  0.27456  0.87604  0.15742  1.0000
  H   H1169     1.0  0.26419  0.87889  0.20523  1.0000
  H   H1170     1.0  0.26889  0.83524  0.27882  1.0000
  H   H1171     1.0  0.25032  0.77895  0.26244  1.0000
  H   H1172     1.0  0.11765  0.79589  0.33068  1.0000
  C   C668      1.0  0.21074  0.79733  0.38351  1.0000
  C   C669      1.0  0.12596  0.81024  0.14204  1.0000
  N   N37       1.0  0.99421  0.99877  0.51391  1.0000
  H   H1173     1.0  0.28405  0.78016  0.20870  1.0000
  H   H1174     1.0  0.05445  0.87286  0.47340  1.0000
  H   H1175     1.0  0.24269  0.87085  0.12788  1.0000
  H   H1176     1.0  0.03174  0.90944  0.06193  1.0000
  C   C670      1.0  0.07377  0.88387  0.04521  1.0000
  H   H1177     1.0  0.29168  0.85367  0.31947  1.0000
  N   N38       1.0  0.05315  0.88680  0.05535  1.0000
  H   H1178     1.0  0.29165  0.80528  0.15552  1.0000
  C   C671      1.0  0.04908  0.85028  0.14251  1.0000
  H   H1179     1.0  0.19445  0.75787  0.07574  1.0000
  C   C672      1.0  0.00579  0.97750  0.25283  1.0000
  H   H1180     1.0  0.29087  0.86605  0.23246  1.0000
  H   H1181     1.0  0.05950  0.88675  0.11801  1.0000
  C   C673      1.0  0.05752  0.92106  0.08552  1.0000
  H   H1182     1.0  0.29400  0.83782  0.14169  1.0000
  H   H1183     1.0  0.03578  0.88175  0.10566  1.0000
  C   C674      1.0  0.26009  0.77677  0.28800  1.0000
  C   C675      1.0  0.05533  0.85709  0.10211  1.0000
  C   C676      1.0  0.25658  0.75843  0.06627  1.0000
  H   H1184     1.0  0.28529  0.77173  0.48280  1.0000
  H   H1185     1.0  0.01904  0.97086  0.47533  1.0000
  C   C677      1.0  0.05704  0.91027  0.50758  1.0000
  H   H1186     1.0  0.07736  0.86813  0.04222  1.0000
  C   C678      1.0  0.02354  0.99492  0.11812  1.0000
  S   S138      1.0  0.98006  0.88945  0.03394  1.0000
  H   H1187     1.0  0.97974  0.91062  0.29442  1.0000
  H   H1188     1.0  0.05302  0.96977  0.47667  1.0000
  H   H1189     1.0  0.24406  0.77325  0.40452  1.0000
  H   H1190     1.0  0.02840  0.89858  0.51296  1.0000
  H   H1191     1.0  0.98800  0.95125  0.44210  1.0000
  C   C679      1.0  0.22974  0.76746  0.39818  1.0000
  H   H1192     1.0  0.97811  0.90744  0.20214  1.0000
  H   H1193     1.0  0.25966  0.76651  0.34734  1.0000
  S   S139      1.0  0.17499  0.79341  0.01832  1.0000
  C   C680      1.0  0.09483  0.99882  0.36583  1.0000
  H   H1194     1.0  0.03704  0.99072  0.34504  1.0000
  H   H1195     1.0  0.30578  0.77327  0.03651  1.0000
  H   H1196     1.0  0.04460  0.00027  0.27839  1.0000
  H   H1197     1.0  0.10855  0.00006  0.30958  1.0000
  H   H1198     1.0  0.15624  0.75433  0.20272  1.0000
  H   H1199     1.0  0.09452  0.00345  0.19726  1.0000
  H   H1200     1.0  0.24220  0.75625  0.31509  1.0000
  C   C681      1.0  0.05305  0.99874  0.03939  1.0000
  H   H1201     1.0  0.05787  0.00229  0.06970  1.0000
  C   C682      1.0  0.02511  0.00337  0.15952  1.0000
  H   H1202     1.0  0.97790  0.96291  0.39935  1.0000
  H   H1203     1.0  0.24492  0.75403  0.46915  1.0000
  C   C683      1.0  0.17098  0.75378  0.21180  1.0000
  H   H1204     1.0  0.21289  0.75379  0.33203  1.0000
  H   H1205     1.0  0.02021  0.85187  0.74160  1.0000
  H   H1206     1.0  0.28451  0.79345  0.94070  1.0000
  H   H1207     1.0  0.04637  0.87548  0.53947  1.0000
  C   C684      1.0  0.19129  0.75840  0.87765  1.0000
  H   H1208     1.0  0.99201  0.97611  0.58425  1.0000
  H   H1209     1.0  0.03156  0.86097  0.95221  1.0000
  C   C685      1.0  0.12847  0.96083  0.63460  1.0000
  S   S140      1.0  0.28515  0.84090  0.89678  1.0000
  H   H1210     1.0  0.10607  0.89707  0.97384  1.0000
  Fe  Fe64      1.0  0.07196  0.91083  0.76489  1.0000
  S   S141      1.0  0.06319  0.94063  0.74468  1.0000
  S   S142      1.0  0.06250  0.89975  0.82335  1.0000
  Fe  Fe65      1.0  0.09207  0.90079  0.68863  1.0000
  S   S143      1.0  0.08481  0.92993  0.66216  1.0000
  S   S144      1.0  0.10281  0.87466  0.65384  1.0000
  Fe  Fe66      1.0  0.09254  0.94205  0.72168  1.0000
  S   S145      1.0  0.10587  0.97135  0.72869  1.0000
  Fe  Fe67      1.0  0.05606  0.92634  0.68750  1.0000
  S   S146      1.0  0.02957  0.93667  0.65552  1.0000
  S   S147      1.0  0.10229  0.91311  0.74648  1.0000
  S   S148      1.0  0.06238  0.89636  0.70951  1.0000
  Fe  Fe68      1.0  0.20208  0.78827  0.62461  1.0000
  S   S149      1.0  0.17532  0.79986  0.59615  1.0000
  S   S150      1.0  0.20694  0.78349  0.68943  1.0000
  H   H1211     1.0  0.06603  0.94975  0.89929  1.0000
  C   C686      1.0  0.02156  0.87212  0.96421  1.0000
  H   H1212     1.0  0.99943  0.90166  0.73319  1.0000
  Fe  Fe69      1.0  0.19337  0.82350  0.57410  1.0000
  S   S151      1.0  0.18442  0.85494  0.58493  1.0000
  H   H1213     1.0  0.12646  0.99002  0.65492  1.0000
  C   C687      1.0  0.03783  0.95322  0.87296  1.0000
  S   S152      1.0  0.21987  0.81263  0.60501  1.0000
  S   S153      1.0  0.20998  0.76924  0.57352  1.0000
  H   H1214     1.0  0.26243  0.76981  0.91052  1.0000
  H   H1215     1.0  0.11556  0.91879  0.59837  1.0000
  C   C688      1.0  0.03839  0.90561  0.82945  1.0000
  C   C689      1.0  0.02956  0.90235  0.86540  1.0000
  C   C690      1.0  0.01055  0.90834  0.87074  1.0000
  C   C691      1.0  0.00051  0.91760  0.84012  1.0000
  C   C692      1.0  0.00938  0.92082  0.80445  1.0000
  C   C693      1.0  0.02811  0.91453  0.79881  1.0000
  H   H1216     1.0  0.03752  0.89550  0.88919  1.0000
  H   H1217     1.0  0.00372  0.90605  0.89849  1.0000
  H   H1218     1.0  0.00182  0.92841  0.78123  1.0000
  H   H1219     1.0  0.03460  0.91675  0.77079  1.0000
  C   C694      1.0  0.01934  0.91988  0.62363  1.0000
  C   C695      1.0  0.00408  0.92582  0.59946  1.0000
  C   C696      1.0  0.99543  0.91252  0.57422  1.0000
  C   C697      1.0  0.00206  0.89325  0.57317  1.0000
  C   C698      1.0  0.01723  0.88728  0.59753  1.0000
  C   C699      1.0  0.02598  0.90062  0.62255  1.0000
  H   H1220     1.0  0.23301  0.85745  0.82348  1.0000
  H   H1221     1.0  0.99005  0.86906  0.75684  1.0000
  H   H1222     1.0  0.02217  0.87232  0.59708  1.0000
  H   H1223     1.0  0.03771  0.89594  0.64119  1.0000
  C   C700      1.0  0.12584  0.86957  0.63625  1.0000
  C   C701      1.0  0.14055  0.88266  0.64021  1.0000
  C   C702      1.0  0.15847  0.87805  0.62440  1.0000
  C   C703      1.0  0.16189  0.86025  0.60512  1.0000
  C   C704      1.0  0.14719  0.84715  0.60161  1.0000
  C   C705      1.0  0.12927  0.85182  0.61704  1.0000
  H   H1224     1.0  0.13804  0.89639  0.65492  1.0000
  H   H1225     1.0  0.16976  0.88829  0.62708  1.0000
  H   H1226     1.0  0.14948  0.83360  0.58618  1.0000
  H   H1227     1.0  0.11794  0.84166  0.61369  1.0000
  C   C706      1.0  0.27863  0.83939  0.94631  1.0000
  C   C707      1.0  0.25941  0.84099  0.95605  1.0000
  H   H1228     1.0  0.05851  0.95604  0.60672  1.0000
  H   H1229     1.0  0.06576  0.99858  0.98117  1.0000
  C   C708      1.0  0.09113  0.97828  0.61857  1.0000
  C   C709      1.0  0.29224  0.83628  0.97601  1.0000
  C   C710      1.0  0.20667  0.75756  0.74890  1.0000
  H   H1230     1.0  0.02354  0.98418  0.97774  1.0000
  H   H1231     1.0  0.03129  0.95161  0.00245  1.0000
  H   H1232     1.0  0.25830  0.79067  0.66091  1.0000
  C   C711      1.0  0.10167  0.89019  0.00159  1.0000
  H   H1233     1.0  0.98194  0.95333  0.66083  1.0000
  C   C712      1.0  0.06054  0.88097  0.54788  1.0000
  C   C713      1.0  0.10126  0.98151  0.77533  1.0000
  H   H1234     1.0  0.99961  0.89373  0.68398  1.0000
  N   N39       1.0  0.02424  0.98377  0.83716  1.0000
  C   C714      1.0  0.18672  0.77288  0.99872  1.0000
  H   H1235     1.0  0.02439  0.86847  0.70202  1.0000
  C   C715      1.0  0.25668  0.78111  0.93067  1.0000
  H   H1236     1.0  0.03634  0.98275  0.89608  1.0000
  H   H1237     1.0  0.16379  0.81729  0.86817  1.0000
  H   H1238     1.0  0.04897  0.84843  0.59031  1.0000
  H   H1239     1.0  0.04200  0.97638  0.60433  1.0000
  C   C716      1.0  0.21969  0.77972  0.88994  1.0000
  Fe  Fe70      1.0  0.22583  0.79466  0.55151  1.0000
  C   C717      1.0  0.05112  0.94678  0.90657  1.0000
  H   H1240     1.0  0.07219  0.84165  0.60929  1.0000
  H   H1241     1.0  0.23950  0.80737  0.92993  1.0000
  N   N40       1.0  0.23434  0.79319  0.87420  1.0000
  C   C718      1.0  0.24739  0.79842  0.90791  1.0000
  C   C719      1.0  0.22391  0.81138  0.86022  1.0000
  H   H1242     1.0  0.08473  0.92270  0.56232  1.0000
  C   C720      1.0  0.24454  0.78319  0.84072  1.0000
  C   C721      1.0  0.26511  0.78938  0.83255  1.0000
  H   H1243     1.0  0.99890  0.94071  0.60031  1.0000
  H   H1244     1.0  0.04744  0.95444  0.93424  1.0000
  C   C722      1.0  0.23604  0.82771  0.84351  1.0000
  C   C723      1.0  0.27162  0.78206  0.79235  1.0000
  H   H1245     1.0  0.05001  0.93093  0.91127  1.0000
  H   H1246     1.0  0.30709  0.83533  0.96881  1.0000
  H   H1247     1.0  0.98586  0.99859  0.63692  1.0000
  H   H1248     1.0  0.25895  0.80770  0.89808  1.0000
  H   H1249     1.0  0.21385  0.80801  0.83595  1.0000
  H   H1250     1.0  0.21525  0.81763  0.88460  1.0000
  H   H1251     1.0  0.07763  0.90938  0.00729  1.0000
  H   H1252     1.0  0.98367  0.87385  0.64355  1.0000
  H   H1253     1.0  0.27060  0.76605  0.79028  1.0000
  H   H1254     1.0  0.23611  0.78502  0.81300  1.0000
  H   H1255     1.0  0.27496  0.78317  0.85516  1.0000
  H   H1256     1.0  0.26679  0.80526  0.83328  1.0000
  H   H1257     1.0  0.03805  0.97538  0.71812  1.0000
  H   H1258     1.0  0.15938  0.96033  0.63319  1.0000
  C   C724      1.0  0.14789  0.95643  0.65339  1.0000
  H   H1259     1.0  0.19452  0.78623  0.85255  1.0000
  H   H1260     1.0  0.24761  0.83175  0.86391  1.0000
  H   H1261     1.0  0.24209  0.82312  0.81493  1.0000
  H   H1262     1.0  0.04509  0.96690  0.52611  1.0000
  H   H1263     1.0  0.24554  0.76720  0.84559  1.0000
  C   C725      1.0  0.08036  0.89348  0.00694  1.0000
  H   H1264     1.0  0.21750  0.76636  0.76211  1.0000
  H   H1265     1.0  0.08689  0.86696  0.57184  1.0000
  H   H1266     1.0  0.02345  0.94829  0.87973  1.0000
  N   N41       1.0  0.10778  0.98931  0.60394  1.0000
  H   H1267     1.0  0.28660  0.78594  0.78799  1.0000
  H   H1268     1.0  0.04422  0.97643  0.79129  1.0000
  H   H1269     1.0  0.24886  0.84379  0.93331  1.0000
  H   H1270     1.0  0.22657  0.76590  0.90025  1.0000
  H   H1271     1.0  0.16093  0.75848  0.98333  1.0000
  C   C726      1.0  0.02882  0.97537  0.79736  1.0000
  H   H1272     1.0  0.05292  0.97849  0.85854  1.0000
  H   H1273     1.0  0.14944  0.96457  0.68145  1.0000
  C   C727      1.0  0.00413  0.97882  0.84684  1.0000
  H   H1274     1.0  0.24602  0.77442  0.94951  1.0000
  H   H1275     1.0  0.18335  0.76457  0.90288  1.0000
  H   H1276     1.0  0.21514  0.85166  0.71668  1.0000
  H   H1277     1.0  0.99855  0.98047  0.98205  1.0000
  H   H1278     1.0  0.26750  0.77723  0.61961  1.0000
  H   H1279     1.0  0.05788  0.89080  0.57332  1.0000
  H   H1280     1.0  0.10404  0.95596  0.55698  1.0000
  H   H1281     1.0  0.00665  0.94745  0.01181  1.0000
  C   C728      1.0  0.03818  0.97547  0.86707  1.0000
  C   C729      1.0  0.17624  0.75738  0.98408  1.0000
  H   H1282     1.0  0.29357  0.77382  0.56318  1.0000
  C   C730      1.0  0.25373  0.83854  0.99507  1.0000
  H   H1283     1.0  0.21239  0.84316  0.81432  1.0000
  H   H1284     1.0  0.07340  0.85176  0.53960  1.0000
  H   H1285     1.0  0.99029  0.86009  0.70701  1.0000
  H   H1286     1.0  0.17882  0.75528  0.66675  1.0000
  C   C731      1.0  0.19890  0.76265  0.71223  1.0000
  H   H1287     1.0  0.01446  0.98000  0.54457  1.0000
  C   C732      1.0  0.20650  0.77146  0.99937  1.0000
  H   H1288     1.0  0.02410  0.87703  0.75239  1.0000
  H   H1289     1.0  0.24626  0.76077  0.68973  1.0000
  C   C733      1.0  0.12573  0.98281  0.62552  1.0000
  C   C734      1.0  0.01270  0.97714  0.99555  1.0000
  H   H1290     1.0  0.12720  0.95166  0.60822  1.0000
  H   H1291     1.0  0.09528  0.95410  0.80186  1.0000
  H   H1292     1.0  0.30429  0.81683  0.68048  1.0000
  H   H1293     1.0  0.01485  0.88015  0.93929  1.0000
  C   C735      1.0  0.97993  0.98638  0.57921  1.0000
  H   H1294     1.0  0.21942  0.82783  0.69537  1.0000
  C   C736      1.0  0.10988  0.98745  0.55997  1.0000
  H   H1295     1.0  0.27702  0.77277  0.66879  1.0000
  C   C737      1.0  0.02269  0.97420  0.72381  1.0000
  H   H1296     1.0  0.26728  0.79928  0.97812  1.0000
  H   H1297     1.0  0.02147  0.89752  0.00042  1.0000
  H   H1298     1.0  0.21783  0.85170  0.86360  1.0000
  H   H1299     1.0  0.07156  0.98236  0.56816  1.0000
  H   H1300     1.0  0.21264  0.78627  0.91616  1.0000
  C   C738      1.0  0.09613  0.96959  0.80627  1.0000
  C   C739      1.0  0.99620  0.87105  0.72736  1.0000
  Fe  Fe71      1.0  0.18504  0.78341  0.54245  1.0000
  C   C740      1.0  0.09262  0.97758  0.84346  1.0000
  C   C741      1.0  0.21156  0.84190  0.69179  1.0000
  H   H1301     1.0  0.11776  0.95612  0.65572  1.0000
  H   H1302     1.0  0.02614  0.95955  0.79689  1.0000
  N   N42       1.0  0.16224  0.82547  0.72944  1.0000
  C   C742      1.0  0.15904  0.81362  0.76586  1.0000
  C   C743      1.0  0.15685  0.81399  0.69319  1.0000
  C   C744      1.0  0.18321  0.82924  0.72783  1.0000
  C   C745      1.0  0.15187  0.84491  0.73027  1.0000
  C   C746      1.0  0.13023  0.84488  0.73682  1.0000
  C   C747      1.0  0.16505  0.82297  0.80548  1.0000
  C   C748      1.0  0.19024  0.83875  0.68955  1.0000
  C   C749      1.0  0.13922  0.80107  0.69584  1.0000
  C   C750      1.0  0.13357  0.79299  0.65564  1.0000
  C   C751      1.0  0.12274  0.86510  0.74814  1.0000
  C   C752      1.0  0.15797  0.81134  0.84026  1.0000
  H   H1303     1.0  0.00192  0.98256  0.76608  1.0000
  H   H1304     1.0  0.16687  0.79939  0.76347  1.0000
  H   H1305     1.0  0.14398  0.80977  0.76848  1.0000
  H   H1306     1.0  0.15474  0.82386  0.66760  1.0000
  H   H1307     1.0  0.16867  0.80377  0.68502  1.0000
  H   H1308     1.0  0.19155  0.81545  0.73206  1.0000
  H   H1309     1.0  0.18757  0.83893  0.75234  1.0000
  H   H1310     1.0  0.15836  0.85458  0.75266  1.0000
  H   H1311     1.0  0.15361  0.85264  0.70197  1.0000
  H   H1312     1.0  0.12613  0.83498  0.76052  1.0000
  H   H1313     1.0  0.12291  0.84076  0.70904  1.0000
  H   H1314     1.0  0.18073  0.82328  0.80800  1.0000
  H   H1315     1.0  0.15919  0.83797  0.80838  1.0000
  H   H1316     1.0  0.18322  0.85312  0.68453  1.0000
  H   H1317     1.0  0.18748  0.82947  0.66352  1.0000
  H   H1318     1.0  0.14247  0.78845  0.71529  1.0000
  H   H1319     1.0  0.12680  0.80904  0.70776  1.0000
  H   H1320     1.0  0.12057  0.78442  0.65833  1.0000
  H   H1321     1.0  0.13061  0.80493  0.63439  1.0000
  H   H1322     1.0  0.14501  0.78325  0.64420  1.0000
  H   H1323     1.0  0.12709  0.87601  0.72636  1.0000
  H   H1324     1.0  0.10701  0.86522  0.74889  1.0000
  H   H1325     1.0  0.12818  0.86929  0.77767  1.0000
  H   H1326     1.0  0.14225  0.81232  0.84141  1.0000
  H   H1327     1.0  0.16248  0.79584  0.83783  1.0000
  C   C753      1.0  0.22397  0.84608  0.83578  1.0000
  H   H1328     1.0  0.26289  0.78892  0.76850  1.0000
  H   H1329     1.0  0.99544  0.93184  0.71223  1.0000
  C   C754      1.0  0.06314  0.85396  0.59838  1.0000
  H   H1330     1.0  0.21616  0.84873  0.66410  1.0000
  S   S154      1.0  0.99162  0.87648  0.54149  1.0000
  S   S155      1.0  0.25539  0.78592  0.53193  1.0000
  C   C755      1.0  0.03200  0.88619  0.99113  1.0000
  H   H1331     1.0  0.21019  0.76764  0.83322  1.0000
  H   H1332     1.0  0.00120  0.99755  0.89933  1.0000
  H   H1333     1.0  0.99395  0.98727  0.82787  1.0000
  H   H1334     1.0  0.14932  0.94069  0.65997  1.0000
  C   C756      1.0  0.30681  0.76595  0.57303  1.0000
  H   H1335     1.0  0.00571  0.97243  0.90998  1.0000
  H   H1336     1.0  0.04294  0.89328  0.97370  1.0000
  C   C757      1.0  0.01753  0.86692  0.73099  1.0000
  H   H1337     1.0  0.12156  0.89786  0.56914  1.0000
  C   C758      1.0  0.07151  0.98408  0.60046  1.0000
  C   C759      1.0  0.26400  0.77628  0.65126  1.0000
  H   H1338     1.0  0.08912  0.96815  0.86743  1.0000
  H   H1339     1.0  0.04275  0.94568  0.84602  1.0000
  H   H1340     1.0  0.30448  0.76162  0.60398  1.0000
  C   C760      1.0  0.11338  0.91185  0.56926  1.0000
  C   C761      1.0  0.01654  0.95527  0.99292  1.0000
  C   C762      1.0  0.20393  0.77371  0.86036  1.0000
  C   C763      1.0  0.99210  0.89192  0.71222  1.0000
  H   H1341     1.0  0.06167  0.86473  0.62259  1.0000
  H   H1342     1.0  0.09310  0.96253  0.61354  1.0000
  H   H1343     1.0  0.01017  0.86491  0.98045  1.0000
  H   H1344     1.0  0.05586  0.91866  0.53549  1.0000
  H   H1345     1.0  0.29197  0.82025  0.63419  1.0000
  H   H1346     1.0  0.98288  0.96537  0.70793  1.0000
  H   H1347     1.0  0.07317  0.88699  0.98113  1.0000
  H   H1348     1.0  0.12206  0.99585  0.54979  1.0000
  H   H1349     1.0  0.00135  0.96334  0.83994  1.0000
  C   C764      1.0  0.30609  0.81730  0.64812  1.0000
  H   H1350     1.0  0.01921  0.95862  0.72524  1.0000
  H   H1351     1.0  0.27795  0.77551  0.97623  1.0000
  H   H1352     1.0  0.10533  0.87444  0.00000  1.0000
  H   H1353     1.0  0.01464  0.95023  0.96216  1.0000
  H   H1354     1.0  0.09740  0.99419  0.54456  1.0000
  C   C765      1.0  0.05603  0.97133  0.61610  1.0000
  C   C766      1.0  0.24921  0.76094  0.65785  1.0000
  C   C767      1.0  0.27261  0.78780  0.95794  1.0000
  C   C768      1.0  0.07235  0.86306  0.56277  1.0000
  H   H1355     1.0  0.30478  0.80424  0.57390  1.0000
  C   C769      1.0  0.97984  0.93425  0.71108  1.0000
  H   H1356     1.0  0.08736  0.90004  0.58793  1.0000
  H   H1357     1.0  0.98362  0.91718  0.55571  1.0000
  H   H1358     1.0  0.13838  0.98750  0.60922  1.0000
  C   C770      1.0  0.01430  0.99191  0.52277  1.0000
  C   C771      1.0  0.99811  0.98261  0.88984  1.0000
  C   C772      1.0  0.09362  0.99759  0.84989  1.0000
  C   C773      1.0  0.01735  0.98428  0.76221  1.0000
  H   H1359     1.0  0.09011  0.97993  0.65107  1.0000
  H   H1360     1.0  0.12826  0.96226  0.54771  1.0000
  C   C774      1.0  0.11315  0.96673  0.54328  1.0000
  H   H1361     1.0  0.09862  0.88443  0.52255  1.0000
  H   H1362     1.0  0.06742  0.99925  0.60779  1.0000
  H   H1363     1.0  0.29940  0.75881  0.83826  1.0000
  H   H1364     1.0  0.05564  0.97202  0.64871  1.0000
  H   H1365     1.0  0.23886  0.83931  0.00226  1.0000
  C   C775      1.0  0.09229  0.90839  0.56247  1.0000
  H   H1366     1.0  0.23614  0.76576  0.64195  1.0000
  S   S156      1.0  0.20123  0.80807  0.51768  1.0000
  H   H1367     1.0  0.30447  0.78661  0.64205  1.0000
  H   H1368     1.0  0.11891  0.92139  0.54611  1.0000
  H   H1369     1.0  0.02004  0.99994  0.75880  1.0000
  C   C776      1.0  0.06944  0.00271  0.01189  1.0000
  H   H1370     1.0  0.01465  0.98094  0.69887  1.0000
  C   C777      1.0  0.08896  0.89747  0.52312  1.0000
  H   H1371     1.0  0.02480  0.93448  0.51645  1.0000
  H   H1372     1.0  0.21469  0.78356  0.00929  1.0000
  H   H1373     1.0  0.07783  0.00215  0.71174  1.0000
  C   C778      1.0  0.98499  0.00369  0.55261  1.0000
  C   C779      1.0  0.10258  0.00158  0.78171  1.0000
  H   H1374     1.0  0.02251  0.00359  0.53714  1.0000
  C   C780      1.0  0.21572  0.75422  0.98767  1.0000
  S   S157      1.0  0.35641  0.19929  0.23941  1.0000
  Fe  Fe72      1.0  0.33549  0.15982  0.35434  1.0000
  S   S158      1.0  0.34750  0.13894  0.40026  1.0000
  H   H1375     1.0  0.36996  0.22417  0.17884  1.0000
  S   S159      1.0  0.34433  0.19073  0.34988  1.0000
  N   N43       1.0  0.60304  0.09752  0.02280  1.0000
  H   H1376     1.0  0.51521  0.00899  0.09756  1.0000
  H   H1377     1.0  0.31326  0.16203  0.49762  1.0000
  Fe  Fe73      1.0  0.44511  0.08304  0.43539  1.0000
  S   S160      1.0  0.44743  0.05187  0.41546  1.0000
  S   S161      1.0  0.43222  0.10603  0.39481  1.0000
  H   H1378     1.0  0.34817  0.14333  0.20292  1.0000
  C   C781      1.0  0.35124  0.22378  0.22826  1.0000
  Fe  Fe74      1.0  0.47820  0.05382  0.43140  1.0000
  S   S162      1.0  0.50205  0.03991  0.39688  1.0000
  H   H1379     1.0  0.57942  0.10029  0.33194  1.0000
  S   S163      1.0  0.47645  0.08533  0.44664  1.0000
  Fe  Fe75      1.0  0.57489  0.06132  0.14505  1.0000
  S   S164      1.0  0.56717  0.09096  0.16769  1.0000
  S   S165      1.0  0.56943  0.04962  0.08415  1.0000
  Fe  Fe76      1.0  0.59150  0.04830  0.22343  1.0000
  S   S166      1.0  0.58560  0.07699  0.25281  1.0000
  H   H1380     1.0  0.35700  0.01505  0.28938  1.0000
  Fe  Fe77      1.0  0.55747  0.07568  0.22151  1.0000
  S   S167      1.0  0.52939  0.08487  0.24708  1.0000
  Fe  Fe78      1.0  0.59598  0.08994  0.19642  1.0000
  C   C782      1.0  0.59777  0.01659  0.30000  1.0000
  S   S168      1.0  0.56260  0.04611  0.19621  1.0000
  S   S169      1.0  0.60450  0.06121  0.16979  1.0000
  H   H1381     1.0  0.63836  0.05313  0.06880  1.0000
  H   H1382     1.0  0.59312  0.10424  0.10619  1.0000
  H   H1383     1.0  0.40212  0.04209  0.29986  1.0000
  C   C783      1.0  0.50924  0.05228  0.35478  1.0000
  C   C784      1.0  0.52475  0.04500  0.33344  1.0000
  C   C785      1.0  0.53119  0.05502  0.30060  1.0000
  C   C786      1.0  0.52184  0.07212  0.28838  1.0000
  C   C787      1.0  0.50608  0.07917  0.30918  1.0000
  C   C788      1.0  0.49988  0.06936  0.34251  1.0000
  H   H1384     1.0  0.53198  0.03172  0.34257  1.0000
  H   H1385     1.0  0.54340  0.04953  0.28479  1.0000
  H   H1386     1.0  0.49881  0.09241  0.29981  1.0000
  H   H1387     1.0  0.48787  0.07505  0.35871  1.0000
  C   C789      1.0  0.51322  0.07064  0.02936  1.0000
  H   H1388     1.0  0.32263  0.14815  0.09126  1.0000
  C   C790      1.0  0.53972  0.04747  0.03213  1.0000
  C   C791      1.0  0.54772  0.05767  0.06359  1.0000
  C   C792      1.0  0.53854  0.07443  0.07767  1.0000
  C   C793      1.0  0.52143  0.08099  0.06034  1.0000
  H   H1389     1.0  0.58562  0.07690  0.39554  1.0000
  H   H1390     1.0  0.33205  0.23011  0.11637  1.0000
  H   H1391     1.0  0.54469  0.08254  0.10151  1.0000
  H   H1392     1.0  0.51444  0.09405  0.07118  1.0000
  H   H1393     1.0  0.59055  0.06235  0.45945  1.0000
  H   H1394     1.0  0.58020  0.01084  0.06797  1.0000
  H   H1395     1.0  0.38012  0.09474  0.35207  1.0000
  C   C794      1.0  0.37129  0.13049  0.39933  1.0000
  C   C795      1.0  0.37793  0.11741  0.42827  1.0000
  C   C796      1.0  0.39671  0.11004  0.42781  1.0000
  C   C797      1.0  0.40896  0.11580  0.39842  1.0000
  C   C798      1.0  0.40238  0.12908  0.36980  1.0000
  C   C799      1.0  0.38358  0.13634  0.37010  1.0000
  H   H1396     1.0  0.36847  0.11282  0.45095  1.0000
  H   H1397     1.0  0.40167  0.09981  0.44996  1.0000
  H   H1398     1.0  0.41181  0.13360  0.34700  1.0000
  H   H1399     1.0  0.37860  0.14640  0.34766  1.0000
  H   H1400     1.0  0.57427  0.04443  0.40934  1.0000
  Fe  Fe79      1.0  0.44330  0.04481  0.47918  1.0000
  C   C800      1.0  0.60776  0.01891  0.36847  1.0000
  H   H1401     1.0  0.51001  0.01869  0.48677  1.0000
  H   H1402     1.0  0.37898  0.07349  0.40933  1.0000
  N   N44       1.0  0.56305  0.07099  0.43574  1.0000
  C   C801      1.0  0.57116  0.08263  0.40281  1.0000
  H   H1403     1.0  0.53865  0.04103  0.46095  1.0000
  C   C802      1.0  0.56057  0.05055  0.42051  1.0000
  C   C803      1.0  0.54415  0.07902  0.44945  1.0000
  C   C804      1.0  0.54111  0.10143  0.44891  1.0000
  C   C805      1.0  0.55939  0.08293  0.36390  1.0000
  H   H1404     1.0  0.33534  0.20544  0.16636  1.0000
  C   C806      1.0  0.31368  0.17814  0.49743  1.0000
  H   H1405     1.0  0.34021  0.15609  0.05804  1.0000
  S   S170      1.0  0.43846  0.07582  0.49815  1.0000
  C   C807      1.0  0.56405  0.10031  0.33840  1.0000
  C   C808      1.0  0.42902  0.06995  0.30825  1.0000
  H   H1406     1.0  0.62416  0.16652  0.29023  1.0000
  H   H1407     1.0  0.57333  0.09784  0.41178  1.0000
  H   H1408     1.0  0.32563  0.17134  0.19451  1.0000
  H   H1409     1.0  0.54154  0.07389  0.47971  1.0000
  C   C809      1.0  0.38951  0.05206  0.30119  1.0000
  H   H1410     1.0  0.61515  0.04437  0.08040  1.0000
  H   H1411     1.0  0.53228  0.07309  0.43146  1.0000
  C   C810      1.0  0.40921  0.08032  0.30979  1.0000
  H   H1412     1.0  0.53692  0.10623  0.41883  1.0000
  H   H1413     1.0  0.52270  0.12381  0.47417  1.0000
  H   H1414     1.0  0.56272  0.06956  0.34671  1.0000
  H   H1415     1.0  0.54393  0.08342  0.36934  1.0000
  C   C811      1.0  0.58645  0.11347  0.08288  1.0000
  C   C812      1.0  0.49411  0.01263  0.05203  1.0000
  C   C813      1.0  0.34712  0.24312  0.44342  1.0000
  H   H1416     1.0  0.55393  0.10935  0.45738  1.0000
  H   H1417     1.0  0.63334  0.09288  0.14111  1.0000
  H   H1418     1.0  0.62374  0.08617  0.06494  1.0000
  Fe  Fe80      1.0  0.33735  0.18749  0.28568  1.0000
  H   H1419     1.0  0.33050  0.19979  0.46884  1.0000
  S   S171      1.0  0.36757  0.24744  0.02268  1.0000
  H   H1420     1.0  0.44524  0.09642  0.31091  1.0000
  H   H1421     1.0  0.55602  0.09956  0.31016  1.0000
  H   H1422     1.0  0.55991  0.11408  0.35337  1.0000
  C   C814      1.0  0.38409  0.19340  0.06123  1.0000
  H   H1423     1.0  0.63578  0.12301  0.01939  1.0000
  H   H1424     1.0  0.36201  0.24380  0.43661  1.0000
  C   C815      1.0  0.55258  0.03581  0.44994  1.0000
  N   N45       1.0  0.33632  0.18654  0.11565  1.0000
  C   C816      1.0  0.34340  0.17037  0.14237  1.0000
  H   H1425     1.0  0.33174  0.22821  0.27564  1.0000
  H   H1426     1.0  0.53560  0.01011  0.26308  1.0000
  H   H1427     1.0  0.52741  0.02494  0.15838  1.0000
  H   H1428     1.0  0.51218  0.10040  0.47007  1.0000
  H   H1429     1.0  0.32282  0.18991  0.05851  1.0000
  N   N46       1.0  0.39350  0.06899  0.32793  1.0000
  H   H1430     1.0  0.35481  0.17568  0.16240  1.0000
  C   C817      1.0  0.47968  0.03366  0.17588  1.0000
  C   C818      1.0  0.39370  0.04945  0.43657  1.0000
  H   H1431     1.0  0.63329  0.12598  0.32458  1.0000
  H   H1432     1.0  0.31318  0.21780  0.09111  1.0000
  H   H1433     1.0  0.61138  0.13978  0.32942  1.0000
  C   C819      1.0  0.49997  0.01335  0.09536  1.0000
  H   H1434     1.0  0.33361  0.17585  0.45084  1.0000
  H   H1435     1.0  0.60071  0.07774  0.07154  1.0000
  H   H1436     1.0  0.32380  0.13627  0.20513  1.0000
  H   H1437     1.0  0.46667  0.00999  0.14324  1.0000
  C   C820      1.0  0.45386  0.01180  0.19944  1.0000
  H   H1438     1.0  0.40878  0.04832  0.36547  1.0000
  H   H1439     1.0  0.52369  0.03772  0.22612  1.0000
  H   H1440     1.0  0.38267  0.04781  0.45915  1.0000
  C   C821      1.0  0.33788  0.23444  0.24994  1.0000
  C   C822      1.0  0.62500  0.04743  0.05617  1.0000
  H   H1441     1.0  0.56304  0.01016  0.41871  1.0000
  C   C823      1.0  0.35319  0.19614  0.09806  1.0000
  H   H1442     1.0  0.36455  0.07543  0.34604  1.0000
  H   H1443     1.0  0.57177  0.06098  0.49375  1.0000
  C   C824      1.0  0.32266  0.17987  0.08406  1.0000
  H   H1444     1.0  0.47931  0.01814  0.04774  1.0000
  H   H1445     1.0  0.35789  0.18140  0.04191  1.0000
  H   H1446     1.0  0.38010  0.17543  0.39875  1.0000
  C   C825      1.0  0.38496  0.18829  0.41536  1.0000
  H   H1447     1.0  0.33936  0.09509  0.31346  1.0000
  H   H1448     1.0  0.50865  0.00458  0.30927  1.0000
  S   S172      1.0  0.61232  0.11780  0.19570  1.0000
  C   C826      1.0  0.33478  0.23328  0.41811  1.0000
  C   C827      1.0  0.61588  0.06201  0.02746  1.0000
  H   H1449     1.0  0.35824  0.25215  0.31764  1.0000
  H   H1450     1.0  0.33715  0.13123  0.16139  1.0000
  H   H1451     1.0  0.38049  0.17722  0.49252  1.0000
  S   S173      1.0  0.33071  0.15572  0.28923  1.0000
  C   C828      1.0  0.52547  0.10795  0.47697  1.0000
  H   H1452     1.0  0.31457  0.14005  0.02287  1.0000
  C   C829      1.0  0.63267  0.14197  0.14988  1.0000
  C   C830      1.0  0.60033  0.11536  0.04822  1.0000
  C   C831      1.0  0.38504  0.05920  0.40000  1.0000
  H   H1453     1.0  0.60668  0.02391  0.48366  1.0000
  H   H1454     1.0  0.40511  0.05839  0.44936  1.0000
  C   C832      1.0  0.35062  0.10409  0.30107  1.0000
  H   H1455     1.0  0.57289  0.10699  0.07367  1.0000
  C   C833      1.0  0.31976  0.22060  0.12029  1.0000
  H   H1456     1.0  0.44446  0.00613  0.04242  1.0000
  C   C834      1.0  0.33484  0.14186  0.18553  1.0000
  C   C835      1.0  0.58188  0.13325  0.10133  1.0000
  C   C836      1.0  0.37286  0.03919  0.31253  1.0000
  H   H1457     1.0  0.34869  0.20895  0.08019  1.0000
  H   H1458     1.0  0.54686  0.03459  0.02086  1.0000
  H   H1459     1.0  0.43998  0.08801  0.26156  1.0000
  H   H1460     1.0  0.37321  0.05032  0.38945  1.0000
  H   H1461     1.0  0.61393  0.11962  0.06219  1.0000
  S   S174      1.0  0.60325  0.02070  0.25054  1.0000
  H   H1462     1.0  0.50434  0.02194  0.23507  1.0000
  C   C837      1.0  0.54955  0.01616  0.43045  1.0000
  C   C838      1.0  0.59663  0.00812  0.13813  1.0000
  H   H1463     1.0  0.62586  0.15355  0.16635  1.0000
  Fe  Fe81      1.0  0.47011  0.07540  0.50756  1.0000
  C   C839      1.0  0.37652  0.08261  0.33188  1.0000
  C   C840      1.0  0.36688  0.17868  0.47588  1.0000
  H   H1464     1.0  0.35689  0.19859  0.42889  1.0000
  C   C841      1.0  0.32825  0.16153  0.16907  1.0000
  C   C842      1.0  0.62810  0.12268  0.15740  1.0000
  C   C843      1.0  0.57725  0.06983  0.46940  1.0000
  C   C844      1.0  0.44386  0.08338  0.29191  1.0000
  C   C845      1.0  0.62379  0.13705  0.31031  1.0000
  H   H1465     1.0  0.35964  0.04782  0.31732  1.0000
  H   H1466     1.0  0.34521  0.11060  0.27315  1.0000
  H   H1467     1.0  0.63022  0.19442  0.16630  1.0000
  H   H1468     1.0  0.35022  0.15841  0.12552  1.0000
  H   H1469     1.0  0.57275  0.13140  0.12727  1.0000
  H   H1470     1.0  0.59507  0.14029  0.11135  1.0000
  H   H1471     1.0  0.57424  0.14283  0.07989  1.0000
  N   N47       1.0  0.49863  0.03626  0.15690  1.0000
  H   H1472     1.0  0.58285  0.01622  0.13946  1.0000
  C   C846      1.0  0.49706  0.03406  0.11267  1.0000
  C   C847      1.0  0.50486  0.05665  0.16575  1.0000
  H   H1473     1.0  0.38123  0.20763  0.04692  1.0000
  C   C848      1.0  0.36869  0.02441  0.28016  1.0000
  H   H1474     1.0  0.48024  0.03833  0.20722  1.0000
  C   C849      1.0  0.49267  0.07334  0.14674  1.0000
  H   H1475     1.0  0.61636  0.02564  0.39098  1.0000
  H   H1476     1.0  0.41002  0.07271  0.38155  1.0000
  H   H1477     1.0  0.36518  0.16469  0.45981  1.0000
  H   H1478     1.0  0.55054  0.05058  0.39508  1.0000
  C   C850      1.0  0.50059  0.09312  0.15726  1.0000
  C   C851      1.0  0.40025  0.06207  0.36812  1.0000
  H   H1479     1.0  0.38716  0.05709  0.27043  1.0000
  H   H1480     1.0  0.48313  0.04006  0.10180  1.0000
  H   H1481     1.0  0.50793  0.04285  0.09798  1.0000
  H   H1482     1.0  0.51979  0.05847  0.15633  1.0000
  H   H1483     1.0  0.50482  0.05954  0.19795  1.0000
  H   H1484     1.0  0.53896  0.01745  0.40616  1.0000
  H   H1485     1.0  0.46875  0.04342  0.16200  1.0000
  H   H1486     1.0  0.37664  0.03083  0.33943  1.0000
  H   H1487     1.0  0.31347  0.19529  0.15406  1.0000
  H   H1488     1.0  0.37533  0.20806  0.45976  1.0000
  H   H1489     1.0  0.31464  0.15967  0.15300  1.0000
  H   H1490     1.0  0.47789  0.07328  0.15727  1.0000
  H   H1491     1.0  0.49232  0.07215  0.11424  1.0000
  C   C852      1.0  0.32560  0.15892  0.06816  1.0000
  H   H1492     1.0  0.36478  0.08048  0.27157  1.0000
  H   H1493     1.0  0.63297  0.21480  0.19963  1.0000
  H   H1494     1.0  0.43408  0.06540  0.33783  1.0000
  C   C853      1.0  0.58266  0.08917  0.48939  1.0000
  H   H1495     1.0  0.58735  0.10000  0.46796  1.0000
  H   H1496     1.0  0.42867  0.05695  0.28901  1.0000
  H   H1497     1.0  0.39867  0.18459  0.43031  1.0000
  H   H1498     1.0  0.41097  0.09426  0.32582  1.0000
  C   C854      1.0  0.63422  0.15593  0.30425  1.0000
  H   H1499     1.0  0.38721  0.20016  0.39410  1.0000
  H   H1500     1.0  0.49250  0.10469  0.14112  1.0000
  H   H1501     1.0  0.49928  0.09596  0.18926  1.0000
  H   H1502     1.0  0.51574  0.09384  0.14916  1.0000
  H   H1503     1.0  0.36243  0.20189  0.12203  1.0000
  H   H1504     1.0  0.39261  0.18410  0.04113  1.0000
  H   H1505     1.0  0.37894  0.10157  0.28022  1.0000
  H   H1506     1.0  0.63795  0.17059  0.22154  1.0000
  H   H1507     1.0  0.32874  0.23639  0.03412  1.0000
  H   H1508     1.0  0.39251  0.19568  0.08862  1.0000
  C   C855      1.0  0.33248  0.18448  0.47858  1.0000
  C   C856      1.0  0.61100  0.08138  0.04842  1.0000
  C   C857      1.0  0.36853  0.09180  0.29332  1.0000
  H   H1509     1.0  0.36945  0.16921  0.08309  1.0000
  H   H1510     1.0  0.35372  0.11604  0.32195  1.0000
  H   H1511     1.0  0.34010  0.22673  0.39148  1.0000
  H   H1512     1.0  0.39966  0.03482  0.42933  1.0000
  C   C858      1.0  0.36557  0.18351  0.07027  1.0000
  S   S175      1.0  0.42694  0.01886  0.49756  1.0000
  H   H1513     1.0  0.52972  0.10474  0.50790  1.0000
  H   H1514     1.0  0.63788  0.19091  0.25317  1.0000
  C   C859      1.0  0.37010  0.19478  0.44519  1.0000
  H   H1515     1.0  0.40555  0.08436  0.27896  1.0000
  H   H1516     1.0  0.35434  0.21316  0.50643  1.0000
  H   H1517     1.0  0.57645  0.08244  0.02629  1.0000
  H   H1518     1.0  0.56246  0.03315  0.47509  1.0000
  H   H1519     1.0  0.59549  0.12793  0.02975  1.0000
  H   H1520     1.0  0.45788  0.07567  0.29131  1.0000
  C   C860      1.0  0.35952  0.23229  0.19557  1.0000
  H   H1521     1.0  0.61630  0.03834  0.32279  1.0000
  C   C861      1.0  0.51371  0.02244  0.17326  1.0000
  C   C862      1.0  0.60763  0.02619  0.32993  1.0000
  C   C863      1.0  0.32626  0.20148  0.14093  1.0000
  C   C864      1.0  0.63662  0.10781  0.13529  1.0000
  S   S176      1.0  0.47418  0.04393  0.49330  1.0000
  H   H1522     1.0  0.36426  0.03188  0.25251  1.0000
  H   H1523     1.0  0.63828  0.16145  0.33381  1.0000
  H   H1524     1.0  0.50361  0.02141  0.03415  1.0000
  C   C865      1.0  0.64051  0.20444  0.17986  1.0000
  C   C866      1.0  0.51751  0.02362  0.21823  1.0000
  H   H1525     1.0  0.54476  0.00785  0.21426  1.0000
  H   H1526     1.0  0.38139  0.01499  0.27454  1.0000
  C   C867      1.0  0.35381  0.25105  0.18359  1.0000
  H   H1527     1.0  0.61858  0.13128  0.28171  1.0000
  H   H1528     1.0  0.48500  0.00489  0.44066  1.0000
  C   C868      1.0  0.31555  0.23238  0.42686  1.0000
  H   H1529     1.0  0.64367  0.09791  0.02201  1.0000
  H   H1530     1.0  0.44278  0.02261  0.19004  1.0000
  H   H1531     1.0  0.60789  0.01829  0.13026  1.0000
  H   H1532     1.0  0.54424  0.00591  0.45252  1.0000
  C   C869      1.0  0.31209  0.15506  0.03376  1.0000
  H   H1533     1.0  0.62838  0.03364  0.04053  1.0000
  H   H1534     1.0  0.57039  0.09518  0.50595  1.0000
  H   H1535     1.0  0.61179  0.08014  0.50444  1.0000
  C   C870      1.0  0.32093  0.25157  0.48565  1.0000
  C   C871      1.0  0.47136  0.01314  0.17377  1.0000
  H   H1536     1.0  0.45765  0.01425  0.23084  1.0000
  C   C872      1.0  0.53161  0.00769  0.23178  1.0000
  H   H1537     1.0  0.60445  0.00730  0.05780  1.0000
  N   N48       1.0  0.35047  0.18215  0.50329  1.0000
  H   H1538     1.0  0.51042  0.00715  0.16666  1.0000
  Fe  Fe82      1.0  0.31347  0.19855  0.35539  1.0000
  C   C873      1.0  0.34016  0.25253  0.47692  1.0000
  C   C874      1.0  0.50431  0.00390  0.48951  1.0000
  H   H1539     1.0  0.60276  0.05546  0.01582  1.0000
  H   H1540     1.0  0.31126  0.23510  0.17447  1.0000
  C   C875      1.0  0.33227  0.25320  0.23812  1.0000
  H   H1541     1.0  0.49201  0.00463  0.50942  1.0000
  C   C876      1.0  0.52253  0.05400  0.01492  1.0000
  H   H1542     1.0  0.34716  0.15135  0.51061  1.0000
  C   C877      1.0  0.60859  0.02907  0.51439  1.0000
  H   H1543     1.0  0.43251  0.15906  0.88718  1.0000
  Fe  Fe83      1.0  0.34945  0.14734  0.82783  1.0000
  S   S177      1.0  0.37600  0.12833  0.82228  1.0000
  H   H1544     1.0  0.35723  0.22539  0.67340  1.0000
  S   S178      1.0  0.35365  0.17884  0.84193  1.0000
  H   H1545     1.0  0.60876  0.02294  0.95429  1.0000
  H   H1546     1.0  0.58369  0.02813  0.84833  1.0000
  S   S179      1.0  0.48450  0.08763  0.56140  1.0000
  Fe  Fe84      1.0  0.43631  0.05231  0.93690  1.0000
  S   S180      1.0  0.44526  0.02525  0.90462  1.0000
  S   S181      1.0  0.40561  0.06241  0.93872  1.0000
  C   C878      1.0  0.32218  0.18069  0.65859  1.0000
  H   H1547     1.0  0.58667  0.03285  0.93494  1.0000
  Fe  Fe85      1.0  0.47085  0.04183  0.88805  1.0000
  S   S182      1.0  0.48095  0.03799  0.82602  1.0000
  Fe  Fe86      1.0  0.47583  0.05831  0.96977  1.0000
  S   S183      1.0  0.46056  0.06966  0.91578  1.0000
  Fe  Fe87      1.0  0.58019  0.05365  0.64556  1.0000
  S   S184      1.0  0.58608  0.08022  0.68141  1.0000
  S   S185      1.0  0.56750  0.05260  0.58493  1.0000
  Fe  Fe88      1.0  0.59790  0.02570  0.70515  1.0000
  S   S186      1.0  0.60558  0.04995  0.74606  1.0000
  H   H1548     1.0  0.62273  0.23353  0.53143  1.0000
  Fe  Fe89      1.0  0.57645  0.06219  0.73211  1.0000
  S   S187      1.0  0.55918  0.07465  0.78210  1.0000
  Fe  Fe90      1.0  0.61460  0.06582  0.69200  1.0000
  N   N49       1.0  0.64174  0.15793  0.68016  1.0000
  S   S188      1.0  0.56809  0.03684  0.69496  1.0000
  S   S189      1.0  0.60940  0.04049  0.65225  1.0000
  H   H1549     1.0  0.37612  0.13992  0.60212  1.0000
  Fe  Fe91      1.0  0.33597  0.18449  0.78759  1.0000
  H   H1550     1.0  0.60939  0.01404  0.78611  1.0000
  C   C879      1.0  0.50269  0.04816  0.81414  1.0000
  C   C880      1.0  0.51096  0.04365  0.77790  1.0000
  C   C881      1.0  0.52835  0.05158  0.76777  1.0000
  C   C882      1.0  0.53739  0.06429  0.79364  1.0000
  C   C883      1.0  0.52908  0.06873  0.82990  1.0000
  C   C884      1.0  0.51184  0.06057  0.84029  1.0000
  H   H1551     1.0  0.50389  0.03404  0.75763  1.0000
  H   H1552     1.0  0.53457  0.04819  0.73971  1.0000
  H   H1553     1.0  0.53604  0.07849  0.85006  1.0000
  H   H1554     1.0  0.50555  0.06410  0.86831  1.0000
  C   C885      1.0  0.50763  0.07806  0.56851  1.0000
  C   C886      1.0  0.51526  0.06470  0.54174  1.0000
  C   C887      1.0  0.53343  0.05664  0.54799  1.0000
  C   C888      1.0  0.54439  0.06228  0.58025  1.0000
  C   C889      1.0  0.53692  0.07567  0.60725  1.0000
  C   C890      1.0  0.51852  0.08359  0.60131  1.0000
  H   H1555     1.0  0.56171  0.03955  0.83332  1.0000
  H   H1556     1.0  0.39463  0.04615  0.74498  1.0000
  H   H1557     1.0  0.54534  0.08006  0.63239  1.0000
  H   H1558     1.0  0.51271  0.09396  0.62211  1.0000
  H   H1559     1.0  0.34739  0.15498  0.98148  1.0000
  H   H1560     1.0  0.38024  0.05240  0.84998  1.0000
  H   H1561     1.0  0.44508  0.03745  0.56397  1.0000
  C   C891      1.0  0.38400  0.11056  0.85603  1.0000
  C   C892      1.0  0.40257  0.10302  0.85274  1.0000
  C   C893      1.0  0.40947  0.08852  0.87845  1.0000
  C   C894      1.0  0.39774  0.08133  0.90741  1.0000
  C   C895      1.0  0.37923  0.08904  0.91105  1.0000
  C   C896      1.0  0.37238  0.10372  0.88554  1.0000
  H   H1562     1.0  0.41161  0.10838  0.83005  1.0000
  H   H1563     1.0  0.42372  0.08267  0.87540  1.0000
  H   H1564     1.0  0.37010  0.08348  0.93339  1.0000
  H   H1565     1.0  0.35803  0.10941  0.88812  1.0000
  C   C897      1.0  0.34729  0.23370  0.69103  1.0000
  C   C898      1.0  0.34968  0.20564  0.94871  1.0000
  S   S190      1.0  0.33286  0.15310  0.77211  1.0000
  H   H1566     1.0  0.35549  0.19729  0.92460  1.0000
  H   H1567     1.0  0.62847  0.24469  0.57800  1.0000
  H   H1568     1.0  0.60740  0.14825  0.56090  1.0000
  H   H1569     1.0  0.52154  0.00816  0.90213  1.0000
  H   H1570     1.0  0.43226  0.20495  0.97807  1.0000
  H   H1571     1.0  0.32595  0.21098  0.54336  1.0000
  H   H1572     1.0  0.53171  0.01578  0.67567  1.0000
  C   C899      1.0  0.41216  0.19199  0.93692  1.0000
  H   H1573     1.0  0.59441  0.00870  0.92114  1.0000
  H   H1574     1.0  0.33523  0.22660  0.60559  1.0000
  H   H1575     1.0  0.37554  0.22067  0.96055  1.0000
  C   C900      1.0  0.61967  0.14274  0.57876  1.0000
  H   H1576     1.0  0.63265  0.14359  0.56082  1.0000
  H   H1577     1.0  0.47726  0.05711  0.62977  1.0000
  H   H1578     1.0  0.32727  0.17430  0.68686  1.0000
  S   S191      1.0  0.49122  0.07870  0.01001  1.0000
  C   C901      1.0  0.60408  0.01309  0.54340  1.0000
  C   C902      1.0  0.38733  0.15605  0.92204  1.0000
  H   H1579     1.0  0.43070  0.09901  0.95752  1.0000
  H   H1580     1.0  0.54010  0.00837  0.53177  1.0000
  C   C903      1.0  0.63424  0.24011  0.54913  1.0000
  H   H1581     1.0  0.40579  0.12384  0.93150  1.0000
  N   N50       1.0  0.40867  0.15498  0.92542  1.0000
  C   C904      1.0  0.59893  0.08611  0.51910  1.0000
  C   C905      1.0  0.41396  0.04567  0.67407  1.0000
  C   C906      1.0  0.36101  0.21883  0.96907  1.0000
  H   H1582     1.0  0.39880  0.04601  0.68196  1.0000
  H   H1583     1.0  0.55887  0.01479  0.56485  1.0000
  H   H1584     1.0  0.64269  0.12349  0.94814  1.0000
  H   H1585     1.0  0.62815  0.08404  0.61236  1.0000
  C   C907      1.0  0.56975  0.02555  0.83405  1.0000
  C   C908      1.0  0.36330  0.14305  0.58366  1.0000
  H   H1586     1.0  0.38169  0.07197  0.81543  1.0000
  H   H1587     1.0  0.58320  0.02246  0.00404  1.0000
  H   H1588     1.0  0.45244  0.02593  0.63155  1.0000
  H   H1589     1.0  0.41855  0.03030  0.66976  1.0000
  H   H1590     1.0  0.59483  0.07608  0.54276  1.0000
  C   C909      1.0  0.37635  0.15632  0.96122  1.0000
  H   H1591     1.0  0.31145  0.20772  0.68158  1.0000
  H   H1592     1.0  0.45199  0.01885  0.78469  1.0000
  C   C910      1.0  0.42810  0.02602  0.74549  1.0000
  C   C911      1.0  0.62500  0.15383  0.70565  1.0000
  C   C912      1.0  0.44180  0.02280  0.57231  1.0000
  S   S192      1.0  0.32325  0.14547  0.86407  1.0000
  S   S193      1.0  0.34734  0.20177  0.73747  1.0000
  H   H1593     1.0  0.36006  0.12981  0.56639  1.0000
  H   H1594     1.0  0.47055  0.08124  0.78956  1.0000
  H   H1595     1.0  0.45480  0.08069  0.83089  1.0000
  C   C913      1.0  0.48485  0.05531  0.65843  1.0000
  H   H1596     1.0  0.60995  0.11464  0.97224  1.0000
  H   H1597     1.0  0.50734  0.06080  0.51578  1.0000
  H   H1598     1.0  0.42118  0.15355  0.80361  1.0000
  C   C914      1.0  0.32699  0.23615  0.74763  1.0000
  H   H1599     1.0  0.62332  0.03395  0.51894  1.0000
  H   H1600     1.0  0.60519  0.01907  0.57360  1.0000
  H   H1601     1.0  0.56870  0.00889  0.97024  1.0000
  C   C915      1.0  0.41732  0.15517  0.88496  1.0000
  H   H1602     1.0  0.56354  0.07003  0.92298  1.0000
  H   H1603     1.0  0.51657  0.04624  0.99039  1.0000
  H   H1604     1.0  0.40138  0.03192  0.80898  1.0000
  H   H1605     1.0  0.44488  0.14073  0.95288  1.0000
  C   C916      1.0  0.40753  0.16818  0.85297  1.0000
  C   C917      1.0  0.41921  0.16848  0.81555  1.0000
  H   H1606     1.0  0.55646  0.01723  0.88688  1.0000
  S   S194      1.0  0.31571  0.18876  0.93179  1.0000
  H   H1607     1.0  0.59880  0.04163  0.51941  1.0000
  H   H1608     1.0  0.33417  0.18831  0.64539  1.0000
  H   H1609     1.0  0.41714  0.14033  0.87187  1.0000
  H   H1610     1.0  0.43821  0.02200  0.72172  1.0000
  H   H1611     1.0  0.41460  0.01894  0.73727  1.0000
  H   H1612     1.0  0.64096  0.10037  0.55367  1.0000
  C   C918      1.0  0.40185  0.04788  0.80590  1.0000
  C   C919      1.0  0.43535  0.12925  0.94244  1.0000
  H   H1613     1.0  0.63511  0.19060  0.73348  1.0000
  C   C920      1.0  0.41618  0.17098  0.95112  1.0000
  H   H1614     1.0  0.58663  0.09391  0.94181  1.0000
  H   H1615     1.0  0.39358  0.16236  0.84474  1.0000
  H   H1616     1.0  0.40502  0.18330  0.86259  1.0000
  H   H1617     1.0  0.43327  0.17481  0.82147  1.0000
  H   H1618     1.0  0.41163  0.17744  0.79293  1.0000
  C   C921      1.0  0.62155  0.15484  0.61623  1.0000
  C   C922      1.0  0.32564  0.25013  0.89059  1.0000
  H   H1619     1.0  0.51167  0.00688  0.69961  1.0000
  H   H1620     1.0  0.53910  0.04607  0.52765  1.0000
  C   C923      1.0  0.52287  0.01104  0.60288  1.0000
  C   C924      1.0  0.64136  0.09159  0.61455  1.0000
  H   H1621     1.0  0.61219  0.16228  0.69561  1.0000
  C   C925      1.0  0.35534  0.15272  0.95390  1.0000
  C   C926      1.0  0.60315  0.12968  0.73670  1.0000
  H   H1622     1.0  0.31258  0.13473  0.94625  1.0000
  C   C927      1.0  0.41718  0.20678  0.96871  1.0000
  H   H1623     1.0  0.53076  0.01927  0.83817  1.0000
  H   H1624     1.0  0.61723  0.12736  0.58622  1.0000
  H   H1625     1.0  0.63175  0.12320  0.72020  1.0000
  H   H1626     1.0  0.63726  0.21910  0.68827  1.0000
  H   H1627     1.0  0.59030  0.13771  0.72572  1.0000
  H   H1628     1.0  0.39706  0.19454  0.92870  1.0000
  H   H1629     1.0  0.36848  0.19976  0.54025  1.0000
  H   H1630     1.0  0.47490  0.05018  0.68085  1.0000
  H   H1631     1.0  0.35946  0.21841  0.59967  1.0000
  H   H1632     1.0  0.43922  0.12539  0.91182  1.0000
  H   H1633     1.0  0.57214  0.02046  0.80348  1.0000
  H   H1634     1.0  0.40932  0.07086  0.63609  1.0000
  H   H1635     1.0  0.49006  0.06969  0.66772  1.0000
  H   H1636     1.0  0.60248  0.10019  0.53293  1.0000
  H   H1637     1.0  0.36488  0.25056  0.87728  1.0000
  H   H1638     1.0  0.43017  0.02081  0.81026  1.0000
  S   S195      1.0  0.48818  0.03186  0.94009  1.0000
  C   C928      1.0  0.32338  0.21440  0.99050  1.0000
  C   C929      1.0  0.64300  0.17957  0.67504  1.0000
  H   H1639     1.0  0.37099  0.04952  0.80068  1.0000
  C   C930      1.0  0.33463  0.22780  0.01047  1.0000
  H   H1640     1.0  0.64011  0.13263  0.64256  1.0000
  Fe  Fe92      1.0  0.46177  0.01750  0.95946  1.0000
  C   C931      1.0  0.53989  0.00585  0.83698  1.0000
  C   C932      1.0  0.59403  0.01940  0.94562  1.0000
  C   C933      1.0  0.41550  0.05590  0.63447  1.0000
  C   C934      1.0  0.56389  0.07499  0.95409  1.0000
  H   H1641     1.0  0.62772  0.15894  0.73621  1.0000
  H   H1642     1.0  0.40797  0.20525  0.99458  1.0000
  H   H1643     1.0  0.38157  0.14506  0.98205  1.0000
  C   C935      1.0  0.61965  0.13218  0.70877  1.0000
  H   H1644     1.0  0.61861  0.09036  0.96973  1.0000
  C   C936      1.0  0.52124  0.00398  0.67432  1.0000
  H   H1645     1.0  0.48742  0.02356  0.61186  1.0000
  H   H1646     1.0  0.31776  0.16861  0.63914  1.0000
  C   C937      1.0  0.49493  0.02085  0.64033  1.0000
  H   H1647     1.0  0.41075  0.16966  0.98151  1.0000
  C   C938      1.0  0.50161  0.04100  0.65454  1.0000
  H   H1648     1.0  0.45613  0.10234  0.80175  1.0000
  C   C939      1.0  0.58383  0.09223  0.00588  1.0000
  C   C940      1.0  0.41413  0.13580  0.94467  1.0000
  H   H1649     1.0  0.61523  0.12625  0.67980  1.0000
  C   C941      1.0  0.63959  0.14868  0.64016  1.0000
  H   H1650     1.0  0.62943  0.18571  0.66284  1.0000
  H   H1651     1.0  0.35830  0.22558  0.88336  1.0000
  H   H1652     1.0  0.62595  0.06403  0.00324  1.0000
  C   C942      1.0  0.43668  0.01584  0.78258  1.0000
  C   C943      1.0  0.63647  0.10903  0.00324  1.0000
  C   C944      1.0  0.38250  0.05596  0.81860  1.0000
  C   C945      1.0  0.33940  0.20599  0.55787  1.0000
  H   H1653     1.0  0.53048  0.02447  0.61067  1.0000
  H   H1654     1.0  0.40766  0.04774  0.61151  1.0000
  C   C946      1.0  0.33988  0.22544  0.72490  1.0000
  C   C947      1.0  0.35336  0.23029  0.99928  1.0000
  H   H1655     1.0  0.38233  0.14371  0.90382  1.0000
  C   C948      1.0  0.33074  0.20373  0.95889  1.0000
  H   H1656     1.0  0.31450  0.16529  0.00929  1.0000
  C   C949      1.0  0.43942  0.11128  0.96769  1.0000
  H   H1657     1.0  0.38281  0.01783  0.90185  1.0000
  H   H1658     1.0  0.48397  0.01606  0.66126  1.0000
  H   H1659     1.0  0.51427  0.01492  0.57621  1.0000
  H   H1660     1.0  0.37957  0.15586  0.53876  1.0000
  C   C950      1.0  0.34949  0.16446  0.52925  1.0000
  H   H1661     1.0  0.60849  0.15297  0.63329  1.0000
  H   H1662     1.0  0.59983  0.11405  0.73865  1.0000
  H   H1663     1.0  0.33668  0.19366  0.57744  1.0000
  C   C951      1.0  0.34618  0.22267  0.58367  1.0000
  Fe  Fe93      1.0  0.32590  0.17749  0.87325  1.0000
  H   H1664     1.0  0.55261  0.08636  0.95798  1.0000
  C   C952      1.0  0.58339  0.08284  0.96425  1.0000
  H   H1665     1.0  0.38229  0.16920  0.90604  1.0000
  H   H1666     1.0  0.50885  0.04015  0.68363  1.0000
  H   H1667     1.0  0.45461  0.10683  0.96552  1.0000
  H   H1668     1.0  0.51147  0.04716  0.63328  1.0000
  H   H1669     1.0  0.43182  0.16952  0.95439  1.0000
  N   N51       1.0  0.42518  0.04782  0.74730  1.0000
  C   C953      1.0  0.44087  0.05674  0.77133  1.0000
  H   H1670     1.0  0.43053  0.05664  0.62552  1.0000
  C   C954      1.0  0.42636  0.05566  0.70595  1.0000
  C   C955      1.0  0.40581  0.05326  0.76274  1.0000
  H   H1671     1.0  0.35333  0.13761  0.94356  1.0000
  C   C956      1.0  0.44060  0.07920  0.77368  1.0000
  H   H1672     1.0  0.42121  0.19503  0.91140  1.0000
  S   S196      1.0  0.45074  0.04312  0.99345  1.0000
  H   H1673     1.0  0.62228  0.17025  0.60724  1.0000
  H   H1674     1.0  0.59385  0.07070  0.96143  1.0000
  C   C957      1.0  0.45651  0.08625  0.80063  1.0000
  H   H1675     1.0  0.56095  0.06243  0.97306  1.0000
  H   H1676     1.0  0.45489  0.05200  0.75936  1.0000
  H   H1677     1.0  0.44103  0.05146  0.80207  1.0000
  H   H1678     1.0  0.33030  0.23081  0.84017  1.0000
  H   H1679     1.0  0.41492  0.22170  0.95700  1.0000
  H   H1680     1.0  0.44128  0.05462  0.69566  1.0000
  H   H1681     1.0  0.42223  0.07135  0.70522  1.0000
  H   H1682     1.0  0.40281  0.06909  0.75913  1.0000
  H   H1683     1.0  0.60688  0.13488  0.76666  1.0000
  H   H1684     1.0  0.41263  0.05371  0.82642  1.0000
  H   H1685     1.0  0.37436  0.01271  0.85280  1.0000
  H   H1686     1.0  0.44278  0.08566  0.74435  1.0000
  H   H1687     1.0  0.42700  0.08485  0.78555  1.0000
  C   C958      1.0  0.35755  0.23818  0.86339  1.0000
  S   S197      1.0  0.64202  0.08214  0.69364  1.0000
  H   H1688     1.0  0.63695  0.01906  0.59002  1.0000
  C   C959      1.0  0.55899  0.01069  0.85749  1.0000
  H   H1689     1.0  0.34874  0.23568  0.56559  1.0000
  H   H1690     1.0  0.32083  0.22963  0.77308  1.0000
  H   H1691     1.0  0.41063  0.13607  0.97640  1.0000
  H   H1692     1.0  0.33716  0.16538  0.54893  1.0000
  C   C960      1.0  0.37786  0.00616  0.88187  1.0000
  C   C961      1.0  0.43296  0.01058  0.54522  1.0000
  H   H1693     1.0  0.36505  0.23408  0.83598  1.0000
  C   C962      1.0  0.44597  0.01626  0.61059  1.0000
  C   C963      1.0  0.61640  0.10266  0.99033  1.0000
  C   C964      1.0  0.58346  0.01127  0.98053  1.0000
  H   H1694     1.0  0.37761  0.17073  0.97559  1.0000
  H   H1695     1.0  0.37036  0.17269  0.57500  1.0000
  C   C965      1.0  0.33696  0.24372  0.85351  1.0000
  C   C966      1.0  0.36697  0.16003  0.55626  1.0000
  H   H1696     1.0  0.35131  0.14661  0.60344  1.0000
  C   C967      1.0  0.35411  0.20042  0.52638  1.0000
  H   H1697     1.0  0.34938  0.16282  0.93137  1.0000
  H   H1698     1.0  0.57429  0.10534  0.00332  1.0000
  H   H1699     1.0  0.58914  0.00913  0.53807  1.0000
  N   N52       1.0  0.51019  0.00520  0.63592  1.0000
  H   H1700     1.0  0.32266  0.23631  0.90596  1.0000
  H   H1701     1.0  0.43639  0.11435  0.99906  1.0000
  C   C968      1.0  0.64359  0.00523  0.60058  1.0000
  H   H1702     1.0  0.31539  0.25311  0.96412  1.0000
  C   C969      1.0  0.34229  0.25279  0.68039  1.0000
  H   H1703     1.0  0.31219  0.18330  0.52805  1.0000
  Fe  Fe94      1.0  0.35668  0.31624  0.06646  1.0000
  S   S198      1.0  0.37859  0.33916  0.05610  1.0000
  H   H1704     1.0  0.36589  0.27594  0.33160  1.0000
  H   H1705     1.0  0.35683  0.35634  0.11951  1.0000
  S   S199      1.0  0.36655  0.28939  0.09872  1.0000
  Fe  Fe95      1.0  0.46397  0.42188  0.16023  1.0000
  S   S200      1.0  0.45792  0.39287  0.18655  1.0000
  S   S201      1.0  0.47557  0.43055  0.10204  1.0000
  Fe  Fe96      1.0  0.44865  0.44475  0.22920  1.0000
  S   S202      1.0  0.44075  0.41807  0.26219  1.0000
  S   S203      1.0  0.44740  0.47649  0.24479  1.0000
  Fe  Fe97      1.0  0.46893  0.40594  0.24302  1.0000
  S   S204      1.0  0.48684  0.38820  0.28598  1.0000
  Fe  Fe98      1.0  0.43018  0.40695  0.20369  1.0000
  S   S205      1.0  0.40183  0.39241  0.20006  1.0000
  S   S206      1.0  0.47771  0.43345  0.21466  1.0000
  S   S207      1.0  0.43535  0.43492  0.17279  1.0000
  H   H1706     1.0  0.36625  0.37741  0.17537  1.0000
  N   N53       1.0  0.40018  0.32212  0.21422  1.0000
  C   C970      1.0  0.52656  0.46892  0.25095  1.0000
  Fe  Fe99      1.0  0.56191  0.41601  0.44197  1.0000
  S   S208      1.0  0.55865  0.38540  0.46234  1.0000
  S   S209      1.0  0.54749  0.43162  0.39089  1.0000
  C   C971      1.0  0.57881  0.37559  0.31799  1.0000
  H   H1707     1.0  0.50019  0.34105  0.25045  1.0000
  Fe  Fe100     1.0  0.59050  0.38443  0.46714  1.0000
  S   S210      1.0  0.60394  0.35652  0.44379  1.0000
  C   C972      1.0  0.33575  0.27119  0.33947  1.0000
  S   S211      1.0  0.59367  0.41434  0.44266  1.0000
  H   H1708     1.0  0.59546  0.43298  0.36423  1.0000
  C   C973      1.0  0.59405  0.46725  0.07307  1.0000
  H   H1709     1.0  0.58814  0.44672  0.18919  1.0000
  C   C974      1.0  0.55147  0.48320  0.35344  1.0000
  H   H1710     1.0  0.39457  0.40679  0.06200  1.0000
  H   H1711     1.0  0.53117  0.48029  0.07534  1.0000
  H   H1712     1.0  0.59776  0.45326  0.06074  1.0000
  Fe  Fe101     1.0  0.33799  0.29064  0.12640  1.0000
  C   C975      1.0  0.50340  0.40046  0.31558  1.0000
  C   C976      1.0  0.50729  0.41992  0.30899  1.0000
  C   C977      1.0  0.52112  0.42910  0.33189  1.0000
  C   C978      1.0  0.53099  0.41907  0.36180  1.0000
  C   C979      1.0  0.52720  0.39957  0.36832  1.0000
  C   C980      1.0  0.51343  0.39030  0.34526  1.0000
  H   H1713     1.0  0.49971  0.42790  0.28623  1.0000
  H   H1714     1.0  0.52411  0.44410  0.32670  1.0000
  H   H1715     1.0  0.53484  0.39161  0.39108  1.0000
  H   H1716     1.0  0.51058  0.37519  0.35042  1.0000
  C   C981      1.0  0.49703  0.41926  0.08880  1.0000
  C   C982      1.0  0.51019  0.42993  0.06831  1.0000
  H   H1717     1.0  0.49647  0.47121  0.23930  1.0000
  C   C983      1.0  0.53007  0.40106  0.06014  1.0000
  C   C984      1.0  0.51724  0.39050  0.08206  1.0000
  C   C985      1.0  0.50082  0.39968  0.09689  1.0000
  H   H1718     1.0  0.50751  0.44519  0.06313  1.0000
  H   H1719     1.0  0.55255  0.47396  0.10242  1.0000
  H   H1720     1.0  0.51978  0.37514  0.08670  1.0000
  H   H1721     1.0  0.49083  0.39149  0.11343  1.0000
  H   H1722     1.0  0.57721  0.38154  0.34821  1.0000
  C   C986      1.0  0.43458  0.46839  0.31851  1.0000
  H   H1723     1.0  0.62661  0.48388  0.25789  1.0000
  C   C987      1.0  0.61043  0.48215  0.31271  1.0000
  H   H1724     1.0  0.43010  0.45469  0.30657  1.0000
  C   C988      1.0  0.60137  0.42902  0.33515  1.0000
  C   C989      1.0  0.49566  0.43435  0.43129  1.0000
  C   C990      1.0  0.38468  0.35495  0.09478  1.0000
  C   C991      1.0  0.40332  0.36146  0.09818  1.0000
  C   C992      1.0  0.40868  0.37346  0.12975  1.0000
  C   C993      1.0  0.39537  0.37904  0.15795  1.0000
  C   C994      1.0  0.37664  0.37298  0.15383  1.0000
  C   C995      1.0  0.37130  0.36100  0.12235  1.0000
  H   H1725     1.0  0.41371  0.35683  0.07685  1.0000
  H   H1726     1.0  0.42315  0.37802  0.13280  1.0000
  C   C996      1.0  0.51003  0.49562  0.21142  1.0000
  H   H1727     1.0  0.44195  0.45533  0.08281  1.0000
  H   H1728     1.0  0.62204  0.45072  0.33961  1.0000
  H   H1729     1.0  0.56348  0.48554  0.29616  1.0000
  C   C997      1.0  0.32149  0.34588  0.42252  1.0000
  H   H1730     1.0  0.48271  0.41567  0.47584  1.0000
  H   H1731     1.0  0.48471  0.48759  0.33211  1.0000
  H   H1732     1.0  0.40866  0.26357  0.24364  1.0000
  C   C998      1.0  0.42029  0.30866  0.15616  1.0000
  S   S212      1.0  0.32903  0.31895  0.09850  1.0000
  H   H1733     1.0  0.39722  0.27261  0.28766  1.0000
  C   C999      1.0  0.53685  0.47429  0.10352  1.0000
  H   H1734     1.0  0.42523  0.39596  0.06112  1.0000
  H   H1735     1.0  0.50916  0.34747  0.29866  1.0000
  H   H1736     1.0  0.60470  0.45985  0.13091  1.0000
  H   H1737     1.0  0.37835  0.33114  0.25507  1.0000
  C   C1000     1.0  0.38878  0.28790  0.23381  1.0000
  C   C1001     1.0  0.52687  0.42095  0.05468  1.0000
  H   H1738     1.0  0.55862  0.39643  0.29493  1.0000
  H   H1739     1.0  0.54008  0.47051  0.23532  1.0000
  H   H1740     1.0  0.63620  0.38207  0.44943  1.0000
  H   H1741     1.0  0.32276  0.34179  0.45401  1.0000
  C   C1002     1.0  0.39064  0.40104  0.03267  1.0000
  H   H1742     1.0  0.36237  0.31000  0.19919  1.0000
  H   H1743     1.0  0.36474  0.33034  0.16833  1.0000
  C   C1003     1.0  0.57503  0.44893  0.20649  1.0000
  H   H1744     1.0  0.44592  0.35050  0.26910  1.0000
  C   C1004     1.0  0.50836  0.48870  0.13936  1.0000
  H   H1745     1.0  0.54256  0.47089  0.34469  1.0000
  H   H1746     1.0  0.45821  0.43293  0.45704  1.0000
  H   H1747     1.0  0.42486  0.46244  0.37683  1.0000
  C   C1005     1.0  0.41902  0.30363  0.11243  1.0000
  C   C1006     1.0  0.34555  0.33495  0.21576  1.0000
  C   C1007     1.0  0.59365  0.48925  0.12911  1.0000
  H   H1748     1.0  0.59128  0.48883  0.42276  1.0000
  H   H1749     1.0  0.57442  0.46753  0.49261  1.0000
  H   H1750     1.0  0.40244  0.35508  0.26820  1.0000
  H   H1751     1.0  0.38423  0.25836  0.25249  1.0000
  H   H1752     1.0  0.43161  0.36617  0.29983  1.0000
  C   C1008     1.0  0.49821  0.47113  0.37964  1.0000
  H   H1753     1.0  0.58662  0.46575  0.36362  1.0000
  H   H1754     1.0  0.57614  0.49749  0.33542  1.0000
  H   H1755     1.0  0.41888  0.46021  0.10255  1.0000
  N   N54       1.0  0.59883  0.46430  0.30607  1.0000
  C   C1009     1.0  0.58181  0.46589  0.33238  1.0000
  H   H1756     1.0  0.42411  0.42534  0.08487  1.0000
  S   S213      1.0  0.43626  0.49431  0.42482  1.0000
  H   H1757     1.0  0.50386  0.49517  0.11064  1.0000
  S   S214      1.0  0.54932  0.38897  0.03789  1.0000
  H   H1758     1.0  0.33809  0.28223  0.39914  1.0000
  H   H1759     1.0  0.42367  0.46710  0.05273  1.0000
  S   S215      1.0  0.33223  0.28468  0.19001  1.0000
  C   C1010     1.0  0.49632  0.42258  0.46978  1.0000
  H   H1760     1.0  0.58632  0.43311  0.25564  1.0000
  C   C1011     1.0  0.36938  0.40467  0.02652  1.0000
  H   H1761     1.0  0.63862  0.47002  0.29596  1.0000
  H   H1762     1.0  0.57272  0.45308  0.32906  1.0000
  H   H1763     1.0  0.50018  0.43222  0.49457  1.0000
  H   H1764     1.0  0.46096  0.48687  0.01884  1.0000
  C   C1012     1.0  0.45755  0.37601  0.06567  1.0000
  C   C1013     1.0  0.46047  0.43968  0.42806  1.0000
  C   C1014     1.0  0.56868  0.48414  0.32696  1.0000
  C   C1015     1.0  0.64031  0.50093  0.30175  1.0000
  H   H1765     1.0  0.62760  0.41677  0.36083  1.0000
  H   H1766     1.0  0.60234  0.49539  0.30358  1.0000
  C   C1016     1.0  0.39520  0.26954  0.25584  1.0000
  H   H1767     1.0  0.51381  0.32352  0.27912  1.0000
  C   C1017     1.0  0.44858  0.49970  0.30978  1.0000
  H   H1768     1.0  0.50948  0.44163  0.43016  1.0000
  H   H1769     1.0  0.53702  0.42935  0.03919  1.0000
  Fe  Fe102     1.0  0.31745  0.30024  0.04993  1.0000
  C   C1018     1.0  0.41591  0.33596  0.22365  1.0000
  C   C1019     1.0  0.44676  0.49490  0.14509  1.0000
  H   H1770     1.0  0.52894  0.43402  0.20214  1.0000
  C   C1020     1.0  0.48121  0.45779  0.38607  1.0000
  H   H1771     1.0  0.45581  0.43043  0.36654  1.0000
  N   N55       1.0  0.47956  0.44898  0.42639  1.0000
  C   C1021     1.0  0.53032  0.48665  0.13837  1.0000
  H   H1772     1.0  0.58108  0.35963  0.32026  1.0000
  H   H1773     1.0  0.43225  0.37049  0.24782  1.0000
  C   C1022     1.0  0.45644  0.42399  0.39641  1.0000
  H   H1774     1.0  0.34101  0.32393  0.40236  1.0000
  H   H1775     1.0  0.41600  0.33499  0.28869  1.0000
  H   H1776     1.0  0.32474  0.33323  0.36515  1.0000
  H   H1777     1.0  0.34617  0.35103  0.21545  1.0000
  H   H1778     1.0  0.43465  0.40388  0.37965  1.0000
  H   H1779     1.0  0.42432  0.29518  0.17220  1.0000
  H   H1780     1.0  0.61366  0.48396  0.34469  1.0000
  C   C1023     1.0  0.38147  0.33230  0.22319  1.0000
  C   C1024     1.0  0.43732  0.41477  0.40307  1.0000
  H   H1781     1.0  0.42999  0.32840  0.22173  1.0000
  C   C1025     1.0  0.42659  0.45589  0.07555  1.0000
  H   H1782     1.0  0.49769  0.48390  0.39954  1.0000
  H   H1783     1.0  0.39818  0.33081  0.15364  1.0000
  H   H1784     1.0  0.42572  0.42598  0.40186  1.0000
  H   H1785     1.0  0.52539  0.41261  0.46039  1.0000
  S   S216      1.0  0.32449  0.27213  0.08050  1.0000
  H   H1786     1.0  0.43178  0.31922  0.15965  1.0000
  C   C1026     1.0  0.36377  0.32584  0.19942  1.0000
  H   H1787     1.0  0.44906  0.45112  0.42526  1.0000
  H   H1788     1.0  0.43723  0.40737  0.43200  1.0000
  H   H1789     1.0  0.59144  0.38197  0.30459  1.0000
  C   C1027     1.0  0.41543  0.34585  0.26477  1.0000
  H   H1790     1.0  0.37492  0.29252  0.24623  1.0000
  H   H1791     1.0  0.44455  0.43139  0.02449  1.0000
  C   C1028     1.0  0.43236  0.35900  0.27061  1.0000
  Fe  Fe103     1.0  0.35224  0.27316  0.04994  1.0000
  H   H1792     1.0  0.51191  0.46324  0.38443  1.0000
  H   H1793     1.0  0.47907  0.48148  0.05549  1.0000
  H   H1794     1.0  0.32136  0.26103  0.25396  1.0000
  C   C1029     1.0  0.63349  0.33724  0.40816  1.0000
  H   H1795     1.0  0.43309  0.29838  0.10202  1.0000
  H   H1796     1.0  0.63736  0.48213  0.01661  1.0000
  H   H1797     1.0  0.62109  0.40662  0.31351  1.0000
  H   H1798     1.0  0.51296  0.42875  0.16215  1.0000
  H   H1799     1.0  0.34327  0.32987  0.24621  1.0000
  C   C1030     1.0  0.43759  0.49044  0.37402  1.0000
  H   H1800     1.0  0.46745  0.41222  0.39707  1.0000
  H   H1801     1.0  0.57827  0.37127  0.10244  1.0000
  H   H1802     1.0  0.53217  0.45917  0.10692  1.0000
  H   H1803     1.0  0.50772  0.39556  0.44508  1.0000
  H   H1804     1.0  0.61946  0.44153  0.29122  1.0000
  H   H1805     1.0  0.45407  0.38177  0.09528  1.0000
  C   C1031     1.0  0.59311  0.46372  0.26323  1.0000
  C   C1032     1.0  0.57956  0.44756  0.25052  1.0000
  C   C1033     1.0  0.58581  0.48172  0.04922  1.0000
  C   C1034     1.0  0.47952  0.49623  0.17671  1.0000
  C   C1035     1.0  0.59804  0.47103  0.11285  1.0000
  H   H1806     1.0  0.33331  0.33056  0.19721  1.0000
  H   H1807     1.0  0.58659  0.47790  0.25403  1.0000
  C   C1036     1.0  0.42891  0.43033  0.02173  1.0000
  H   H1808     1.0  0.56598  0.44868  0.26641  1.0000
  H   H1809     1.0  0.52562  0.45371  0.26089  1.0000
  H   H1810     1.0  0.39312  0.38508  0.03314  1.0000
  C   C1037     1.0  0.40121  0.31740  0.17093  1.0000
  H   H1811     1.0  0.41457  0.31658  0.09491  1.0000
  H   H1812     1.0  0.59182  0.46306  0.43285  1.0000
  H   H1813     1.0  0.45968  0.40463  0.04195  1.0000
  H   H1814     1.0  0.48423  0.37782  0.49559  1.0000
  H   H1815     1.0  0.60582  0.46179  0.24454  1.0000
  C   C1038     1.0  0.62757  0.35431  0.42760  1.0000
  H   H1816     1.0  0.38679  0.28381  0.20255  1.0000
  C   C1039     1.0  0.43155  0.47282  0.35820  1.0000
  H   H1817     1.0  0.52664  0.47868  0.27686  1.0000
  H   H1818     1.0  0.39007  0.30728  0.16176  1.0000
  C   C1040     1.0  0.61119  0.44674  0.31703  1.0000
  C   C1041     1.0  0.51154  0.40646  0.46773  1.0000
  H   H1819     1.0  0.51048  0.46399  0.19826  1.0000
  H   H1820     1.0  0.41592  0.34785  0.20146  1.0000
  H   H1821     1.0  0.58961  0.42380  0.31644  1.0000
  H   H1822     1.0  0.60494  0.47910  0.46403  1.0000
  H   H1823     1.0  0.62348  0.32588  0.40291  1.0000
  C   C1042     1.0  0.57436  0.48012  0.47247  1.0000
  H   H1824     1.0  0.40262  0.30821  0.27099  1.0000
  C   C1043     1.0  0.50983  0.47400  0.22363  1.0000
  H   H1825     1.0  0.33160  0.35757  0.41686  1.0000
  C   C1044     1.0  0.40320  0.30427  0.23936  1.0000
  H   H1826     1.0  0.40873  0.29198  0.10723  1.0000
  H   H1827     1.0  0.31684  0.30541  0.43397  1.0000
  Fe  Fe104     1.0  0.59118  0.42460  0.50519  1.0000
  H   H1828     1.0  0.51016  0.48796  0.33302  1.0000
  C   C1045     1.0  0.32604  0.32842  0.39616  1.0000
  H   H1829     1.0  0.49594  0.46819  0.46339  1.0000
  C   C1046     1.0  0.44316  0.48181  0.29432  1.0000
  C   C1047     1.0  0.31277  0.31138  0.40451  1.0000
  H   H1830     1.0  0.50251  0.47386  0.13857  1.0000
  C   C1048     1.0  0.62934  0.48294  0.29005  1.0000
  C   C1049     1.0  0.48083  0.46509  0.45663  1.0000
  C   C1050     1.0  0.49779  0.47874  0.33760  1.0000
  H   H1831     1.0  0.46823  0.46654  0.37883  1.0000
  H   H1832     1.0  0.56497  0.43761  0.19780  1.0000
  H   H1833     1.0  0.31658  0.30967  0.31852  1.0000
  C   C1051     1.0  0.57499  0.49913  0.49680  1.0000
  H   H1834     1.0  0.56146  0.47955  0.45365  1.0000
  H   H1835     1.0  0.53807  0.42552  0.15548  1.0000
  C   C1052     1.0  0.33256  0.28753  0.37007  1.0000
  H   H1836     1.0  0.46525  0.46215  0.03579  1.0000
  H   H1837     1.0  0.38229  0.34813  0.21717  1.0000
  C   C1053     1.0  0.42009  0.43599  0.06168  1.0000
  H   H1838     1.0  0.54285  0.49685  0.35079  1.0000
  H   H1839     1.0  0.63131  0.27310  0.06767  1.0000
  H   H1840     1.0  0.47451  0.47885  0.44452  1.0000
  H   H1841     1.0  0.49594  0.42401  0.40613  1.0000
  S   S217      1.0  0.55964  0.42869  0.50269  1.0000
  C   C1054     1.0  0.59168  0.47774  0.44636  1.0000
  H   H1842     1.0  0.41771  0.29798  0.23534  1.0000
  N   N56       1.0  0.54604  0.37620  0.22386  1.0000
  C   C1055     1.0  0.56322  0.37339  0.25042  1.0000
  C   C1056     1.0  0.54995  0.36611  0.18523  1.0000
  C   C1057     1.0  0.54235  0.39765  0.21827  1.0000
  C   C1058     1.0  0.52875  0.36763  0.24156  1.0000
  C   C1059     1.0  0.53061  0.34595  0.25319  1.0000
  C   C1060     1.0  0.56100  0.38047  0.29360  1.0000
  C   C1061     1.0  0.52531  0.40325  0.19092  1.0000
  C   C1062     1.0  0.56396  0.37621  0.15772  1.0000
  C   C1063     1.0  0.56882  0.36340  0.12236  1.0000
  C   C1064     1.0  0.51230  0.33912  0.27143  1.0000
  S   S218      1.0  0.35560  0.26559  0.50719  1.0000
  C   C1065     1.0  0.52646  0.42419  0.17692  1.0000
  H   H1843     1.0  0.57546  0.38113  0.23838  1.0000
  H   H1844     1.0  0.56793  0.35786  0.25116  1.0000
  H   H1845     1.0  0.55573  0.35115  0.19056  1.0000
  H   H1846     1.0  0.53660  0.36395  0.16811  1.0000
  H   H1847     1.0  0.55531  0.40467  0.20764  1.0000
  H   H1848     1.0  0.53922  0.40483  0.24685  1.0000
  H   H1849     1.0  0.52435  0.37606  0.26781  1.0000
  H   H1850     1.0  0.51643  0.36898  0.22082  1.0000
  H   H1851     1.0  0.54217  0.34342  0.27513  1.0000
  H   H1852     1.0  0.53350  0.33677  0.22702  1.0000
  H   H1853     1.0  0.48225  0.44629  0.36311  1.0000
  H   H1854     1.0  0.54906  0.37348  0.30825  1.0000
  H   H1855     1.0  0.51187  0.40183  0.20717  1.0000
  H   H1856     1.0  0.52455  0.39389  0.16459  1.0000
  H   H1857     1.0  0.55761  0.38999  0.14610  1.0000
  H   H1858     1.0  0.57738  0.37951  0.17333  1.0000
  H   H1859     1.0  0.57624  0.34978  0.13194  1.0000
  H   H1860     1.0  0.55577  0.35981  0.10552  1.0000
  H   H1861     1.0  0.56860  0.46334  0.19892  1.0000
  H   H1862     1.0  0.55592  0.48139  0.38460  1.0000
  H   H1863     1.0  0.31538  0.25882  0.51122  1.0000
  H   H1864     1.0  0.36585  0.42046  0.02739  1.0000
  H   H1865     1.0  0.34208  0.29920  0.36097  1.0000
  H   H1866     1.0  0.53619  0.47949  0.16512  1.0000
  H   H1867     1.0  0.53464  0.49551  0.47648  1.0000
  S   S219      1.0  0.59872  0.49363  0.17908  1.0000
  H   H1868     1.0  0.47776  0.48037  0.18102  1.0000
  H   H1869     1.0  0.53677  0.50104  0.13607  1.0000
  H   H1870     1.0  0.36159  0.39748  0.05033  1.0000
  C   C1066     1.0  0.61556  0.41217  0.34192  1.0000
  H   H1871     1.0  0.45481  0.46339  0.49092  1.0000
  H   H1872     1.0  0.63966  0.29819  0.51162  1.0000
  H   H1873     1.0  0.60856  0.40016  0.35720  1.0000
  H   H1874     1.0  0.44984  0.36240  0.06036  1.0000
  H   H1875     1.0  0.47298  0.37253  0.06487  1.0000
  C   C1067     1.0  0.58150  0.50001  0.06543  1.0000
  H   H1876     1.0  0.33265  0.27692  0.30965  1.0000
  H   H1877     1.0  0.40444  0.43708  0.05882  1.0000
  H   H1878     1.0  0.49817  0.46664  0.31607  1.0000
  C   C1068     1.0  0.47040  0.46232  0.49606  1.0000
  C   C1069     1.0  0.43060  0.39436  0.03081  1.0000
  H   H1879     1.0  0.32685  0.25853  0.34518  1.0000
  H   H1880     1.0  0.36071  0.25827  0.36885  1.0000
  H   H1881     1.0  0.47251  0.49669  0.11338  1.0000
  H   H1882     1.0  0.51307  0.39901  0.49648  1.0000
  C   C1070     1.0  0.47196  0.47602  0.02859  1.0000
  H   H1883     1.0  0.44713  0.47881  0.14672  1.0000
  C   C1071     1.0  0.64059  0.36891  0.43434  1.0000
  H   H1884     1.0  0.61807  0.49964  0.01844  1.0000
  N   N57       1.0  0.50021  0.50052  0.17299  1.0000
  H   H1885     1.0  0.35991  0.25735  0.15781  1.0000
  H   H1886     1.0  0.52483  0.50081  0.21148  1.0000
  C   C1072     1.0  0.34009  0.26147  0.20482  1.0000
  H   H1887     1.0  0.45638  0.35999  0.51192  1.0000
  H   H1888     1.0  0.42489  0.38046  0.01950  1.0000
  H   H1889     1.0  0.47372  0.44807  0.50964  1.0000
  C   C1073     1.0  0.35643  0.26401  0.33954  1.0000
  S   S220      1.0  0.34427  0.29981  0.01510  1.0000
  H   H1890     1.0  0.62631  0.34805  0.04128  1.0000
  H   H1891     1.0  0.44004  0.50085  0.17200  1.0000
  C   C1074     1.0  0.45240  0.39110  0.03423  1.0000
  N   N58       1.0  0.31248  0.29533  0.37412  1.0000
  H   H1892     1.0  0.39888  0.49611  0.10624  1.0000
  H   H1893     1.0  0.50322  0.50351  0.23620  1.0000
  C   C1075     1.0  0.46678  0.50244  0.14122  1.0000
  H   H1894     1.0  0.43806  0.49933  0.11903  1.0000
  H   H1895     1.0  0.39967  0.33156  0.51030  1.0000
  H   H1896     1.0  0.64406  0.50063  0.33357  1.0000
  H   H1897     1.0  0.38407  0.50322  0.06492  1.0000
  H   H1898     1.0  0.47355  0.50314  0.20362  1.0000
  H   H1899     1.0  0.47127  0.49266  0.51420  1.0000
  Fe  Fe105     1.0  0.33730  0.32815  0.57384  1.0000
  S   S221      1.0  0.34940  0.35800  0.56848  1.0000
  H   H1900     1.0  0.41217  0.48091  0.61794  1.0000
  H   H1901     1.0  0.36170  0.33798  0.63896  1.0000
  S   S222      1.0  0.35398  0.30236  0.59707  1.0000
  Fe  Fe106     1.0  0.45249  0.42788  0.67836  1.0000
  S   S223      1.0  0.45053  0.39910  0.70826  1.0000
  S   S224      1.0  0.46721  0.43462  0.62180  1.0000
  Fe  Fe107     1.0  0.42918  0.44923  0.73980  1.0000
  S   S225      1.0  0.42481  0.42223  0.77458  1.0000
  S   S226      1.0  0.41994  0.47986  0.75608  1.0000
  Fe  Fe108     1.0  0.45553  0.41566  0.76407  1.0000
  S   S227      1.0  0.47153  0.40225  0.81529  1.0000
  Fe  Fe109     1.0  0.41989  0.40758  0.71645  1.0000
  S   S228      1.0  0.39896  0.38331  0.71548  1.0000
  S   S229      1.0  0.46044  0.44378  0.73346  1.0000
  S   S230      1.0  0.42135  0.43529  0.68211  1.0000
  H   H1902     1.0  0.38177  0.34798  0.69499  1.0000
  H   H1903     1.0  0.33210  0.31622  0.88904  1.0000
  C   C1076     1.0  0.45948  0.37278  0.53060  1.0000
  Fe  Fe110     1.0  0.56738  0.42236  0.91083  1.0000
  S   S231      1.0  0.57629  0.39383  0.93794  1.0000
  S   S232      1.0  0.55493  0.42834  0.85057  1.0000
  S   S233      1.0  0.60840  0.44921  0.52883  1.0000
  S   S234      1.0  0.54122  0.38712  0.57307  1.0000
  Fe  Fe111     1.0  0.60312  0.40886  0.95441  1.0000
  S   S235      1.0  0.63284  0.39607  0.94871  1.0000
  S   S236      1.0  0.55358  0.43392  0.96510  1.0000
  S   S237      1.0  0.59500  0.43655  0.92339  1.0000
  H   H1904     1.0  0.53743  0.48285  0.84499  1.0000
  H   H1905     1.0  0.33985  0.28362  0.86011  1.0000
  C   C1077     1.0  0.59922  0.45977  0.57189  1.0000
  C   C1078     1.0  0.58518  0.45056  0.59287  1.0000
  C   C1079     1.0  0.57816  0.45900  0.62746  1.0000
  Fe  Fe112     1.0  0.32754  0.29622  0.63015  1.0000
  H   H1906     1.0  0.51374  0.44489  0.96589  1.0000
  H   H1907     1.0  0.57994  0.43679  0.58279  1.0000
  C   C1080     1.0  0.49479  0.40941  0.82435  1.0000
  C   C1081     1.0  0.50274  0.42413  0.80245  1.0000
  C   C1082     1.0  0.52110  0.43014  0.81145  1.0000
  C   C1083     1.0  0.53169  0.42118  0.84172  1.0000
  C   C1084     1.0  0.52378  0.40645  0.86365  1.0000
  C   C1085     1.0  0.50530  0.40060  0.85495  1.0000
  H   H1908     1.0  0.49479  0.43084  0.77857  1.0000
  H   H1909     1.0  0.52707  0.44186  0.79520  1.0000
  H   H1910     1.0  0.53196  0.39944  0.88697  1.0000
  H   H1911     1.0  0.49919  0.38909  0.87171  1.0000
  C   C1086     1.0  0.48794  0.42139  0.60974  1.0000
  C   C1087     1.0  0.49982  0.42884  0.58122  1.0000
  C   C1088     1.0  0.51637  0.41861  0.57028  1.0000
  C   C1089     1.0  0.52087  0.40059  0.58708  1.0000
  C   C1090     1.0  0.50892  0.39307  0.61556  1.0000
  C   C1091     1.0  0.49255  0.40353  0.62717  1.0000
  H   H1912     1.0  0.49622  0.44264  0.56778  1.0000
  H   H1913     1.0  0.33723  0.25507  0.83067  1.0000
  H   H1914     1.0  0.51232  0.37909  0.62858  1.0000
  H   H1915     1.0  0.48344  0.39767  0.64918  1.0000
  C   C1092     1.0  0.41646  0.47316  0.87438  1.0000
  C   C1093     1.0  0.41591  0.46943  0.83375  1.0000
  C   C1094     1.0  0.41834  0.48449  0.80699  1.0000
  H   H1916     1.0  0.47415  0.47911  0.62816  1.0000
  H   H1917     1.0  0.41380  0.45487  0.82319  1.0000
  C   C1095     1.0  0.47541  0.47809  0.52582  1.0000
  H   H1918     1.0  0.47947  0.47860  0.86179  1.0000
  C   C1096     1.0  0.36290  0.36542  0.60943  1.0000
  C   C1097     1.0  0.37004  0.38422  0.61112  1.0000
  C   C1098     1.0  0.38120  0.39006  0.64349  1.0000
  C   C1099     1.0  0.38518  0.37705  0.67415  1.0000
  C   C1100     1.0  0.37818  0.35827  0.67207  1.0000
  C   C1101     1.0  0.36699  0.35251  0.64006  1.0000
  H   H1919     1.0  0.36691  0.39427  0.58742  1.0000
  H   H1920     1.0  0.38658  0.40458  0.64490  1.0000
  C   C1102     1.0  0.63937  0.30256  0.57484  1.0000
  Fe  Fe113     1.0  0.58188  0.44605  0.98008  1.0000
  H   H1921     1.0  0.42554  0.40292  0.88389  1.0000
  H   H1922     1.0  0.32577  0.39488  0.67229  1.0000
  H   H1923     1.0  0.47884  0.46895  0.67599  1.0000
  S   S238      1.0  0.59091  0.39451  0.53006  1.0000
  H   H1924     1.0  0.45815  0.38546  0.00609  1.0000
  C   C1103     1.0  0.51799  0.46849  0.88308  1.0000
  C   C1104     1.0  0.50480  0.47305  0.91818  1.0000
  H   H1925     1.0  0.31684  0.28780  0.91303  1.0000
  C   C1105     1.0  0.48019  0.45058  0.89320  1.0000
  H   H1926     1.0  0.63331  0.28513  0.86503  1.0000
  S   S239      1.0  0.57626  0.48616  0.68569  1.0000
  H   H1927     1.0  0.41484  0.46144  0.89490  1.0000
  C   C1106     1.0  0.32572  0.37838  0.77946  1.0000
  H   H1928     1.0  0.47849  0.42058  0.94763  1.0000
  N   N59       1.0  0.49134  0.45729  0.92858  1.0000
  C   C1107     1.0  0.55104  0.48846  0.54200  1.0000
  H   H1929     1.0  0.64420  0.37587  0.78176  1.0000
  C   C1108     1.0  0.51273  0.49437  0.75835  1.0000
  Fe  Fe114     1.0  0.55925  0.39789  0.52346  1.0000
  H   H1930     1.0  0.36934  0.31578  0.79003  1.0000
  H   H1931     1.0  0.46900  0.44053  0.90194  1.0000
  H   H1932     1.0  0.41661  0.42321  0.54028  1.0000
  H   H1933     1.0  0.48937  0.44179  0.87333  1.0000
  H   H1934     1.0  0.61828  0.30618  0.87532  1.0000
  H   H1935     1.0  0.61231  0.34869  0.85008  1.0000
  H   H1936     1.0  0.45156  0.38553  0.51843  1.0000
  S   S240      1.0  0.31174  0.32322  0.61056  1.0000
  H   H1937     1.0  0.56740  0.45181  0.64365  1.0000
  C   C1109     1.0  0.43272  0.40846  0.96539  1.0000
  H   H1938     1.0  0.60925  0.28220  0.88065  1.0000
  H   H1939     1.0  0.50518  0.48264  0.74291  1.0000
  H   H1940     1.0  0.44517  0.40728  0.57122  1.0000
  H   H1941     1.0  0.42619  0.35368  0.52650  1.0000
  H   H1942     1.0  0.52186  0.49943  0.55343  1.0000
  H   H1943     1.0  0.48936  0.36470  0.54031  1.0000
  H   H1944     1.0  0.60125  0.47765  0.90317  1.0000
  C   C1110     1.0  0.50278  0.44017  0.94441  1.0000
  H   H1945     1.0  0.43027  0.39354  0.95390  1.0000
  H   H1946     1.0  0.31504  0.32033  0.84959  1.0000
  C   C1111     1.0  0.62584  0.32812  0.99129  1.0000
  H   H1947     1.0  0.53828  0.49108  0.89509  1.0000
  S   S241      1.0  0.31521  0.27763  0.58297  1.0000
  C   C1112     1.0  0.50314  0.40546  0.96978  1.0000
  H   H1948     1.0  0.47593  0.49253  0.73304  1.0000
  H   H1949     1.0  0.51499  0.47759  0.60719  1.0000
  H   H1950     1.0  0.40695  0.31522  0.54972  1.0000
  C   C1113     1.0  0.35619  0.34219  0.76559  1.0000
  H   H1951     1.0  0.56771  0.46731  0.87181  1.0000
  C   C1114     1.0  0.53411  0.49271  0.56951  1.0000
  C   C1115     1.0  0.52871  0.48637  0.87100  1.0000
  H   H1952     1.0  0.46761  0.47581  0.55347  1.0000
  H   H1953     1.0  0.33784  0.36732  0.71053  1.0000
  C   C1116     1.0  0.48673  0.47276  0.99690  1.0000
  C   C1117     1.0  0.62418  0.35437  0.86649  1.0000
  H   H1954     1.0  0.32415  0.37725  0.63296  1.0000
  H   H1955     1.0  0.52307  0.46360  0.56558  1.0000
  H   H1956     1.0  0.39608  0.42472  0.99244  1.0000
  C   C1118     1.0  0.64244  0.34652  0.86072  1.0000
  H   H1957     1.0  0.42912  0.42770  0.87030  1.0000
  H   H1958     1.0  0.36064  0.35402  0.74624  1.0000
  H   H1959     1.0  0.35377  0.34815  0.79550  1.0000
  H   H1960     1.0  0.37568  0.32072  0.73980  1.0000
  C   C1119     1.0  0.48057  0.37667  0.52708  1.0000
  H   H1961     1.0  0.51433  0.47625  0.94364  1.0000
  H   H1962     1.0  0.42488  0.43595  0.58328  1.0000
  H   H1963     1.0  0.51761  0.40845  0.98082  1.0000
  C   C1120     1.0  0.42641  0.42328  0.93312  1.0000
  C   C1121     1.0  0.53386  0.48893  0.75793  1.0000
  H   H1964     1.0  0.48691  0.42929  0.99433  1.0000
  N   N60       1.0  0.55734  0.40854  0.71024  1.0000
  C   C1122     1.0  0.54376  0.39198  0.71007  1.0000
  C   C1123     1.0  0.56931  0.40683  0.67397  1.0000
  C   C1124     1.0  0.56933  0.40730  0.74727  1.0000
  C   C1125     1.0  0.54698  0.42793  0.70952  1.0000
  C   C1126     1.0  0.53217  0.43090  0.67584  1.0000
  C   C1127     1.0  0.52783  0.39313  0.74101  1.0000
  C   C1128     1.0  0.58469  0.42288  0.75186  1.0000
  C   C1129     1.0  0.58409  0.38977  0.67373  1.0000
  H   H1965     1.0  0.44832  0.40982  0.96806  1.0000
  C   C1130     1.0  0.52117  0.45010  0.68071  1.0000
  C   C1131     1.0  0.51465  0.37601  0.73703  1.0000
  C   C1132     1.0  0.59849  0.41789  0.78562  1.0000
  H   H1966     1.0  0.55155  0.37798  0.71528  1.0000
  H   H1967     1.0  0.53697  0.39032  0.68055  1.0000
  H   H1968     1.0  0.56010  0.40521  0.64733  1.0000
  H   H1969     1.0  0.57706  0.42039  0.66880  1.0000
  H   H1970     1.0  0.57616  0.39263  0.75028  1.0000
  H   H1971     1.0  0.56031  0.40890  0.77363  1.0000
  H   H1972     1.0  0.53991  0.43067  0.73795  1.0000
  H   H1973     1.0  0.55717  0.43989  0.70691  1.0000
  H   H1974     1.0  0.52165  0.41932  0.67540  1.0000
  H   H1975     1.0  0.53918  0.43099  0.64686  1.0000
  H   H1976     1.0  0.53384  0.39291  0.77129  1.0000
  H   H1977     1.0  0.51891  0.40645  0.73731  1.0000
  H   H1978     1.0  0.57790  0.43721  0.75856  1.0000
  H   H1979     1.0  0.59314  0.42437  0.72492  1.0000
  H   H1980     1.0  0.59553  0.39225  0.69574  1.0000
  H   H1981     1.0  0.57747  0.37580  0.68043  1.0000
  H   H1982     1.0  0.63004  0.26832  0.52403  1.0000
  H   H1983     1.0  0.51358  0.45040  0.70908  1.0000
  H   H1984     1.0  0.53090  0.46246  0.67955  1.0000
  H   H1985     1.0  0.51047  0.45170  0.65663  1.0000
  H   H1986     1.0  0.50346  0.37725  0.75963  1.0000
  H   H1987     1.0  0.50764  0.37600  0.70758  1.0000
  H   H1988     1.0  0.52264  0.36209  0.74153  1.0000
  H   H1989     1.0  0.60876  0.42968  0.78941  1.0000
  H   H1990     1.0  0.59079  0.41631  0.81361  1.0000
  H   H1991     1.0  0.60648  0.40416  0.77936  1.0000
  H   H1992     1.0  0.52851  0.45690  0.89128  1.0000
  H   H1993     1.0  0.61486  0.31802  0.54899  1.0000
  H   H1994     1.0  0.48402  0.39051  0.54199  1.0000
  H   H1995     1.0  0.64072  0.48829  0.94512  1.0000
  H   H1996     1.0  0.39871  0.40104  0.97262  1.0000
  C   C1133     1.0  0.32154  0.38776  0.81926  1.0000
  C   C1134     1.0  0.62202  0.29109  0.88443  1.0000
  C   C1135     1.0  0.31630  0.38453  0.65718  1.0000
  H   H1997     1.0  0.56321  0.48347  0.56097  1.0000
  H   H1998     1.0  0.43296  0.43750  0.93894  1.0000
  H   H1999     1.0  0.49625  0.39579  0.99098  1.0000
  H   H2000     1.0  0.33130  0.34763  0.68090  1.0000
  H   H2001     1.0  0.34127  0.37721  0.77654  1.0000
  H   H2002     1.0  0.49768  0.46256  0.00873  1.0000
  H   H2003     1.0  0.47868  0.49719  0.79928  1.0000
  C   C1136     1.0  0.42559  0.35063  0.55853  1.0000
  H   H2004     1.0  0.56903  0.47047  0.81922  1.0000
  H   H2005     1.0  0.31293  0.26411  0.75545  1.0000
  H   H2006     1.0  0.32124  0.28741  0.82342  1.0000
  C   C1137     1.0  0.45424  0.36873  0.57387  1.0000
  C   C1138     1.0  0.59329  0.38769  0.63360  1.0000
  H   H2007     1.0  0.39510  0.35817  0.55934  1.0000
  H   H2008     1.0  0.61942  0.32840  0.96131  1.0000
  H   H2009     1.0  0.45766  0.47285  0.88520  1.0000
  H   H2010     1.0  0.53884  0.46747  0.60697  1.0000
  H   H2011     1.0  0.46697  0.45411  0.96574  1.0000
  C   C1139     1.0  0.32574  0.29051  0.85410  1.0000
  H   H2012     1.0  0.53914  0.48850  0.72737  1.0000
  H   H2013     1.0  0.61706  0.29732  0.94513  1.0000
  Fe  Fe115     1.0  0.56509  0.40680  0.99412  1.0000
  H   H2014     1.0  0.43641  0.47580  0.60480  1.0000
  H   H2015     1.0  0.41083  0.42563  0.93166  1.0000
  S   S242      1.0  0.32543  0.28838  0.69401  1.0000
  C   C1140     1.0  0.59571  0.49218  0.89433  1.0000
  H   H2016     1.0  0.42108  0.38655  0.53707  1.0000
  C   C1141     1.0  0.43279  0.41641  0.89252  1.0000
  C   C1142     1.0  0.46270  0.45877  0.82986  1.0000
  H   H2017     1.0  0.61921  0.31675  0.00895  1.0000
  C   C1143     1.0  0.58493  0.47674  0.64113  1.0000
  H   H2018     1.0  0.33526  0.25804  0.91097  1.0000
  C   C1144     1.0  0.41971  0.49191  0.88843  1.0000
  C   C1145     1.0  0.49135  0.42422  0.96474  1.0000
  S   S243      1.0  0.32557  0.31251  0.52105  1.0000
  C   C1146     1.0  0.62531  0.31980  0.57339  1.0000
  Fe  Fe116     1.0  0.34004  0.28624  0.54743  1.0000
  H   H2019     1.0  0.51103  0.43315  0.92038  1.0000
  H   H2020     1.0  0.58437  0.49552  0.91604  1.0000
  C   C1147     1.0  0.37266  0.32740  0.76888  1.0000
  C   C1148     1.0  0.47758  0.46514  0.95847  1.0000
  H   H2021     1.0  0.60707  0.37569  0.89700  1.0000
  H   H2022     1.0  0.60446  0.37605  0.63460  1.0000
  H   H2023     1.0  0.58248  0.38363  0.61123  1.0000
  C   C1149     1.0  0.64185  0.25754  0.52729  1.0000
  H   H2024     1.0  0.61751  0.32081  0.60146  1.0000
  C   C1150     1.0  0.32244  0.25549  0.73760  1.0000
  H   H2025     1.0  0.45286  0.44674  0.83451  1.0000
  N   N61       1.0  0.42352  0.41090  0.00500  1.0000
  H   H2026     1.0  0.45521  0.47045  0.81308  1.0000
  C   C1151     1.0  0.46993  0.46672  0.86890  1.0000
  H   H2027     1.0  0.61680  0.48478  0.56915  1.0000
  H   H2028     1.0  0.47479  0.45348  0.81210  1.0000
  C   C1152     1.0  0.32829  0.31235  0.85824  1.0000
  H   H2029     1.0  0.53632  0.47436  0.77109  1.0000
  H   H2030     1.0  0.49692  0.48701  0.91264  1.0000
  H   H2031     1.0  0.61809  0.47846  0.95750  1.0000
  C   C1153     1.0  0.59865  0.48622  0.61969  1.0000
  C   C1154     1.0  0.62857  0.29073  0.92741  1.0000
  H   H2032     1.0  0.34179  0.32373  0.72353  1.0000
  H   H2033     1.0  0.45676  0.48200  0.66626  1.0000
  H   H2034     1.0  0.58647  0.49700  0.51938  1.0000
  H   H2035     1.0  0.38559  0.33477  0.77941  1.0000
  H   H2036     1.0  0.59982  0.40147  0.62481  1.0000
  H   H2037     1.0  0.49699  0.49782  0.66981  1.0000
  H   H2038     1.0  0.54944  0.49851  0.96104  1.0000
  C   C1155     1.0  0.60590  0.47764  0.58527  1.0000
  C   C1156     1.0  0.62117  0.36965  0.89316  1.0000
  N   N62       1.0  0.43336  0.36738  0.58176  1.0000
  C   C1157     1.0  0.32595  0.35749  0.70456  1.0000
  C   C1158     1.0  0.43084  0.36456  0.62529  1.0000
  H   H2039     1.0  0.46181  0.35492  0.58181  1.0000
  C   C1159     1.0  0.42266  0.38570  0.56961  1.0000
  C   C1160     1.0  0.43111  0.40501  0.58427  1.0000
  H   H2040     1.0  0.33994  0.31698  0.83926  1.0000
  C   C1161     1.0  0.40471  0.34571  0.56683  1.0000
  C   C1162     1.0  0.43881  0.34519  0.64274  1.0000
  C   C1163     1.0  0.43406  0.34358  0.68628  1.0000
  C   C1164     1.0  0.41835  0.42237  0.57272  1.0000
  C   C1165     1.0  0.33026  0.26385  0.70429  1.0000
  C   C1166     1.0  0.57727  0.47067  0.84726  1.0000
  H   H2041     1.0  0.51004  0.46372  0.85669  1.0000
  H   H2042     1.0  0.43775  0.37630  0.64207  1.0000
  H   H2043     1.0  0.41566  0.36598  0.63296  1.0000
  H   H2044     1.0  0.49353  0.48680  0.99135  1.0000
  H   H2045     1.0  0.44835  0.41358  0.89212  1.0000
  H   H2046     1.0  0.42001  0.48539  0.56831  1.0000
  H   H2047     1.0  0.40790  0.38551  0.58051  1.0000
  H   H2048     1.0  0.46075  0.37990  0.59318  1.0000
  H   H2049     1.0  0.43275  0.40516  0.61669  1.0000
  H   H2050     1.0  0.36462  0.39854  0.99792  1.0000
  S   S244      1.0  0.58157  0.47755  0.99880  1.0000
  H   H2051     1.0  0.57408  0.50159  0.85123  1.0000
  H   H2052     1.0  0.40270  0.34191  0.59810  1.0000
  H   H2053     1.0  0.43274  0.33247  0.62767  1.0000
  H   H2054     1.0  0.45446  0.34427  0.64043  1.0000
  H   H2055     1.0  0.44025  0.32985  0.69840  1.0000
  H   H2056     1.0  0.43994  0.35587  0.70324  1.0000
  H   H2057     1.0  0.41848  0.34353  0.69021  1.0000
  H   H2058     1.0  0.32034  0.38853  0.75643  1.0000
  H   H2059     1.0  0.43460  0.33730  0.56289  1.0000
  C   C1167     1.0  0.62779  0.50210  0.87147  1.0000
  H   H2060     1.0  0.50441  0.39775  0.94128  1.0000
  C   C1168     1.0  0.52738  0.47416  0.58845  1.0000
  H   H2061     1.0  0.63285  0.33356  0.56914  1.0000
  H   H2062     1.0  0.52554  0.42458  0.54860  1.0000
  C   C1169     1.0  0.33804  0.33256  0.74995  1.0000
  H   H2063     1.0  0.63119  0.28939  0.58065  1.0000
  C   C1170     1.0  0.63636  0.37705  0.91464  1.0000
  H   H2064     1.0  0.33457  0.32197  0.77284  1.0000
  C   C1171     1.0  0.47216  0.48146  0.66016  1.0000
  H   H2065     1.0  0.40422  0.42130  0.58635  1.0000
  H   H2066     1.0  0.46905  0.47755  0.94612  1.0000
  H   H2067     1.0  0.34837  0.25919  0.65463  1.0000
  H   H2068     1.0  0.63247  0.28787  0.00172  1.0000
  H   H2069     1.0  0.58861  0.45924  0.84566  1.0000
  H   H2070     1.0  0.49082  0.47762  0.53276  1.0000
  C   C1172     1.0  0.48151  0.50019  0.67285  1.0000
  H   H2071     1.0  0.62721  0.35967  0.99378  1.0000
  H   H2072     1.0  0.62180  0.47371  0.84481  1.0000
  C   C1173     1.0  0.42409  0.48591  0.59994  1.0000
  C   C1174     1.0  0.39838  0.32845  0.54214  1.0000
  H   H2073     1.0  0.42441  0.44215  0.00118  1.0000
  H   H2074     1.0  0.59561  0.49311  0.82899  1.0000
  H   H2075     1.0  0.63040  0.27528  0.93621  1.0000
  C   C1175     1.0  0.58578  0.49053  0.85343  1.0000
  H   H2076     1.0  0.31876  0.35026  0.80325  1.0000
  C   C1176     1.0  0.62692  0.49148  0.95921  1.0000
  H   H2077     1.0  0.60402  0.49987  0.63017  1.0000
  H   H2078     1.0  0.60533  0.35008  0.01054  1.0000
  H   H2079     1.0  0.53847  0.50260  0.59357  1.0000
  H   H2080     1.0  0.54212  0.49955  0.77527  1.0000
  C   C1177     1.0  0.62095  0.34767  0.01045  1.0000
  H   H2081     1.0  0.38327  0.32563  0.54811  1.0000
  C   C1178     1.0  0.40222  0.41000  0.99897  1.0000
  C   C1179     1.0  0.63120  0.49544  0.00265  1.0000
  H   H2082     1.0  0.63292  0.47172  0.89204  1.0000
  H   H2083     1.0  0.54727  0.47570  0.52366  1.0000
  H   H2084     1.0  0.50858  0.49492  0.78956  1.0000
  C   C1180     1.0  0.42053  0.50341  0.82115  1.0000
  H   H2085     1.0  0.32745  0.37859  0.84352  1.0000
  C   C1181     1.0  0.63256  0.48021  0.86452  1.0000
  N   N63       1.0  0.32129  0.34592  0.74057  1.0000
  H   H2086     1.0  0.32818  0.40216  0.82099  1.0000
  S   S245      1.0  0.42278  0.49589  0.93921  1.0000
  H   H2087     1.0  0.51864  0.49838  0.86290  1.0000
  C   C1182     1.0  0.31603  0.35847  0.77552  1.0000
  S   S246      1.0  0.59260  0.41968  0.01285  1.0000
  C   C1183     1.0  0.31119  0.28333  0.88386  1.0000
  Fe  Fe117     1.0  0.44486  0.52384  0.44562  1.0000
  S   S247      1.0  0.43706  0.55298  0.42007  1.0000
  H   H2088     1.0  0.44248  0.53971  0.26507  1.0000
  H   H2089     1.0  0.52051  0.57900  0.47804  1.0000
  H   H2090     1.0  0.37096  0.74571  0.13021  1.0000
  H   H2091     1.0  0.31606  0.72830  0.28116  1.0000
  Fe  Fe118     1.0  0.42871  0.56133  0.48153  1.0000
  S   S248      1.0  0.63316  0.65683  0.31067  1.0000
  Fe  Fe119     1.0  0.46626  0.56120  0.44001  1.0000
  S   S249      1.0  0.48595  0.57897  0.40440  1.0000
  C   C1184     1.0  0.62813  0.63203  0.30660  1.0000
  S   S250      1.0  0.47489  0.53119  0.46004  1.0000
  Fe  Fe120     1.0  0.33310  0.65270  0.04499  1.0000
  H   H2092     1.0  0.63179  0.51435  0.29513  1.0000
  S   S251      1.0  0.34240  0.68305  0.05812  1.0000
  Fe  Fe121     1.0  0.59164  0.55752  0.25271  1.0000
  S   S252      1.0  0.58408  0.52682  0.26553  1.0000
  S   S253      1.0  0.61245  0.56817  0.29856  1.0000
  Fe  Fe122     1.0  0.56505  0.55934  0.18196  1.0000
  S   S254      1.0  0.55566  0.52894  0.19029  1.0000
  S   S255      1.0  0.55066  0.57670  0.13351  1.0000
  Fe  Fe123     1.0  0.55424  0.53666  0.25375  1.0000
  S   S256      1.0  0.53047  0.52404  0.28761  1.0000
  Fe  Fe124     1.0  0.58626  0.52194  0.20088  1.0000
  C   C1185     1.0  0.35528  0.71743  0.33403  1.0000
  S   S257      1.0  0.56131  0.56779  0.24536  1.0000
  S   S258      1.0  0.59624  0.55187  0.18815  1.0000
  H   H2093     1.0  0.56607  0.54758  0.03808  1.0000
  H   H2094     1.0  0.32020  0.72577  0.35057  1.0000
  H   H2095     1.0  0.59987  0.60194  0.25314  1.0000
  S   S259      1.0  0.45737  0.57197  0.49958  1.0000
  C   C1186     1.0  0.34871  0.72016  0.21925  1.0000
  H   H2096     1.0  0.35740  0.71150  0.23929  1.0000
  H   H2097     1.0  0.54466  0.60170  0.29112  1.0000
  C   C1187     1.0  0.63215  0.59866  0.32818  1.0000
  C   C1188     1.0  0.51878  0.57003  0.08884  1.0000
  C   C1189     1.0  0.53558  0.56216  0.10527  1.0000
  C   C1190     1.0  0.54031  0.54264  0.09891  1.0000
  C   C1191     1.0  0.52800  0.53083  0.07770  1.0000
  H   H2098     1.0  0.55775  0.61226  0.44544  1.0000
  H   H2099     1.0  0.51511  0.58518  0.09361  1.0000
  H   H2100     1.0  0.55367  0.53671  0.10965  1.0000
  C   C1192     1.0  0.33162  0.72342  0.15741  1.0000
  C   C1193     1.0  0.49696  0.56457  0.36842  1.0000
  C   C1194     1.0  0.51202  0.57179  0.34707  1.0000
  C   C1195     1.0  0.52211  0.55963  0.32113  1.0000
  C   C1196     1.0  0.51695  0.54034  0.31615  1.0000
  C   C1197     1.0  0.50113  0.53359  0.33562  1.0000
  C   C1198     1.0  0.49123  0.54561  0.36189  1.0000
  H   H2101     1.0  0.51594  0.58670  0.35101  1.0000
  H   H2102     1.0  0.53399  0.56511  0.30552  1.0000
  H   H2103     1.0  0.54225  0.58484  0.50332  1.0000
  H   H2104     1.0  0.47916  0.54016  0.37710  1.0000
  Fe  Fe125     1.0  0.31216  0.69204  0.04618  1.0000
  H   H2105     1.0  0.37915  0.71404  0.10148  1.0000
  H   H2106     1.0  0.53184  0.51576  0.07283  1.0000
  H   H2107     1.0  0.38253  0.68479  0.41346  1.0000
  C   C1199     1.0  0.32155  0.70976  0.35205  1.0000
  C   C1200     1.0  0.38816  0.50704  0.09558  1.0000
  S   S260      1.0  0.34795  0.68762  0.17278  1.0000
  H   H2108     1.0  0.51826  0.52460  0.16254  1.0000
  H   H2109     1.0  0.57197  0.54221  0.49887  1.0000
  H   H2110     1.0  0.35932  0.71817  0.36564  1.0000
  H   H2111     1.0  0.60667  0.59129  0.44198  1.0000
  C   C1201     1.0  0.35520  0.74901  0.43447  1.0000
  C   C1202     1.0  0.32794  0.73017  0.45057  1.0000
  H   H2112     1.0  0.52877  0.51718  0.50172  1.0000
  H   H2113     1.0  0.49712  0.52553  0.13476  1.0000
  C   C1203     1.0  0.34245  0.71204  0.18370  1.0000
  H   H2114     1.0  0.49498  0.56106  0.15425  1.0000
  C   C1204     1.0  0.49981  0.55712  0.18436  1.0000
  S   S261      1.0  0.43432  0.53147  0.50533  1.0000
  H   H2115     1.0  0.45545  0.50999  0.29121  1.0000
  N   N64       1.0  0.41134  0.55263  0.14305  1.0000
  C   C1205     1.0  0.41438  0.55681  0.18617  1.0000
  C   C1206     1.0  0.39890  0.56859  0.12542  1.0000
  C   C1207     1.0  0.40227  0.53317  0.13886  1.0000
  C   C1208     1.0  0.42986  0.55197  0.12141  1.0000
  C   C1209     1.0  0.44332  0.56900  0.12943  1.0000
  C   C1210     1.0  0.42819  0.54259  0.20841  1.0000
  C   C1211     1.0  0.43268  0.55011  0.24971  1.0000
  C   C1212     1.0  0.37831  0.57018  0.14068  1.0000
  C   C1213     1.0  0.36705  0.58641  0.11967  1.0000
  C   C1214     1.0  0.46102  0.56699  0.10433  1.0000
  H   H2116     1.0  0.38535  0.53754  0.08427  1.0000
  H   H2117     1.0  0.63300  0.71447  0.04110  1.0000
  H   H2118     1.0  0.40076  0.55628  0.20204  1.0000
  H   H2119     1.0  0.41923  0.57192  0.19050  1.0000
  H   H2120     1.0  0.40529  0.58296  0.13062  1.0000
  H   H2121     1.0  0.39812  0.56714  0.09285  1.0000
  H   H2122     1.0  0.38969  0.53230  0.15804  1.0000
  H   H2123     1.0  0.41216  0.52150  0.14967  1.0000
  H   H2124     1.0  0.43788  0.53820  0.12740  1.0000
  H   H2125     1.0  0.42714  0.55182  0.08916  1.0000
  H   H2126     1.0  0.44811  0.56935  0.16058  1.0000
  H   H2127     1.0  0.43626  0.58313  0.12229  1.0000
  H   H2128     1.0  0.42170  0.52820  0.21157  1.0000
  H   H2129     1.0  0.44182  0.54044  0.19309  1.0000
  H   H2130     1.0  0.40863  0.52714  0.07659  1.0000
  H   H2131     1.0  0.49656  0.51904  0.33069  1.0000
  H   H2132     1.0  0.37066  0.55657  0.13553  1.0000
  H   H2133     1.0  0.37817  0.57355  0.17255  1.0000
  H   H2134     1.0  0.37360  0.60064  0.12525  1.0000
  H   H2135     1.0  0.36645  0.58368  0.08747  1.0000
  H   H2136     1.0  0.35232  0.58718  0.13070  1.0000
  H   H2137     1.0  0.46866  0.55300  0.11023  1.0000
  H   H2138     1.0  0.45717  0.56770  0.07263  1.0000
  H   H2139     1.0  0.47065  0.57906  0.11105  1.0000
  C   C1215     1.0  0.63141  0.74230  0.06916  1.0000
  H   H2140     1.0  0.55661  0.51361  0.43268  1.0000
  H   H2141     1.0  0.63873  0.75064  0.09262  1.0000
  H   H2142     1.0  0.34851  0.74568  0.25632  1.0000
  H   H2143     1.0  0.59492  0.55426  0.07595  1.0000
  H   H2144     1.0  0.41860  0.69223  0.41597  1.0000
  C   C1216     1.0  0.40533  0.68349  0.50288  1.0000
  C   C1217     1.0  0.34367  0.73942  0.22891  1.0000
  H   H2145     1.0  0.37196  0.63224  0.06612  1.0000
  H   H2146     1.0  0.33799  0.65782  0.49303  1.0000
  C   C1218     1.0  0.58884  0.61044  0.40386  1.0000
  C   C1219     1.0  0.54378  0.58476  0.43917  1.0000
  H   H2147     1.0  0.37957  0.74476  0.47265  1.0000
  H   H2148     1.0  0.51686  0.53252  0.43862  1.0000
  C   C1220     1.0  0.60226  0.60682  0.43981  1.0000
  H   H2149     1.0  0.39756  0.73093  0.09179  1.0000
  N   N65       1.0  0.39433  0.67469  0.46916  1.0000
  H   H2150     1.0  0.37805  0.65504  0.50447  1.0000
  C   C1221     1.0  0.49439  0.53643  0.19426  1.0000
  C   C1222     1.0  0.61477  0.62606  0.27841  1.0000
  C   C1223     1.0  0.55450  0.61384  0.29538  1.0000
  H   H2151     1.0  0.42130  0.66272  0.44988  1.0000
  C   C1224     1.0  0.57557  0.54207  0.36691  1.0000
  H   H2152     1.0  0.38980  0.72556  0.39845  1.0000
  C   C1225     1.0  0.58047  0.57670  0.39028  1.0000
  C   C1226     1.0  0.40686  0.70218  0.42517  1.0000
  H   H2153     1.0  0.57518  0.51129  0.04717  1.0000
  H   H2154     1.0  0.54621  0.62720  0.30307  1.0000
  H   H2155     1.0  0.34434  0.68882  0.33749  1.0000
  H   H2156     1.0  0.36870  0.67893  0.50273  1.0000
  H   H2157     1.0  0.34219  0.72043  0.01704  1.0000
  H   H2158     1.0  0.32740  0.71759  0.12929  1.0000
  H   H2159     1.0  0.58349  0.62578  0.40573  1.0000
  C   C1227     1.0  0.56183  0.59701  0.43751  1.0000
  H   H2160     1.0  0.35100  0.73222  0.32387  1.0000
  H   H2161     1.0  0.54786  0.59489  0.36074  1.0000
  C   C1228     1.0  0.59424  0.55766  0.04404  1.0000
  S   S262      1.0  0.49557  0.52280  0.03787  1.0000
  H   H2162     1.0  0.51543  0.55860  0.18647  1.0000
  H   H2163     1.0  0.57844  0.62177  0.33039  1.0000
  C   C1229     1.0  0.39632  0.52734  0.09644  1.0000
  S   S263      1.0  0.32525  0.64587  0.10737  1.0000
  C   C1230     1.0  0.38975  0.69072  0.44002  1.0000
  C   C1231     1.0  0.55959  0.60477  0.36715  1.0000
  H   H2164     1.0  0.52801  0.60370  0.47927  1.0000
  C   C1232     1.0  0.40125  0.71504  0.39020  1.0000
  H   H2165     1.0  0.56181  0.61633  0.26721  1.0000
  S   S264      1.0  0.42217  0.58448  0.03543  1.0000
  H   H2166     1.0  0.57999  0.51074  0.47733  1.0000
  C   C1233     1.0  0.62013  0.61874  0.43716  1.0000
  S   S265      1.0  0.39998  0.57585  0.49057  1.0000
  C   C1234     1.0  0.51097  0.53849  0.06221  1.0000
  C   C1235     1.0  0.33804  0.72135  0.48169  1.0000
  H   H2167     1.0  0.40561  0.63680  0.49613  1.0000
  H   H2168     1.0  0.61656  0.74025  0.07820  1.0000
  C   C1236     1.0  0.50295  0.52169  0.16434  1.0000
  C   C1237     1.0  0.37578  0.66752  0.48434  1.0000
  H   H2169     1.0  0.46576  0.51845  0.13900  1.0000
  H   H2170     1.0  0.56593  0.53262  0.34985  1.0000
  H   H2171     1.0  0.62878  0.61700  0.46450  1.0000
  C   C1238     1.0  0.36927  0.74402  0.09790  1.0000
  H   H2172     1.0  0.55256  0.61859  0.37697  1.0000
  H   H2173     1.0  0.32513  0.70651  0.38339  1.0000
  H   H2174     1.0  0.57801  0.59645  0.31783  1.0000
  H   H2175     1.0  0.57102  0.59142  0.46197  1.0000
  H   H2176     1.0  0.41955  0.55168  0.26715  1.0000
  H   H2177     1.0  0.41365  0.72335  0.38084  1.0000
  H   H2178     1.0  0.31774  0.75115  0.14699  1.0000
  H   H2179     1.0  0.49354  0.56432  0.05463  1.0000
  H   H2180     1.0  0.41879  0.62477  0.41353  1.0000
  N   N66       1.0  0.57251  0.59679  0.39930  1.0000
  H   H2181     1.0  0.56673  0.56748  0.33519  1.0000
  C   C1239     1.0  0.40437  0.63789  0.46382  1.0000
  C   C1240     1.0  0.36113  0.66164  0.45232  1.0000
  C   C1241     1.0  0.41975  0.62464  0.44614  1.0000
  C   C1242     1.0  0.34545  0.64957  0.46953  1.0000
  H   H2182     1.0  0.39045  0.63198  0.45518  1.0000
  H   H2183     1.0  0.35428  0.67488  0.43927  1.0000
  H   H2184     1.0  0.36796  0.65319  0.42836  1.0000
  H   H2185     1.0  0.43405  0.62924  0.45576  1.0000
  H   H2186     1.0  0.41796  0.60952  0.45615  1.0000
  H   H2187     1.0  0.41216  0.71194  0.44867  1.0000
  H   H2188     1.0  0.31683  0.67418  0.31807  1.0000
  C   C1243     1.0  0.54077  0.50930  0.48726  1.0000
  H   H2189     1.0  0.38083  0.72447  0.05325  1.0000
  H   H2190     1.0  0.58978  0.54134  0.35327  1.0000
  H   H2191     1.0  0.33569  0.70256  0.29599  1.0000
  H   H2192     1.0  0.60251  0.57087  0.03892  1.0000
  C   C1244     1.0  0.33641  0.74414  0.42728  1.0000
  H   H2193     1.0  0.35465  0.73938  0.09148  1.0000
  C   C1245     1.0  0.56920  0.60904  0.32755  1.0000
  H   H2194     1.0  0.56756  0.57291  0.04975  1.0000
  H   H2195     1.0  0.45078  0.51752  0.36184  1.0000
  C   C1246     1.0  0.38259  0.72742  0.08520  1.0000
  H   H2196     1.0  0.50846  0.59886  0.02782  1.0000
  H   H2197     1.0  0.39643  0.70610  0.36496  1.0000
  H   H2198     1.0  0.31361  0.67422  0.36987  1.0000
  C   C1247     1.0  0.54554  0.52114  0.45029  1.0000
  H   H2199     1.0  0.59796  0.60973  0.37738  1.0000
  H   H2200     1.0  0.59376  0.57754  0.37314  1.0000
  H   H2201     1.0  0.55301  0.56267  0.37733  1.0000
  C   C1248     1.0  0.52819  0.52405  0.42339  1.0000
  H   H2202     1.0  0.43968  0.56433  0.24832  1.0000
  C   C1249     1.0  0.35639  0.72721  0.49077  1.0000
  H   H2203     1.0  0.49315  0.56744  0.20548  1.0000
  C   C1250     1.0  0.40603  0.65903  0.44880  1.0000
  C   C1251     1.0  0.40125  0.59804  0.02387  1.0000
  H   H2204     1.0  0.58222  0.51792  0.11762  1.0000
  H   H2205     1.0  0.61646  0.63439  0.43321  1.0000
  H   H2206     1.0  0.47871  0.53586  0.19415  1.0000
  H   H2207     1.0  0.53372  0.58817  0.41478  1.0000
  H   H2208     1.0  0.53218  0.53226  0.39690  1.0000
  C   C1252     1.0  0.37730  0.62208  0.04438  1.0000
  H   H2209     1.0  0.60068  0.54521  0.02776  1.0000
  H   H2210     1.0  0.32861  0.75066  0.40304  1.0000
  C   C1253     1.0  0.50653  0.55822  0.06702  1.0000
  H   H2211     1.0  0.40236  0.65838  0.41686  1.0000
  H   H2212     1.0  0.40174  0.61327  0.07927  1.0000
  C   C1254     1.0  0.32638  0.74254  0.16724  1.0000
  H   H2213     1.0  0.49969  0.53368  0.22455  1.0000
  C   C1255     1.0  0.33228  0.75050  0.20309  1.0000
  H   H2214     1.0  0.59508  0.61127  0.46735  1.0000
  C   C1256     1.0  0.33911  0.70341  0.32785  1.0000
  H   H2215     1.0  0.57675  0.53656  0.39745  1.0000
  H   H2216     1.0  0.54775  0.56912  0.43850  1.0000
  H   H2217     1.0  0.41893  0.68927  0.49260  1.0000
  C   C1257     1.0  0.61874  0.59270  0.30010  1.0000
  H   H2218     1.0  0.37951  0.70144  0.45278  1.0000
  C   C1258     1.0  0.61019  0.60642  0.27493  1.0000
  H   H2219     1.0  0.36779  0.71243  0.31699  1.0000
  C   C1259     1.0  0.56762  0.56288  0.36635  1.0000
  H   H2220     1.0  0.62723  0.75058  0.29837  1.0000
  H   H2221     1.0  0.55022  0.53572  0.45851  1.0000
  H   H2222     1.0  0.58485  0.56924  0.41802  1.0000
  H   H2223     1.0  0.60797  0.63668  0.25918  1.0000
  H   H2224     1.0  0.62888  0.61367  0.41214  1.0000
  Fe  Fe126     1.0  0.33214  0.67718  0.11908  1.0000
  H   H2225     1.0  0.35142  0.63578  0.48187  1.0000
  H   H2226     1.0  0.37537  0.50650  0.11413  1.0000
  C   C1260     1.0  0.57359  0.56100  0.03134  1.0000
  C   C1261     1.0  0.39416  0.61130  0.05177  1.0000
  C   C1262     1.0  0.53309  0.58835  0.47738  1.0000
  C   C1263     1.0  0.36507  0.74084  0.46676  1.0000
  H   H2227     1.0  0.33497  0.64603  0.44614  1.0000
  C   C1264     1.0  0.63694  0.61826  0.33124  1.0000
  H   H2228     1.0  0.63890  0.58807  0.34754  1.0000
  S   S266      1.0  0.32773  0.70211  0.50640  1.0000
  H   H2229     1.0  0.63126  0.75075  0.04142  1.0000
  H   H2230     1.0  0.52259  0.50990  0.41365  1.0000
  H   H2231     1.0  0.31361  0.72594  0.44413  1.0000
  H   H2232     1.0  0.53866  0.57900  0.02226  1.0000
  H   H2233     1.0  0.36806  0.60085  0.50697  1.0000
  S   S267      1.0  0.44149  0.53261  0.01661  1.0000
  H   H2234     1.0  0.64232  0.74075  0.33701  1.0000
  C   C1265     1.0  0.64133  0.72255  0.06330  1.0000
  C   C1266     1.0  0.64189  0.75019  0.31061  1.0000
  H   H2235     1.0  0.64099  0.71472  0.09169  1.0000
  C   C1267     1.0  0.58536  0.50375  0.10534  1.0000
  C   C1268     1.0  0.44597  0.50397  0.34972  1.0000
  Fe  Fe127     1.0  0.43746  0.52376  0.95363  1.0000
  S   S268      1.0  0.43065  0.55407  0.93228  1.0000
  H   H2236     1.0  0.56657  0.52765  0.98255  1.0000
  H   H2237     1.0  0.36778  0.62892  0.86950  1.0000
  S   S269      1.0  0.46822  0.56735  0.98413  1.0000
  H   H2238     1.0  0.62531  0.65377  0.70062  1.0000
  H   H2239     1.0  0.42538  0.59254  0.54856  1.0000
  H   H2240     1.0  0.56661  0.61741  0.73135  1.0000
  Fe  Fe128     1.0  0.46223  0.55563  0.92380  1.0000
  S   S270      1.0  0.47520  0.56902  0.87029  1.0000
  H   H2241     1.0  0.39857  0.66274  0.54920  1.0000
  S   S271      1.0  0.46833  0.52466  0.94045  1.0000
  H   H2242     1.0  0.60439  0.51349  0.95765  1.0000
  H   H2243     1.0  0.36289  0.62714  0.55613  1.0000
  H   H2244     1.0  0.58411  0.56625  0.54575  1.0000
  Fe  Fe129     1.0  0.60409  0.55327  0.72291  1.0000
  S   S272      1.0  0.59636  0.52696  0.75742  1.0000
  H   H2245     1.0  0.62716  0.52115  0.94306  1.0000
  Fe  Fe130     1.0  0.56523  0.55781  0.68544  1.0000
  S   S273      1.0  0.55392  0.53266  0.71826  1.0000
  S   S274      1.0  0.54860  0.57527  0.64013  1.0000
  Fe  Fe131     1.0  0.56966  0.54399  0.77029  1.0000
  S   S275      1.0  0.55867  0.54033  0.83151  1.0000
  Fe  Fe132     1.0  0.58116  0.51738  0.70253  1.0000
  H   H2246     1.0  0.39680  0.58555  0.96657  1.0000
  S   S276      1.0  0.57835  0.57105  0.73949  1.0000
  S   S277      1.0  0.59158  0.54191  0.66626  1.0000
  C   C1269     1.0  0.41176  0.60002  0.55021  1.0000
  Fe  Fe133     1.0  0.36289  0.66380  0.61377  1.0000
  H   H2247     1.0  0.61064  0.58401  0.78564  1.0000
  H   H2248     1.0  0.34081  0.64288  0.83083  1.0000
  C   C1270     1.0  0.36641  0.73133  0.86392  1.0000
  H   H2249     1.0  0.37902  0.72479  0.87931  1.0000
  C   C1271     1.0  0.49931  0.54234  0.58631  1.0000
  C   C1272     1.0  0.50238  0.56143  0.57472  1.0000
  C   C1273     1.0  0.51788  0.57143  0.59044  1.0000
  C   C1274     1.0  0.53047  0.56220  0.61710  1.0000
  C   C1275     1.0  0.52802  0.54272  0.62631  1.0000
  C   C1276     1.0  0.51234  0.53296  0.61148  1.0000
  H   H2250     1.0  0.61997  0.66578  0.55601  1.0000
  H   H2251     1.0  0.51980  0.58646  0.58282  1.0000
  H   H2252     1.0  0.53807  0.53519  0.64520  1.0000
  C   C1277     1.0  0.61545  0.59536  0.63002  1.0000
  C   C1278     1.0  0.49842  0.56105  0.85944  1.0000
  C   C1279     1.0  0.50785  0.56915  0.82771  1.0000
  C   C1280     1.0  0.52612  0.56237  0.81764  1.0000
  C   C1281     1.0  0.53509  0.54771  0.83989  1.0000
  C   C1282     1.0  0.52565  0.53964  0.87148  1.0000
  C   C1283     1.0  0.50747  0.54640  0.88151  1.0000
  H   H2253     1.0  0.50103  0.58077  0.81104  1.0000
  H   H2254     1.0  0.53344  0.56886  0.79348  1.0000
  H   H2255     1.0  0.53252  0.52832  0.88862  1.0000
  H   H2256     1.0  0.50053  0.54031  0.90642  1.0000
  H   H2257     1.0  0.48080  0.51991  0.85561  1.0000
  H   H2258     1.0  0.61598  0.57399  0.86797  1.0000
  C   C1284     1.0  0.50882  0.51431  0.73866  1.0000
  C   C1285     1.0  0.41253  0.53971  0.66731  1.0000
  H   H2259     1.0  0.31624  0.73403  0.87564  1.0000
  H   H2260     1.0  0.60543  0.58807  0.64961  1.0000
  C   C1286     1.0  0.37461  0.60661  0.98073  1.0000
  C   C1287     1.0  0.60207  0.61957  0.69699  1.0000
  H   H2261     1.0  0.54893  0.59664  0.99298  1.0000
  H   H2262     1.0  0.60731  0.60284  0.60617  1.0000
  H   H2263     1.0  0.53790  0.54677  0.00719  1.0000
  H   H2264     1.0  0.33643  0.66094  0.86834  1.0000
  C   C1288     1.0  0.57187  0.56641  0.98714  1.0000
  C   C1289     1.0  0.39551  0.52725  0.72700  1.0000
  H   H2265     1.0  0.35124  0.56015  0.58917  1.0000
  S   S278      1.0  0.36918  0.72564  0.68452  1.0000
  C   C1290     1.0  0.36213  0.64378  0.87587  1.0000
  H   H2266     1.0  0.51570  0.51408  0.70944  1.0000
  H   H2267     1.0  0.59077  0.61276  0.67888  1.0000
  H   H2268     1.0  0.49931  0.57114  0.66826  1.0000
  H   H2269     1.0  0.45852  0.53150  0.84057  1.0000
  H   H2270     1.0  0.51015  0.51813  0.62003  1.0000
  Fe  Fe134     1.0  0.32261  0.67485  0.63886  1.0000
  H   H2271     1.0  0.63932  0.61415  0.63411  1.0000
  H   H2272     1.0  0.62820  0.71625  0.65590  1.0000
  C   C1291     1.0  0.39111  0.62453  0.58057  1.0000
  C   C1292     1.0  0.41105  0.66981  0.53717  1.0000
  C   C1293     1.0  0.40873  0.61471  0.57831  1.0000
  C   C1294     1.0  0.34132  0.64579  0.86289  1.0000
  H   H2273     1.0  0.33510  0.61657  0.88054  1.0000
  H   H2274     1.0  0.36181  0.68042  0.97148  1.0000
  C   C1295     1.0  0.57732  0.62494  0.74964  1.0000
  H   H2275     1.0  0.54624  0.53019  0.54954  1.0000
  H   H2276     1.0  0.62949  0.54088  0.87713  1.0000
  H   H2277     1.0  0.60178  0.64217  0.74368  1.0000
  S   S279      1.0  0.38780  0.64251  0.61683  1.0000
  H   H2278     1.0  0.49244  0.56876  0.55496  1.0000
  H   H2279     1.0  0.61608  0.61249  0.82842  1.0000
  S   S280      1.0  0.35053  0.67387  0.67102  1.0000
  H   H2280     1.0  0.63226  0.68202  0.97241  1.0000
  H   H2281     1.0  0.36232  0.75130  0.81424  1.0000
  H   H2282     1.0  0.38745  0.51495  0.73867  1.0000
  N   N67       1.0  0.61750  0.62712  0.67120  1.0000
  H   H2283     1.0  0.51392  0.55335  0.72595  1.0000
  H   H2284     1.0  0.49347  0.53570  0.67971  1.0000
  C   C1296     1.0  0.48751  0.53891  0.70906  1.0000
  H   H2285     1.0  0.37074  0.65427  0.85971  1.0000
  H   H2286     1.0  0.57608  0.55219  0.58644  1.0000
  H   H2287     1.0  0.36417  0.74244  0.98407  1.0000
  C   C1297     1.0  0.49844  0.55660  0.72497  1.0000
  H   H2288     1.0  0.34439  0.67257  0.93646  1.0000
  H   H2289     1.0  0.46982  0.53889  0.77167  1.0000
  C   C1298     1.0  0.61011  0.65933  0.57718  1.0000
  N   N68       1.0  0.55200  0.56724  0.97031  1.0000
  C   C1299     1.0  0.54156  0.51168  0.97123  1.0000
  C   C1300     1.0  0.55293  0.57111  0.92681  1.0000
  H   H2290     1.0  0.46107  0.51133  0.71437  1.0000
  C   C1301     1.0  0.54216  0.54833  0.97616  1.0000
  C   C1302     1.0  0.55342  0.52957  0.96463  1.0000
  H   H2291     1.0  0.55910  0.56312  0.55244  1.0000
  C   C1303     1.0  0.52086  0.58800  0.97341  1.0000
  C   C1304     1.0  0.56130  0.59078  0.91487  1.0000
  C   C1305     1.0  0.55822  0.59466  0.87098  1.0000
  H   H2292     1.0  0.38709  0.54089  0.73153  1.0000
  H   H2293     1.0  0.63510  0.60128  0.67743  1.0000
  C   C1306     1.0  0.42942  0.50648  0.61180  1.0000
  C   C1307     1.0  0.33669  0.73131  0.99685  1.0000
  H   H2294     1.0  0.58099  0.55620  0.96986  1.0000
  H   H2295     1.0  0.56161  0.55965  0.91200  1.0000
  H   H2296     1.0  0.53863  0.57016  0.91302  1.0000
  C   C1308     1.0  0.61694  0.50929  0.93958  1.0000
  H   H2297     1.0  0.45652  0.50808  0.78420  1.0000
  H   H2298     1.0  0.36872  0.70873  0.93289  1.0000
  H   H2299     1.0  0.52858  0.54827  0.95917  1.0000
  H   H2300     1.0  0.36000  0.74145  0.88569  1.0000
  H   H2301     1.0  0.55747  0.52982  0.93335  1.0000
  C   C1309     1.0  0.48059  0.52680  0.77455  1.0000
  C   C1310     1.0  0.42044  0.68088  0.57087  1.0000
  H   H2302     1.0  0.32952  0.73742  0.67654  1.0000
  H   H2303     1.0  0.52180  0.59347  0.94290  1.0000
  H   H2304     1.0  0.55464  0.60314  0.93083  1.0000
  H   H2305     1.0  0.57679  0.59068  0.92104  1.0000
  H   H2306     1.0  0.56445  0.58272  0.85299  1.0000
  H   H2307     1.0  0.54283  0.59612  0.86391  1.0000
  H   H2308     1.0  0.56505  0.60836  0.86282  1.0000
  H   H2309     1.0  0.61587  0.54887  0.91892  1.0000
  H   H2310     1.0  0.41069  0.69236  0.58245  1.0000
  C   C1311     1.0  0.62143  0.64857  0.60935  1.0000
  H   H2311     1.0  0.51887  0.61727  0.99780  1.0000
  C   C1312     1.0  0.34521  0.70729  0.89015  1.0000
  H   H2312     1.0  0.51698  0.52489  0.75641  1.0000
  H   H2313     1.0  0.52786  0.51286  0.95485  1.0000
  C   C1313     1.0  0.62770  0.57937  0.61117  1.0000
  C   C1314     1.0  0.46710  0.51776  0.84014  1.0000
  S   S281      1.0  0.36810  0.69380  0.59150  1.0000
  H   H2314     1.0  0.34756  0.69768  0.77292  1.0000
  C   C1315     1.0  0.35097  0.68550  0.94958  1.0000
  C   C1316     1.0  0.62780  0.60975  0.65362  1.0000
  H   H2315     1.0  0.49652  0.60707  0.98369  1.0000
  Fe  Fe135     1.0  0.33865  0.69291  0.56627  1.0000
  H   H2316     1.0  0.63029  0.63727  0.59470  1.0000
  C   C1317     1.0  0.36200  0.70086  0.78428  1.0000
  C   C1318     1.0  0.36252  0.69967  0.82991  1.0000
  H   H2317     1.0  0.32617  0.71196  0.82151  1.0000
  C   C1319     1.0  0.60819  0.63985  0.64011  1.0000
  C   C1320     1.0  0.49519  0.57439  0.69896  1.0000
  H   H2318     1.0  0.59683  0.63196  0.62432  1.0000
  H   H2319     1.0  0.31480  0.65907  0.93801  1.0000
  Fe  Fe136     1.0  0.35404  0.70377  0.64704  1.0000
  C   C1321     1.0  0.57330  0.55590  0.55514  1.0000
  C   C1322     1.0  0.62675  0.60792  0.80759  1.0000
  H   H2320     1.0  0.58891  0.52953  0.90008  1.0000
  H   H2321     1.0  0.60125  0.67124  0.59001  1.0000
  H   H2322     1.0  0.42008  0.61850  0.59837  1.0000
  C   C1323     1.0  0.33582  0.72392  0.82947  1.0000
  H   H2323     1.0  0.49200  0.53276  0.79369  1.0000
  H   H2324     1.0  0.47247  0.54365  0.70362  1.0000
  H   H2325     1.0  0.36709  0.60477  0.95313  1.0000
  H   H2326     1.0  0.48009  0.57929  0.69958  1.0000
  Fe  Fe137     1.0  0.46375  0.54123  0.51792  1.0000
  H   H2327     1.0  0.42364  0.52165  0.87234  1.0000
  H   H2328     1.0  0.36829  0.57891  0.59579  1.0000
  H   H2329     1.0  0.33989  0.69415  0.96505  1.0000
  H   H2330     1.0  0.60619  0.55753  0.83229  1.0000
  H   H2331     1.0  0.40609  0.50938  0.68029  1.0000
  C   C1324     1.0  0.39931  0.52401  0.68338  1.0000
  H   H2332     1.0  0.34025  0.73010  0.80108  1.0000
  H   H2333     1.0  0.35617  0.68546  0.83646  1.0000
  H   H2334     1.0  0.50401  0.58640  0.71001  1.0000
  N   N69       1.0  0.48835  0.52107  0.73477  1.0000
  H   H2335     1.0  0.40014  0.75166  0.86015  1.0000
  N   N70       1.0  0.41463  0.54085  0.62323  1.0000
  C   C1325     1.0  0.41301  0.52138  0.60317  1.0000
  C   C1326     1.0  0.40012  0.55483  0.60524  1.0000
  C   C1327     1.0  0.43395  0.54858  0.61437  1.0000
  H   H2336     1.0  0.32032  0.60406  0.93956  1.0000
  H   H2337     1.0  0.42655  0.53670  0.68186  1.0000
  C   C1328     1.0  0.37948  0.60482  0.52668  1.0000
  C   C1329     1.0  0.43833  0.56896  0.63120  1.0000
  C   C1330     1.0  0.37906  0.54959  0.60882  1.0000
  C   C1331     1.0  0.36632  0.56379  0.58541  1.0000
  H   H2338     1.0  0.58398  0.64580  0.70583  1.0000
  H   H2339     1.0  0.32041  0.73765  0.55825  1.0000
  C   C1332     1.0  0.45859  0.57444  0.62195  1.0000
  H   H2340     1.0  0.41214  0.52326  0.57075  1.0000
  H   H2341     1.0  0.37630  0.53486  0.59743  1.0000
  H   H2342     1.0  0.40103  0.56942  0.61889  1.0000
  H   H2343     1.0  0.40311  0.55683  0.57338  1.0000
  H   H2344     1.0  0.43612  0.54905  0.58205  1.0000
  H   H2345     1.0  0.44534  0.53873  0.62637  1.0000
  Fe  Fe138     1.0  0.43714  0.56318  0.99454  1.0000
  H   H2346     1.0  0.36418  0.72059  0.51505  1.0000
  H   H2347     1.0  0.42154  0.65866  0.52727  1.0000
  H   H2348     1.0  0.63064  0.65934  0.62372  1.0000
  H   H2349     1.0  0.36960  0.56291  0.55359  1.0000
  H   H2350     1.0  0.39711  0.69608  0.51528  1.0000
  H   H2351     1.0  0.43671  0.56934  0.66358  1.0000
  H   H2352     1.0  0.42896  0.58038  0.61805  1.0000
  H   H2353     1.0  0.59238  0.56518  0.87411  1.0000
  C   C1333     1.0  0.63090  0.63862  0.69679  1.0000
  H   H2354     1.0  0.39954  0.51443  0.61038  1.0000
  H   H2355     1.0  0.44207  0.51020  0.59458  1.0000
  H   H2356     1.0  0.33184  0.63441  0.91733  1.0000
  N   N71       1.0  0.61096  0.50705  0.89704  1.0000
  C   C1334     1.0  0.33654  0.74745  0.69595  1.0000
  H   H2357     1.0  0.47664  0.51174  0.65211  1.0000
  H   H2358     1.0  0.45934  0.50666  0.85630  1.0000
  H   H2359     1.0  0.58455  0.61428  0.76960  1.0000
  H   H2360     1.0  0.46163  0.58885  0.63490  1.0000
  H   H2361     1.0  0.46888  0.56354  0.63417  1.0000
  H   H2362     1.0  0.46048  0.57529  0.58968  1.0000
  H   H2363     1.0  0.59783  0.52539  0.85227  1.0000
  H   H2364     1.0  0.60086  0.64921  0.56084  1.0000
  H   H2365     1.0  0.37018  0.68763  0.90181  1.0000
  C   C1335     1.0  0.34909  0.74387  0.97841  1.0000
  C   C1336     1.0  0.63729  0.58577  0.75630  1.0000
  H   H2366     1.0  0.36564  0.71531  0.77323  1.0000
  H   H2367     1.0  0.60076  0.65246  0.65401  1.0000
  C   C1337     1.0  0.61497  0.54412  0.88775  1.0000
  H   H2368     1.0  0.61849  0.56903  0.59535  1.0000
  C   C1338     1.0  0.37586  0.68605  0.76626  1.0000
  C   C1339     1.0  0.32368  0.73993  0.84999  1.0000
  C   C1340     1.0  0.47049  0.51102  0.79808  1.0000
  C   C1341     1.0  0.37406  0.74350  0.82989  1.0000
  H   H2369     1.0  0.63595  0.57120  0.63406  1.0000
  S   S282      1.0  0.63319  0.56620  0.72396  1.0000
  H   H2370     1.0  0.37763  0.69809  0.83958  1.0000
  N   N72       1.0  0.35263  0.71584  0.85270  1.0000
  C   C1342     1.0  0.59175  0.63470  0.72372  1.0000
  H   H2371     1.0  0.58897  0.53146  0.53224  1.0000
  H   H2372     1.0  0.60795  0.60785  0.71638  1.0000
  C   C1343     1.0  0.36029  0.69746  0.91783  1.0000
  H   H2373     1.0  0.33409  0.69660  0.88303  1.0000
  C   C1344     1.0  0.31721  0.73301  0.98924  1.0000
  H   H2374     1.0  0.37471  0.55070  0.63995  1.0000
  H   H2375     1.0  0.38211  0.73415  0.80921  1.0000
  C   C1345     1.0  0.35572  0.74461  0.70545  1.0000
  H   H2376     1.0  0.64072  0.50898  0.88364  1.0000
  H   H2377     1.0  0.38548  0.52379  0.66779  1.0000
  C   C1346     1.0  0.55994  0.52249  0.54314  1.0000
  H   H2378     1.0  0.37181  0.67104  0.77354  1.0000
  H   H2379     1.0  0.37570  0.68766  0.73382  1.0000
  H   H2380     1.0  0.39054  0.68851  0.77691  1.0000
  H   H2381     1.0  0.63762  0.58560  0.58987  1.0000
  C   C1347     1.0  0.37653  0.61971  0.55441  1.0000
  H   H2382     1.0  0.43368  0.68757  0.56097  1.0000
  H   H2383     1.0  0.56990  0.63603  0.76795  1.0000
  C   C1348     1.0  0.39144  0.59572  0.98825  1.0000
  H   H2384     1.0  0.40768  0.55407  0.67910  1.0000
  S   S283      1.0  0.33455  0.66193  0.58350  1.0000
  S   S284      1.0  0.47880  0.53014  0.57227  1.0000
  C   C1349     1.0  0.62365  0.59175  0.78341  1.0000
  H   H2385     1.0  0.49373  0.56066  0.75477  1.0000
  S   S285      1.0  0.32492  0.70575  0.61976  1.0000
  C   C1350     1.0  0.51064  0.60378  0.99726  1.0000
  H   H2386     1.0  0.63171  0.63242  0.72699  1.0000
  H   H2387     1.0  0.40906  0.52802  0.74372  1.0000
  C   C1351     1.0  0.60219  0.52621  0.88378  1.0000
  H   H2388     1.0  0.36378  0.64660  0.90791  1.0000
  H   H2389     1.0  0.33819  0.71863  0.90856  1.0000
  H   H2390     1.0  0.57855  0.58075  0.98432  1.0000
  H   H2391     1.0  0.42404  0.67067  0.59522  1.0000
  H   H2392     1.0  0.63206  0.72742  0.60891  1.0000
  H   H2393     1.0  0.56558  0.51759  0.57241  1.0000
  C   C1352     1.0  0.60683  0.56124  0.86406  1.0000
  C   C1353     1.0  0.42132  0.50710  0.86174  1.0000
  Fe  Fe139     1.0  0.47188  0.53621  0.00148  1.0000
  H   H2394     1.0  0.42240  0.51517  0.80088  1.0000
  H   H2395     1.0  0.51188  0.57505  0.97314  1.0000
  H   H2396     1.0  0.53868  0.50990  0.00297  1.0000
  C   C1354     1.0  0.57431  0.53767  0.52959  1.0000
  C   C1355     1.0  0.39705  0.59488  0.52468  1.0000
  C   C1356     1.0  0.32909  0.63147  0.88575  1.0000
  C   C1357     1.0  0.54082  0.58306  0.99110  1.0000
  N   N73       1.0  0.55675  0.50516  0.51650  1.0000
  H   H2397     1.0  0.31475  0.68013  0.72642  1.0000
  S   S286      1.0  0.34628  0.63311  0.99846  1.0000
  H   H2398     1.0  0.62580  0.50849  0.84158  1.0000
  H   H2399     1.0  0.31436  0.61438  0.82488  1.0000
  C   C1358     1.0  0.36746  0.61977  0.00882  1.0000
  H   H2400     1.0  0.33247  0.75216  0.85983  1.0000
  H   H2401     1.0  0.64159  0.74009  0.53249  1.0000
  C   C1359     1.0  0.63919  0.72068  0.63499  1.0000
  H   H2402     1.0  0.43346  0.50651  0.64341  1.0000
  H   H2403     1.0  0.64150  0.50725  0.00592  1.0000
  C   C1360     1.0  0.47613  0.50602  0.71541  1.0000
  H   H2404     1.0  0.64157  0.69231  0.60948  1.0000
  C   C1361     1.0  0.64347  0.61832  0.80479  1.0000
  H   H2405     1.0  0.64206  0.68936  0.92638  1.0000
  Fe  Fe140     1.0  0.44773  0.92594  0.15485  1.0000
  S   S287      1.0  0.43834  0.90559  0.10720  1.0000
  S   S288      1.0  0.44255  0.95824  0.14878  1.0000
  Fe  Fe141     1.0  0.46692  0.89391  0.20298  1.0000
  S   S289      1.0  0.45940  0.87118  0.15871  1.0000
  S   S290      1.0  0.48340  0.88319  0.25634  1.0000
  Fe  Fe142     1.0  0.46769  0.89269  0.11342  1.0000
  S   S291      1.0  0.48394  0.88233  0.06028  1.0000
  Fe  Fe143     1.0  0.43075  0.88593  0.15683  1.0000
  S   S292      1.0  0.40565  0.86622  0.15288  1.0000
  S   S293      1.0  0.47767  0.91434  0.15796  1.0000
  S   S294      1.0  0.43762  0.90740  0.20451  1.0000
  Fe  Fe144     1.0  0.34860  0.81981  0.31644  1.0000
  S   S295      1.0  0.36327  0.84829  0.31088  1.0000
  S   S296      1.0  0.36120  0.79065  0.30100  1.0000
  Fe  Fe145     1.0  0.55481  0.93887  0.39078  1.0000
  S   S297      1.0  0.55378  0.96432  0.43203  1.0000
  S   S298      1.0  0.53795  0.94370  0.33459  1.0000
  Fe  Fe146     1.0  0.58746  0.91919  0.43642  1.0000
  S   S299      1.0  0.58943  0.94348  0.47985  1.0000
  S   S300      1.0  0.60735  0.89296  0.43596  1.0000
  Fe  Fe147     1.0  0.55774  0.94241  0.48000  1.0000
  S   S301      1.0  0.33837  0.81080  0.37548  1.0000
  Fe  Fe148     1.0  0.58527  0.96328  0.42836  1.0000
  S   S302      1.0  0.60124  0.99093  0.42325  1.0000
  S   S303      1.0  0.55570  0.91668  0.43947  1.0000
  S   S304      1.0  0.58629  0.93915  0.38439  1.0000
  C   C1362     1.0  0.39721  0.81942  0.37935  1.0000
  H   H2406     1.0  0.46676  0.98996  0.39833  1.0000
  H   H2407     1.0  0.31453  0.78170  0.50930  1.0000
  H   H2408     1.0  0.62579  0.92940  0.37115  1.0000
  H   H2409     1.0  0.42066  0.95507  0.03929  1.0000
  H   H2410     1.0  0.37403  0.75974  0.04436  1.0000
  H   H2411     1.0  0.35747  0.78864  0.47331  1.0000
  C   C1363     1.0  0.63103  0.86922  0.48009  1.0000
  C   C1364     1.0  0.50495  0.89449  0.05076  1.0000
  C   C1365     1.0  0.50925  0.91150  0.07091  1.0000
  C   C1366     1.0  0.52649  0.92050  0.06465  1.0000
  H   H2412     1.0  0.42265  0.98034  0.45152  1.0000
  H   H2413     1.0  0.35961  0.79851  0.20146  1.0000
  H   H2414     1.0  0.35011  0.81339  0.46372  1.0000
  H   H2415     1.0  0.49930  0.91776  0.09130  1.0000
  H   H2416     1.0  0.53002  0.93318  0.08157  1.0000
  C   C1367     1.0  0.58858  0.94956  0.26203  1.0000
  H   H2417     1.0  0.50951  0.99965  0.42852  1.0000
  C   C1368     1.0  0.49761  0.90026  0.28011  1.0000
  C   C1369     1.0  0.50974  0.89440  0.31114  1.0000
  C   C1370     1.0  0.52192  0.90772  0.32903  1.0000
  C   C1371     1.0  0.52208  0.92682  0.31552  1.0000
  C   C1372     1.0  0.50972  0.93269  0.28496  1.0000
  C   C1373     1.0  0.49734  0.91951  0.26763  1.0000
  H   H2418     1.0  0.50991  0.87950  0.32098  1.0000
  H   H2419     1.0  0.53145  0.90311  0.35259  1.0000
  H   H2420     1.0  0.50979  0.94745  0.27443  1.0000
  H   H2421     1.0  0.48782  0.92418  0.24413  1.0000
  C   C1374     1.0  0.37401  0.85357  0.26599  1.0000
  C   C1375     1.0  0.37310  0.84078  0.23414  1.0000
  C   C1376     1.0  0.38257  0.84497  0.19922  1.0000
  C   C1377     1.0  0.39320  0.86180  0.19627  1.0000
  C   C1378     1.0  0.39389  0.87468  0.22799  1.0000
  C   C1379     1.0  0.38419  0.87064  0.26265  1.0000
  H   H2422     1.0  0.36514  0.82771  0.23657  1.0000
  H   H2423     1.0  0.38192  0.83504  0.17464  1.0000
  H   H2424     1.0  0.40175  0.88784  0.22571  1.0000
  H   H2425     1.0  0.38476  0.88068  0.28711  1.0000
  H   H2426     1.0  0.42690  0.97330  0.40128  1.0000
  C   C1380     1.0  0.45912  0.95415  0.07671  1.0000
  C   C1381     1.0  0.44901  0.96645  0.10205  1.0000
  H   H2427     1.0  0.57857  0.98097  0.35478  1.0000
  S   S305      1.0  0.32529  0.77440  0.21459  1.0000
  H   H2428     1.0  0.46324  0.93964  0.08596  1.0000
  H   H2429     1.0  0.49496  0.99743  0.04127  1.0000
  H   H2430     1.0  0.63571  0.98371  0.27545  1.0000
  N   N74       1.0  0.43328  0.84421  0.31044  1.0000
  C   C1382     1.0  0.43494  0.86557  0.30197  1.0000
  C   C1383     1.0  0.42883  0.83374  0.27248  1.0000
  C   C1384     1.0  0.41657  0.84189  0.33723  1.0000
  C   C1385     1.0  0.45081  0.83547  0.33039  1.0000
  C   C1386     1.0  0.47013  0.84451  0.32071  1.0000
  C   C1387     1.0  0.43538  0.87903  0.33858  1.0000
  C   C1388     1.0  0.41030  0.82076  0.34412  1.0000
  C   C1389     1.0  0.44356  0.83499  0.23945  1.0000
  C   C1390     1.0  0.43667  0.82477  0.20217  1.0000
  C   C1391     1.0  0.48669  0.83250  0.33808  1.0000
  C   C1392     1.0  0.44244  0.89913  0.32835  1.0000
  H   H2431     1.0  0.42285  0.87077  0.28319  1.0000
  H   H2432     1.0  0.44756  0.86841  0.28413  1.0000
  H   H2433     1.0  0.42726  0.81797  0.27772  1.0000
  H   H2434     1.0  0.41492  0.83914  0.26034  1.0000
  H   H2435     1.0  0.40397  0.85020  0.32564  1.0000
  H   H2436     1.0  0.41959  0.84827  0.36667  1.0000
  H   H2437     1.0  0.44966  0.83643  0.36297  1.0000
  H   H2438     1.0  0.45198  0.81965  0.32394  1.0000
  H   H2439     1.0  0.47099  0.85934  0.33325  1.0000
  H   H2440     1.0  0.47236  0.84568  0.28878  1.0000
  H   H2441     1.0  0.42082  0.88097  0.35026  1.0000
  H   H2442     1.0  0.44458  0.87282  0.36231  1.0000
  H   H2443     1.0  0.42269  0.81084  0.34945  1.0000
  H   H2444     1.0  0.40230  0.81554  0.31794  1.0000
  H   H2445     1.0  0.44629  0.85023  0.23161  1.0000
  H   H2446     1.0  0.45699  0.82750  0.24848  1.0000
  H   H2447     1.0  0.43456  0.80914  0.20782  1.0000
  H   H2448     1.0  0.42315  0.83149  0.19133  1.0000
  H   H2449     1.0  0.44735  0.82610  0.17876  1.0000
  H   H2450     1.0  0.48551  0.83150  0.37052  1.0000
  H   H2451     1.0  0.48709  0.81769  0.32517  1.0000
  H   H2452     1.0  0.50021  0.83957  0.33125  1.0000
  H   H2453     1.0  0.45744  0.89815  0.31902  1.0000
  H   H2454     1.0  0.43364  0.90572  0.30429  1.0000
  H   H2455     1.0  0.44155  0.90873  0.35455  1.0000
  H   H2456     1.0  0.31679  0.81840  0.18989  1.0000
  C   C1393     1.0  0.37373  0.76317  0.07631  1.0000
  H   H2457     1.0  0.48162  0.00174  0.18388  1.0000
  C   C1394     1.0  0.45205  0.97293  0.43946  1.0000
  H   H2458     1.0  0.32703  0.82878  0.12332  1.0000
  H   H2459     1.0  0.57960  0.95834  0.28234  1.0000
  C   C1395     1.0  0.60929  0.95550  0.26498  1.0000
  S   S306      1.0  0.36695  0.76430  0.40221  1.0000
  H   H2460     1.0  0.36127  0.81151  0.07796  1.0000
  C   C1396     1.0  0.43269  0.98140  0.42682  1.0000
  C   C1397     1.0  0.64255  0.86434  0.51288  1.0000
  H   H2461     1.0  0.39636  0.94976  0.04874  1.0000
  H   H2462     1.0  0.52309  0.91715  0.50914  1.0000
  C   C1398     1.0  0.40780  0.94834  0.02675  1.0000
  H   H2463     1.0  0.62403  0.97726  0.05078  1.0000
  H   H2464     1.0  0.33405  0.85179  0.14392  1.0000
  H   H2465     1.0  0.33153  0.80665  0.06063  1.0000
  H   H2466     1.0  0.38432  0.79316  0.21170  1.0000
  H   H2467     1.0  0.60691  0.96034  0.32726  1.0000
  H   H2468     1.0  0.60977  0.97081  0.25530  1.0000
  H   H2469     1.0  0.51294  0.93479  0.40021  1.0000
  N   N75       1.0  0.54195  0.90070  0.18527  1.0000
  C   C1399     1.0  0.53121  0.88206  0.18694  1.0000
  C   C1400     1.0  0.55156  0.90477  0.22449  1.0000
  C   C1401     1.0  0.52761  0.91692  0.17745  1.0000
  C   C1402     1.0  0.55602  0.90057  0.15231  1.0000
  C   C1403     1.0  0.57081  0.88365  0.15194  1.0000
  C   C1404     1.0  0.52042  0.87616  0.14885  1.0000
  C   C1405     1.0  0.53520  0.93786  0.17823  1.0000
  C   C1406     1.0  0.55836  0.88706  0.24953  1.0000
  C   C1407     1.0  0.57038  0.89334  0.28484  1.0000
  C   C1408     1.0  0.58265  0.88415  0.11465  1.0000
  C   C1409     1.0  0.51127  0.85650  0.15367  1.0000
  C   C1410     1.0  0.51897  0.95278  0.17260  1.0000
  H   H2470     1.0  0.52067  0.88298  0.21105  1.0000
  H   H2471     1.0  0.54072  0.86956  0.19460  1.0000
  H   H2472     1.0  0.56382  0.91436  0.22048  1.0000
  H   H2473     1.0  0.54173  0.91300  0.24422  1.0000
  H   H2474     1.0  0.51595  0.91627  0.19895  1.0000
  H   H2475     1.0  0.52087  0.91518  0.14815  1.0000
  H   H2476     1.0  0.54853  0.90083  0.12330  1.0000
  H   H2477     1.0  0.56429  0.91406  0.15289  1.0000
  H   H2478     1.0  0.56403  0.86936  0.15265  1.0000
  H   H2479     1.0  0.58070  0.88492  0.17737  1.0000
  H   H2480     1.0  0.50882  0.88672  0.14174  1.0000
  H   H2481     1.0  0.53003  0.87504  0.12341  1.0000
  H   H2482     1.0  0.54530  0.93996  0.15404  1.0000
  H   H2483     1.0  0.54242  0.94117  0.20654  1.0000
  H   H2484     1.0  0.54587  0.87956  0.26117  1.0000
  H   H2485     1.0  0.56686  0.87645  0.23230  1.0000
  H   H2486     1.0  0.56268  0.90454  0.30251  1.0000
  H   H2487     1.0  0.57361  0.88065  0.30402  1.0000
  H   H2488     1.0  0.58398  0.89921  0.27491  1.0000
  H   H2489     1.0  0.59014  0.89806  0.11252  1.0000
  H   H2490     1.0  0.59341  0.87210  0.11516  1.0000
  H   H2491     1.0  0.57350  0.88243  0.08806  1.0000
  H   H2492     1.0  0.50140  0.85688  0.17881  1.0000
  H   H2493     1.0  0.50307  0.85299  0.12656  1.0000
  H   H2494     1.0  0.52226  0.84490  0.15856  1.0000
  H   H2495     1.0  0.50882  0.95198  0.19717  1.0000
  H   H2496     1.0  0.52470  0.96760  0.17198  1.0000
  H   H2497     1.0  0.51125  0.95018  0.14445  1.0000
  Fe  Fe149     1.0  0.33236  0.78453  0.27582  1.0000
  H   H2498     1.0  0.45682  0.98129  0.46556  1.0000
  H   H2499     1.0  0.35027  0.77077  0.14016  1.0000
  H   H2500     1.0  0.64159  0.94543  0.05453  1.0000
  H   H2501     1.0  0.41084  0.93267  0.02156  1.0000
  H   H2502     1.0  0.55609  0.98737  0.09258  1.0000
  H   H2503     1.0  0.34739  0.79578  0.13202  1.0000
  C   C1411     1.0  0.61749  0.96409  0.03843  1.0000
  C   C1412     1.0  0.46392  0.96056  0.03922  1.0000
  C   C1413     1.0  0.32599  0.79207  0.06621  1.0000
  C   C1414     1.0  0.64018  0.95707  0.36014  1.0000
  H   H2504     1.0  0.52688  0.96933  0.08887  1.0000
  H   H2505     1.0  0.58312  0.95186  0.23159  1.0000
  H   H2506     1.0  0.43376  0.99696  0.41903  1.0000
  C   C1415     1.0  0.62143  0.88728  0.47799  1.0000
  H   H2507     1.0  0.33514  0.76295  0.07821  1.0000
  H   H2508     1.0  0.59997  0.00219  0.16781  1.0000
  H   H2509     1.0  0.62576  0.98877  0.32137  1.0000
  H   H2510     1.0  0.43596  0.99483  0.10913  1.0000
  H   H2511     1.0  0.51329  0.90257  0.43047  1.0000
  C   C1416     1.0  0.34522  0.79907  0.47361  1.0000
  C   C1417     1.0  0.56519  0.98253  0.03199  1.0000
  C   C1418     1.0  0.58662  0.99363  0.34807  1.0000
  C   C1419     1.0  0.62610  0.94638  0.05967  1.0000
  S   S307      1.0  0.32079  0.81443  0.28727  1.0000
  C   C1420     1.0  0.63971  0.93600  0.37618  1.0000
  H   H2512     1.0  0.51372  0.97887  0.30548  1.0000
  H   H2513     1.0  0.58466  0.98160  0.11822  1.0000
  C   C1421     1.0  0.53415  0.97302  0.06130  1.0000
  H   H2514     1.0  0.63229  0.94434  0.43601  1.0000
  H   H2515     1.0  0.57906  0.99333  0.28642  1.0000
  N   N76       1.0  0.58637  0.98476  0.03478  1.0000
  C   C1422     1.0  0.53446  0.89659  0.01509  1.0000
  H   H2516     1.0  0.49188  0.00233  0.11092  1.0000
  H   H2517     1.0  0.38120  0.80178  0.14309  1.0000
  H   H2518     1.0  0.38362  0.79955  0.07697  1.0000
  H   H2519     1.0  0.33414  0.79398  0.45279  1.0000
  H   H2520     1.0  0.38681  0.77623  0.14680  1.0000
  H   H2521     1.0  0.38858  0.76687  0.08395  1.0000
  H   H2522     1.0  0.61167  0.98705  0.51148  1.0000
  C   C1423     1.0  0.62353  0.90052  0.50888  1.0000
  C   C1424     1.0  0.64338  0.93561  0.42056  1.0000
  C   C1425     1.0  0.59559  0.99158  0.10827  1.0000
  H   H2523     1.0  0.58998  0.95443  0.01988  1.0000
  H   H2524     1.0  0.39217  0.80436  0.38202  1.0000
  H   H2525     1.0  0.40483  0.82326  0.40694  1.0000
  C   C1426     1.0  0.63776  0.98086  0.30729  1.0000
  H   H2526     1.0  0.48222  0.98603  0.33529  1.0000
  H   H2527     1.0  0.64137  0.83422  0.39649  1.0000
  C   C1427     1.0  0.53913  0.91311  0.03670  1.0000
  H   H2528     1.0  0.52747  0.98645  0.04912  1.0000
  H   H2529     1.0  0.58728  0.93403  0.26960  1.0000
  H   H2530     1.0  0.64292  0.92044  0.43133  1.0000
  C   C1428     1.0  0.45872  0.97928  0.02667  1.0000
  S   S308      1.0  0.32091  0.77207  0.33129  1.0000
  C   C1429     1.0  0.44389  0.98530  0.08971  1.0000
  H   H2531     1.0  0.32359  0.84141  0.20966  1.0000
  C   C1430     1.0  0.51171  0.99113  0.32630  1.0000
  C   C1431     1.0  0.55518  0.97595  0.06961  1.0000
  C   C1432     1.0  0.49803  0.99656  0.44929  1.0000
  N   N77       1.0  0.36030  0.78017  0.08374  1.0000
  C   C1433     1.0  0.44868  0.99170  0.05198  1.0000
  H   H2532     1.0  0.47175  0.95096  0.01996  1.0000
  H   H2533     1.0  0.62731  0.80445  0.04042  1.0000
  H   H2534     1.0  0.49268  0.90577  0.39917  1.0000
  S   S309      1.0  0.56073  0.92464  0.02998  1.0000
  H   H2535     1.0  0.61666  0.85025  0.06874  1.0000
  C   C1434     1.0  0.58676  0.00071  0.30943  1.0000
  Fe  Fe150     1.0  0.34875  0.78101  0.35812  1.0000
  C   C1435     1.0  0.59155  0.99940  0.06606  1.0000
  H   H2536     1.0  0.56128  0.96209  0.08108  1.0000
  H   H2537     1.0  0.61598  0.93702  0.31342  1.0000
  C   C1436     1.0  0.62822  0.85258  0.04895  1.0000
  H   H2538     1.0  0.39341  0.81786  0.01819  1.0000
  C   C1437     1.0  0.49525  0.98748  0.35368  1.0000
  H   H2539     1.0  0.63707  0.77665  0.34209  1.0000
  H   H2540     1.0  0.49333  0.00058  0.37203  1.0000
  H   H2541     1.0  0.49054  0.90746  0.45219  1.0000
  H   H2542     1.0  0.51552  0.99411  0.50215  1.0000
  H   H2543     1.0  0.31940  0.79225  0.09569  1.0000
  C   C1438     1.0  0.33197  0.83623  0.15041  1.0000
  H   H2544     1.0  0.61732  0.94601  0.24444  1.0000
  H   H2545     1.0  0.59162  0.95901  0.07041  1.0000
  H   H2546     1.0  0.52519  0.99322  0.22906  1.0000
  N   N78       1.0  0.48615  0.96595  0.41365  1.0000
  C   C1439     1.0  0.46647  0.97432  0.40562  1.0000
  C   C1440     1.0  0.49870  0.96878  0.37846  1.0000
  C   C1441     1.0  0.48438  0.94440  0.42011  1.0000
  C   C1442     1.0  0.49493  0.97450  0.45016  1.0000
  C   C1443     1.0  0.36866  0.79818  0.06674  1.0000
  C   C1444     1.0  0.35738  0.78331  0.12706  1.0000
  C   C1445     1.0  0.50327  0.93246  0.42494  1.0000
  H   H2547     1.0  0.34584  0.82966  0.15972  1.0000
  C   C1446     1.0  0.31769  0.83407  0.18331  1.0000
  H   H2548     1.0  0.62375  0.94755  0.09179  1.0000
  C   C1447     1.0  0.49962  0.91075  0.42679  1.0000
  H   H2549     1.0  0.46029  0.96722  0.37907  1.0000
  C   C1448     1.0  0.59556  0.96504  0.04161  1.0000
  H   H2550     1.0  0.51390  0.96815  0.38781  1.0000
  H   H2551     1.0  0.49712  0.95666  0.35700  1.0000
  H   H2552     1.0  0.47623  0.93790  0.39525  1.0000
  H   H2553     1.0  0.47631  0.94154  0.44719  1.0000
  H   H2554     1.0  0.48664  0.97092  0.47661  1.0000
  H   H2555     1.0  0.50923  0.96787  0.45579  1.0000
  C   C1449     1.0  0.36890  0.79931  0.02125  1.0000
  H   H2556     1.0  0.38463  0.82928  0.37556  1.0000
  C   C1450     1.0  0.37159  0.78825  0.19532  1.0000
  H   H2557     1.0  0.44793  0.99710  0.19647  1.0000
  H   H2558     1.0  0.51074  0.93642  0.45258  1.0000
  C   C1451     1.0  0.51747  0.88717  0.02241  1.0000
  C   C1452     1.0  0.37559  0.78751  0.15141  1.0000
  H   H2559     1.0  0.62966  0.96613  0.37676  1.0000
  H   H2560     1.0  0.55800  0.99655  0.02422  1.0000
  H   H2561     1.0  0.52502  0.99306  0.34352  1.0000
  H   H2562     1.0  0.44987  0.95773  0.44827  1.0000
  H   H2563     1.0  0.37070  0.83079  0.01813  1.0000
  H   H2564     1.0  0.34359  0.77159  0.03337  1.0000
  C   C1453     1.0  0.34152  0.77580  0.06454  1.0000
  H   H2565     1.0  0.62943  0.85889  0.45637  1.0000
  H   H2566     1.0  0.53223  0.96105  0.03981  1.0000
  C   C1454     1.0  0.61709  0.95276  0.30741  1.0000
  H   H2567     1.0  0.36807  0.77362  0.20610  1.0000
  Fe  Fe151     1.0  0.31147  0.80266  0.34475  1.0000
  N   N79       1.0  0.63688  0.95950  0.31634  1.0000
  H   H2568     1.0  0.61972  0.93284  0.04852  1.0000
  C   C1455     1.0  0.59786  0.00215  0.37721  1.0000
  H   H2569     1.0  0.60938  0.98351  0.10950  1.0000
  H   H2570     1.0  0.61643  0.91454  0.50742  1.0000
  H   H2571     1.0  0.63934  0.78471  0.01562  1.0000
  Fe  Fe152     1.0  0.44870  0.95739  0.68411  1.0000
  S   S310      1.0  0.43835  0.93233  0.64827  1.0000
  S   S311      1.0  0.44815  0.98950  0.66964  1.0000
  Fe  Fe153     1.0  0.46394  0.93095  0.74950  1.0000
  S   S312      1.0  0.45527  0.90362  0.71906  1.0000
  S   S313      1.0  0.47609  0.93275  0.81078  1.0000
  Fe  Fe154     1.0  0.46621  0.91783  0.66474  1.0000
  S   S314      1.0  0.48167  0.90064  0.61794  1.0000
  Fe  Fe155     1.0  0.42826  0.92022  0.70549  1.0000
  S   S315      1.0  0.39946  0.90695  0.71061  1.0000
  S   S316      1.0  0.47739  0.94378  0.69670  1.0000
  S   S317      1.0  0.43607  0.94660  0.73995  1.0000
  Fe  Fe156     1.0  0.35540  0.83759  0.85976  1.0000
  S   S318      1.0  0.38029  0.85782  0.86151  1.0000
  S   S319      1.0  0.36083  0.80675  0.84056  1.0000
  Fe  Fe157     1.0  0.57225  0.90205  0.88987  1.0000
  S   S320      1.0  0.56555  0.93088  0.91790  1.0000
  S   S321      1.0  0.55447  0.88884  0.84171  1.0000
  Fe  Fe158     1.0  0.60924  0.89644  0.93521  1.0000
  H   H2572     1.0  0.51024  0.92258  0.95342  1.0000
  S   S322      1.0  0.32299  0.79728  0.75267  1.0000
  C   C1456     1.0  0.33554  0.77669  0.73606  1.0000
  C   C1457     1.0  0.31783  0.79825  0.58888  1.0000
  Fe  Fe159     1.0  0.59606  0.93692  0.90820  1.0000
  S   S323      1.0  0.60361  0.96742  0.89230  1.0000
  S   S324      1.0  0.57967  0.88687  0.94669  1.0000
  S   S325      1.0  0.60223  0.90921  0.87579  1.0000
  H   H2573     1.0  0.63463  0.97846  0.62712  1.0000
  H   H2574     1.0  0.36667  0.91844  0.87599  1.0000
  C   C1458     1.0  0.60229  0.96006  0.81212  1.0000
  H   H2575     1.0  0.48778  0.98435  0.74339  1.0000
  C   C1459     1.0  0.41024  0.83279  0.74845  1.0000
  H   H2576     1.0  0.59959  0.95556  0.74941  1.0000
  H   H2577     1.0  0.60030  0.94501  0.81938  1.0000
  C   C1460     1.0  0.46489  0.96678  0.88043  1.0000
  C   C1461     1.0  0.50062  0.91272  0.59680  1.0000
  C   C1462     1.0  0.50539  0.90914  0.55748  1.0000
  H   H2578     1.0  0.33596  0.83740  0.73997  1.0000
  C   C1463     1.0  0.41502  0.77418  0.70121  1.0000
  C   C1464     1.0  0.52518  0.93656  0.60099  1.0000
  C   C1465     1.0  0.51087  0.92613  0.61874  1.0000
  H   H2579     1.0  0.47898  0.99723  0.58385  1.0000
  H   H2580     1.0  0.37499  0.95137  0.89689  1.0000
  H   H2581     1.0  0.53292  0.94702  0.61804  1.0000
  H   H2582     1.0  0.50774  0.92850  0.64935  1.0000
  C   C1466     1.0  0.49820  0.92106  0.81782  1.0000
  C   C1467     1.0  0.50801  0.92386  0.85328  1.0000
  C   C1468     1.0  0.52511  0.91375  0.86098  1.0000
  C   C1469     1.0  0.53266  0.90100  0.83297  1.0000
  C   C1470     1.0  0.52280  0.89812  0.79744  1.0000
  C   C1471     1.0  0.50565  0.90829  0.78968  1.0000
  H   H2583     1.0  0.50233  0.93371  0.87504  1.0000
  H   H2584     1.0  0.53222  0.91553  0.88892  1.0000
  H   H2585     1.0  0.52844  0.88806  0.77588  1.0000
  H   H2586     1.0  0.49805  0.90597  0.76230  1.0000
  C   C1472     1.0  0.38525  0.87199  0.82006  1.0000
  C   C1473     1.0  0.37157  0.87564  0.79079  1.0000
  C   C1474     1.0  0.37599  0.88679  0.75784  1.0000
  C   C1475     1.0  0.39417  0.89417  0.75368  1.0000
  C   C1476     1.0  0.40784  0.89071  0.78318  1.0000
  C   C1477     1.0  0.40335  0.87972  0.81636  1.0000
  H   H2587     1.0  0.35751  0.87001  0.79370  1.0000
  H   H2588     1.0  0.36532  0.88962  0.73530  1.0000
  H   H2589     1.0  0.42189  0.89637  0.78024  1.0000
  H   H2590     1.0  0.41400  0.87690  0.83886  1.0000
  H   H2591     1.0  0.35431  0.79972  0.00867  1.0000
  C   C1478     1.0  0.43332  0.98495  0.59450  1.0000
  H   H2592     1.0  0.60943  0.86242  0.87825  1.0000
  H   H2593     1.0  0.39658  0.88890  0.94418  1.0000
  H   H2594     1.0  0.32863  0.80937  0.58474  1.0000
  H   H2595     1.0  0.43006  0.97031  0.60284  1.0000
  N   N80       1.0  0.40123  0.82908  0.70856  1.0000
  H   H2596     1.0  0.36162  0.78362  0.76575  1.0000
  H   H2597     1.0  0.36506  0.78033  0.56272  1.0000
  C   C1479     1.0  0.57702  0.96069  0.63325  1.0000
  H   H2598     1.0  0.42206  0.89537  0.89849  1.0000
  C   C1480     1.0  0.38778  0.75870  0.84487  1.0000
  C   C1481     1.0  0.62816  0.99011  0.60826  1.0000
  C   C1482     1.0  0.53167  0.98444  0.68457  1.0000
  C   C1483     1.0  0.54014  0.96980  0.84943  1.0000
  C   C1484     1.0  0.55163  0.96680  0.81130  1.0000
  H   H2599     1.0  0.44253  0.98824  0.75390  1.0000
  C   C1485     1.0  0.51456  0.97927  0.92024  1.0000
  C   C1486     1.0  0.41782  0.79586  0.69509  1.0000
  H   H2600     1.0  0.56856  0.91712  0.58135  1.0000
  C   C1487     1.0  0.55669  0.94541  0.80433  1.0000
  H   H2601     1.0  0.60838  0.99405  0.99580  1.0000
  H   H2602     1.0  0.59922  0.94603  0.60182  1.0000
  H   H2603     1.0  0.40275  0.86721  0.66816  1.0000
  H   H2604     1.0  0.56706  0.89180  0.75772  1.0000
  H   H2605     1.0  0.50189  0.97629  0.84873  1.0000
  C   C1488     1.0  0.34196  0.75864  0.95367  1.0000
  H   H2606     1.0  0.37689  0.83836  0.67364  1.0000
  H   H2607     1.0  0.41308  0.83859  0.82861  1.0000
  H   H2608     1.0  0.55057  0.96737  0.87394  1.0000
  H   H2609     1.0  0.53013  0.95769  0.85167  1.0000
  S   S326      1.0  0.60254  0.99324  0.71352  1.0000
  H   H2610     1.0  0.40849  0.91047  0.95971  1.0000
  C   C1489     1.0  0.57478  0.90336  0.56959  1.0000
  C   C1490     1.0  0.39901  0.80779  0.69974  1.0000
  H   H2611     1.0  0.60706  0.96250  0.63981  1.0000
  H   H2612     1.0  0.55989  0.99555  0.69402  1.0000
  C   C1491     1.0  0.42613  0.88945  0.92784  1.0000
  H   H2613     1.0  0.50707  0.97251  0.98019  1.0000
  C   C1492     1.0  0.50993  0.98830  0.83592  1.0000
  H   H2614     1.0  0.59072  0.98964  0.59501  1.0000
  Fe  Fe160     1.0  0.33217  0.80914  0.81155  1.0000
  H   H2615     1.0  0.56459  0.93916  0.82996  1.0000
  H   H2616     1.0  0.54365  0.93712  0.79900  1.0000
  H   H2617     1.0  0.56572  0.94388  0.77802  1.0000
  C   C1493     1.0  0.38094  0.92393  0.86948  1.0000
  H   H2618     1.0  0.42595  0.83324  0.74617  1.0000
  H   H2619     1.0  0.55205  0.89063  0.71419  1.0000
  H   H2620     1.0  0.42340  0.94216  0.95718  1.0000
  H   H2621     1.0  0.44683  0.85795  0.96476  1.0000
  C   C1494     1.0  0.41373  0.83734  0.67731  1.0000
  H   H2622     1.0  0.61012  0.90322  0.60622  1.0000
  C   C1495     1.0  0.61257  0.85318  0.85222  1.0000
  C   C1496     1.0  0.59840  0.97648  0.58375  1.0000
  H   H2623     1.0  0.62175  0.79355  0.93346  1.0000
  H   H2624     1.0  0.44314  0.91409  0.93560  1.0000
  C   C1497     1.0  0.59670  0.96051  0.61542  1.0000
  N   N81       1.0  0.32357  0.77908  0.57025  1.0000
  S   S327      1.0  0.54582  0.94879  0.53957  1.0000
  H   H2625     1.0  0.59034  0.98070  0.97210  1.0000
  Fe  Fe161     1.0  0.57546  0.91648  0.97363  1.0000
  H   H2626     1.0  0.59016  0.97173  0.55734  1.0000
  C   C1498     1.0  0.63583  0.79979  0.93974  1.0000
  H   H2627     1.0  0.62515  0.83718  0.92194  1.0000
  C   C1499     1.0  0.35873  0.78065  0.59241  1.0000
  H   H2628     1.0  0.58814  0.87694  0.58962  1.0000
  H   H2629     1.0  0.52184  0.97496  0.70040  1.0000
  C   C1500     1.0  0.32251  0.76024  0.94598  1.0000
  C   C1501     1.0  0.43495  0.99389  0.78002  1.0000
  H   H2630     1.0  0.40391  0.76870  0.68095  1.0000
  H   H2631     1.0  0.55556  0.97355  0.71987  1.0000
  C   C1502     1.0  0.51717  0.98171  0.96455  1.0000
  C   C1503     1.0  0.61375  0.87129  0.65104  1.0000
  C   C1504     1.0  0.62431  0.85929  0.68366  1.0000
  C   C1505     1.0  0.62843  0.79649  0.01207  1.0000
  H   H2632     1.0  0.58016  0.87663  0.68093  1.0000
  H   H2633     1.0  0.62375  0.87306  0.62635  1.0000
  H   H2634     1.0  0.43235  0.88211  0.65135  1.0000
  H   H2635     1.0  0.41946  0.86486  0.70851  1.0000
  C   C1506     1.0  0.35459  0.77356  0.74641  1.0000
  C   C1507     1.0  0.62021  0.92473  0.67861  1.0000
  C   C1508     1.0  0.39331  0.99040  0.87720  1.0000
  H   H2636     1.0  0.61451  0.79009  0.00516  1.0000
  H   H2637     1.0  0.42829  0.83081  0.67949  1.0000
  S   S328      1.0  0.32785  0.84070  0.82612  1.0000
  H   H2638     1.0  0.34294  0.83765  0.68945  1.0000
  H   H2639     1.0  0.38065  0.92967  0.83899  1.0000
  N   N82       1.0  0.52957  0.98902  0.85414  1.0000
  H   H2640     1.0  0.42331  0.79789  0.66496  1.0000
  H   H2641     1.0  0.31564  0.82932  0.64122  1.0000
  C   C1509     1.0  0.38210  0.83927  0.70468  1.0000
  H   H2642     1.0  0.38326  0.85499  0.71120  1.0000
  H   H2643     1.0  0.62207  0.83147  0.65318  1.0000
  C   C1510     1.0  0.36612  0.83228  0.73147  1.0000
  H   H2644     1.0  0.58619  0.90674  0.54876  1.0000
  C   C1511     1.0  0.57854  0.90563  0.70598  1.0000
  N   N83       1.0  0.60565  0.89087  0.66335  1.0000
  H   H2645     1.0  0.57040  0.88713  0.62204  1.0000
  H   H2646     1.0  0.46996  0.96371  0.60893  1.0000
  C   C1512     1.0  0.59823  0.90095  0.62667  1.0000
  H   H2647     1.0  0.36909  0.83637  0.76242  1.0000
  C   C1513     1.0  0.32651  0.76360  0.71095  1.0000
  C   C1514     1.0  0.50027  0.98642  0.62763  1.0000
  H   H2648     1.0  0.51698  0.99548  0.77466  1.0000
  S   S329      1.0  0.60565  0.92490  0.96651  1.0000
  H   H2649     1.0  0.42901  0.86114  0.62065  1.0000
  C   C1515     1.0  0.58250  0.89055  0.60308  1.0000
  C   C1516     1.0  0.54953  0.00293  0.55573  1.0000
  C   C1517     1.0  0.52928  0.93373  0.56123  1.0000
  H   H2650     1.0  0.41985  0.98983  0.77814  1.0000
  H   H2651     1.0  0.51774  0.96389  0.91269  1.0000
  H   H2652     1.0  0.39062  0.80591  0.67205  1.0000
  H   H2653     1.0  0.57250  0.91397  0.68080  1.0000
  C   C1518     1.0  0.52735  0.99312  0.89751  1.0000
  H   H2654     1.0  0.41598  0.93488  0.89330  1.0000
  H   H2655     1.0  0.39053  0.80072  0.72256  1.0000
  H   H2656     1.0  0.32801  0.79519  0.65000  1.0000
  H   H2657     1.0  0.63129  0.99972  0.52938  1.0000
  C   C1519     1.0  0.56192  0.89983  0.73123  1.0000
  H   H2658     1.0  0.40830  0.83353  0.64740  1.0000
  H   H2659     1.0  0.42179  0.98216  0.53568  1.0000
  H   H2660     1.0  0.36418  0.81645  0.72953  1.0000
  H   H2661     1.0  0.54143  0.99247  0.91269  1.0000
  C   C1520     1.0  0.41602  0.85969  0.67840  1.0000
  H   H2662     1.0  0.59623  0.88093  0.71988  1.0000
  H   H2663     1.0  0.42884  0.80066  0.71629  1.0000
  C   C1521     1.0  0.40640  0.81809  0.78169  1.0000
  H   H2664     1.0  0.56603  0.95888  0.61007  1.0000
  H   H2665     1.0  0.39114  0.81746  0.78783  1.0000
  H   H2666     1.0  0.46753  0.98108  0.89417  1.0000
  C   C1522     1.0  0.42867  0.99167  0.55646  1.0000
  H   H2667     1.0  0.46233  0.96893  0.84854  1.0000
  H   H2668     1.0  0.39835  0.97394  0.99605  1.0000
  C   C1523     1.0  0.50862  0.98492  0.79094  1.0000
  N   N84       1.0  0.61839  0.98134  0.57273  1.0000
  H   H2669     1.0  0.43235  0.82216  0.81594  1.0000
  H   H2670     1.0  0.49974  0.98574  0.56339  1.0000
  H   H2671     1.0  0.61977  0.76937  0.80572  1.0000
  H   H2672     1.0  0.55847  0.99079  0.54418  1.0000
  C   C1524     1.0  0.62503  0.86352  0.01454  1.0000
  H   H2673     1.0  0.58751  0.91509  0.72444  1.0000
  H   H2674     1.0  0.41264  0.81367  0.84372  1.0000
  H   H2675     1.0  0.59251  0.91565  0.63339  1.0000
  H   H2676     1.0  0.56493  0.97493  0.81309  1.0000
  H   H2677     1.0  0.48351  0.83454  0.94835  1.0000
  H   H2678     1.0  0.44575  0.86010  0.66158  1.0000
  H   H2679     1.0  0.48331  0.90631  0.98773  1.0000
  H   H2680     1.0  0.62936  0.95229  0.58536  1.0000
  H   H2681     1.0  0.49947  0.98273  0.91329  1.0000
  H   H2682     1.0  0.38506  0.97655  0.93076  1.0000
  H   H2683     1.0  0.47523  0.84235  0.99615  1.0000
  H   H2684     1.0  0.47769  0.95733  0.88444  1.0000
  C   C1525     1.0  0.43176  0.86602  0.65129  1.0000
  H   H2685     1.0  0.37845  0.81795  0.97480  1.0000
  H   H2686     1.0  0.63598  0.86749  0.69743  1.0000
  C   C1526     1.0  0.48953  0.98525  0.58764  1.0000
  S   S330      1.0  0.46487  0.98631  0.97892  1.0000
  H   H2687     1.0  0.35641  0.79589  0.60196  1.0000
  C   C1527     1.0  0.59281  0.99189  0.99526  1.0000
  H   H2688     1.0  0.40407  0.99254  0.93687  1.0000
  C   C1528     1.0  0.41749  0.95726  0.95762  1.0000
  C   C1529     1.0  0.61711  0.99485  0.53794  1.0000
  C   C1530     1.0  0.48822  0.98698  0.77560  1.0000
  H   H2689     1.0  0.48917  0.95392  0.57982  1.0000
  H   H2690     1.0  0.38585  0.93305  0.92851  1.0000
  H   H2691     1.0  0.57602  0.94873  0.65478  1.0000
  C   C1531     1.0  0.49715  0.93042  0.96306  1.0000
  C   C1532     1.0  0.53843  0.99608  0.59103  1.0000
  C   C1533     1.0  0.39853  0.98087  0.91735  1.0000
  C   C1534     1.0  0.34715  0.84198  0.71972  1.0000
  C   C1535     1.0  0.60726  0.99903  0.79307  1.0000
  N   N85       1.0  0.46313  0.89062  0.92271  1.0000
  C   C1536     1.0  0.45949  0.88564  0.88003  1.0000
  C   C1537     1.0  0.44514  0.89830  0.94162  1.0000
  C   C1538     1.0  0.47747  0.90654  0.92375  1.0000
  C   C1539     1.0  0.47150  0.87361  0.94541  1.0000
  C   C1540     1.0  0.45955  0.85520  0.94656  1.0000
  C   C1541     1.0  0.47659  0.87687  0.85731  1.0000
  C   C1542     1.0  0.48042  0.91684  0.96400  1.0000
  H   H2692     1.0  0.42693  0.87347  0.92515  1.0000
  C   C1543     1.0  0.32786  0.78175  0.52719  1.0000
  C   C1544     1.0  0.47076  0.83839  0.96576  1.0000
  C   C1545     1.0  0.47138  0.87373  0.81405  1.0000
  H   H2693     1.0  0.34905  0.80497  0.53476  1.0000
  H   H2694     1.0  0.45420  0.89884  0.86396  1.0000
  H   H2695     1.0  0.44812  0.87499  0.87657  1.0000
  H   H2696     1.0  0.63246  0.83112  0.83350  1.0000
  H   H2697     1.0  0.64380  0.84397  0.64449  1.0000
  H   H2698     1.0  0.47351  0.91807  0.90201  1.0000
  H   H2699     1.0  0.49165  0.90075  0.91495  1.0000
  H   H2700     1.0  0.48584  0.86956  0.93438  1.0000
  H   H2701     1.0  0.47394  0.87761  0.97665  1.0000
  H   H2702     1.0  0.45515  0.85047  0.91673  1.0000
  H   H2703     1.0  0.38832  0.95197  0.97821  1.0000
  H   H2704     1.0  0.48887  0.88648  0.85831  1.0000
  H   H2705     1.0  0.48108  0.86259  0.86975  1.0000
  C   C1546     1.0  0.44196  0.99726  0.62169  1.0000
  H   H2706     1.0  0.38806  0.97949  0.85594  1.0000
  C   C1547     1.0  0.47901  0.96628  0.58316  1.0000
  H   H2707     1.0  0.61975  0.78086  0.87443  1.0000
  H   H2708     1.0  0.45214  0.95292  0.92920  1.0000
  H   H2709     1.0  0.36842  0.77295  0.65138  1.0000
  H   H2710     1.0  0.54893  0.99424  0.61524  1.0000
  H   H2711     1.0  0.37950  0.75531  0.73845  1.0000
  H   H2712     1.0  0.45960  0.86346  0.81099  1.0000
  H   H2713     1.0  0.46709  0.88774  0.80012  1.0000
  H   H2714     1.0  0.48388  0.86768  0.79825  1.0000
  H   H2715     1.0  0.41150  0.80326  0.77398  1.0000
  H   H2716     1.0  0.62302  0.82223  0.97831  1.0000
  C   C1548     1.0  0.60777  0.99306  0.83244  1.0000
  H   H2717     1.0  0.61758  0.80062  0.84008  1.0000
  S   S331      1.0  0.35766  0.77503  0.93337  1.0000
  H   H2718     1.0  0.34796  0.85802  0.72133  1.0000
  C   C1549     1.0  0.38611  0.93975  0.89907  1.0000
  H   H2719     1.0  0.61439  0.85513  0.70696  1.0000
  Fe  Fe162     1.0  0.34508  0.79877  0.89472  1.0000
  S   S332      1.0  0.34158  0.82939  0.91644  1.0000
  H   H2720     1.0  0.60240  0.86186  0.63946  1.0000
  C   C1550     1.0  0.44796  0.95721  0.89886  1.0000
  C   C1551     1.0  0.59018  0.88753  0.69251  1.0000
  C   C1552     1.0  0.60485  0.97369  0.84221  1.0000
  H   H2721     1.0  0.38060  0.76888  0.86544  1.0000
  H   H2722     1.0  0.54540  0.99647  0.73683  1.0000
  C   C1553     1.0  0.63310  0.84059  0.66687  1.0000
  C   C1554     1.0  0.54911  0.98769  0.71060  1.0000
  H   H2723     1.0  0.56815  0.99752  0.86151  1.0000
  H   H2724     1.0  0.55392  0.91301  0.74107  1.0000
  H   H2725     1.0  0.40588  0.84745  0.75941  1.0000
  H   H2726     1.0  0.59994  0.84455  0.84488  1.0000
  H   H2727     1.0  0.53663  0.97618  0.65874  1.0000
  H   H2728     1.0  0.40622  0.95167  0.85912  1.0000
  C   C1555     1.0  0.31443  0.79791  0.63381  1.0000
  H   H2729     1.0  0.51018  0.97378  0.62778  1.0000
  C   C1556     1.0  0.63453  0.93443  0.70584  1.0000
  H   H2730     1.0  0.61261  0.82014  0.89370  1.0000
  C   C1557     1.0  0.41678  0.82351  0.81973  1.0000
  H   H2731     1.0  0.51343  0.96988  0.78383  1.0000
  C   C1558     1.0  0.60408  0.98564  0.76299  1.0000
  S   S333      1.0  0.63595  0.87792  0.94294  1.0000
  H   H2732     1.0  0.49387  0.94275  0.94304  1.0000
  H   H2733     1.0  0.64034  0.83211  0.69069  1.0000
  H   H2734     1.0  0.54384  0.97202  0.78513  1.0000
  C   C1559     1.0  0.62831  0.96265  0.56040  1.0000
  H   H2735     1.0  0.63154  0.93116  0.73706  1.0000
  C   C1560     1.0  0.33731  0.80082  0.51493  1.0000
  N   N86       1.0  0.41266  0.96406  0.91625  1.0000
  H   H2736     1.0  0.62326  0.89845  0.71365  1.0000
  C   C1561     1.0  0.40598  0.94755  0.89075  1.0000
  C   C1562     1.0  0.60192  0.96604  0.77254  1.0000
  H   H2737     1.0  0.40570  0.99756  0.86453  1.0000
  H   H2738     1.0  0.43491  0.98488  0.91413  1.0000
  H   H2739     1.0  0.57440  0.97460  0.64884  1.0000
  H   H2740     1.0  0.31171  0.76593  0.70324  1.0000
  H   H2741     1.0  0.49011  0.98348  0.65155  1.0000
  C   C1563     1.0  0.43057  0.97144  0.89854  1.0000
  C   C1564     1.0  0.34011  0.76939  0.59153  1.0000
  H   H2742     1.0  0.38702  0.77855  0.61791  1.0000
  H   H2743     1.0  0.42819  0.97549  0.86726  1.0000
  H   H2744     1.0  0.44509  0.94391  0.88161  1.0000
  H   H2745     1.0  0.60601  0.93074  0.68581  1.0000
  H   H2746     1.0  0.46980  0.96694  0.55643  1.0000
  Fe  Fe163     1.0  0.31443  0.82981  0.88104  1.0000
  H   H2747     1.0  0.49768  0.89854  0.54060  1.0000
  S   S334      1.0  0.31685  0.79845  0.86395  1.0000
  H   H2748     1.0  0.46766  0.92560  0.97208  1.0000
  H   H2749     1.0  0.56349  0.89572  0.55315  1.0000
  C   C1565     1.0  0.63983  0.86619  0.98841  1.0000
  H   H2750     1.0  0.31688  0.77153  0.92696  1.0000
  H   H2751     1.0  0.54410  0.89081  0.99335  1.0000
  H   H2752     1.0  0.33663  0.76921  0.51622  1.0000
  H   H2753     1.0  0.42847  0.76603  0.69544  1.0000
  H   H2754     1.0  0.62342  0.92903  0.64803  1.0000
  H   H2755     1.0  0.39124  0.91150  0.87129  1.0000
  C   C1566     1.0  0.51971  0.91967  0.53962  1.0000
  C   C1567     1.0  0.62153  0.90226  0.68197  1.0000
  C   C1568     1.0  0.40158  0.95850  0.98863  1.0000
  H   H2756     1.0  0.49992  0.93626  0.99298  1.0000
  H   H2757     1.0  0.44636  0.89702  0.97426  1.0000
  H   H2758     1.0  0.53227  0.98194  0.58353  1.0000
  H   H2759     1.0  0.42898  0.96614  0.97065  1.0000
  C   C1569     1.0  0.41011  0.89455  0.95606  1.0000
  H   H2760     1.0  0.44156  0.98708  0.80643  1.0000
  H   H2761     1.0  0.41089  0.77133  0.73198  1.0000
  H   H2762     1.0  0.53179  0.97718  0.97345  1.0000
  H   H2763     1.0  0.61980  0.95540  0.53703  1.0000
  H   H2764     1.0  0.33626  0.76585  0.62220  1.0000
  H   H2765     1.0  0.47913  0.97624  0.78975  1.0000
  H   H2766     1.0  0.46175  0.82548  0.96730  1.0000
  C   C1570     1.0  0.62985  0.83987  0.86034  1.0000
  H   H2767     1.0  0.39296  0.76719  0.81973  1.0000
  C   C1571     1.0  0.62668  0.82695  0.89675  1.0000
  H   H2768     1.0  0.37675  0.78664  0.00876  1.0000
  H   H2769     1.0  0.63536  0.89816  0.66825  1.0000
  C   C1572     1.0  0.37848  0.81763  0.00746  1.0000
  H   H2770     1.0  0.61541  0.86284  0.82707  1.0000
  H   H2771     1.0  0.61769  0.99763  0.62770  1.0000
  C   C1573     1.0  0.63278  0.77550  0.81895  1.0000
  H   H2772     1.0  0.62145  0.96304  0.00696  1.0000
  C   C1574     1.0  0.37325  0.77131  0.62064  1.0000
  C   C1575     1.0  0.62743  0.78934  0.85242  1.0000
  C   C1576     1.0  0.63514  0.89571  0.54153  1.0000
  H   H2773     1.0  0.41298  0.88782  0.98525  1.0000
  C   C1577     1.0  0.63401  0.81046  0.97974  1.0000
  H   H2774     1.0  0.56172  0.97212  0.00792  1.0000
  H   H2775     1.0  0.32653  0.81289  0.51489  1.0000
  H   H2776     1.0  0.54271  0.00363  0.80539  1.0000
  H   H2777     1.0  0.51410  0.87413  0.00629  1.0000
  H   H2778     1.0  0.36477  0.99996  0.89379  1.0000
  H   H2779     1.0  0.61105  0.86952  0.00785  1.0000
  C   C1578     1.0  0.36469  0.75759  0.73091  1.0000
  H   H2780     1.0  0.63349  0.95043  0.70198  1.0000
  H   H2781     1.0  0.50180  0.00193  0.84292  1.0000
  H   H2782     1.0  0.63691  0.90607  0.56507  1.0000
  H   H2783     1.0  0.37545  0.75563  0.61387  1.0000
  H   H2784     1.0  0.51441  0.99703  0.97338  1.0000
  H   H2785     1.0  0.31590  0.79136  0.00542  1.0000
  H   H2786     1.0  0.64036  0.78329  0.79565  1.0000
  H   H2787     1.0  0.48245  0.00182  0.78120  1.0000
  H   H2788     1.0  0.31481  0.75555  0.79694  1.0000
  N   N87       1.0  0.64199  0.81184  0.90553  1.0000
  H   H2789     1.0  0.64216  0.84929  0.86554  1.0000
  H   H2790     1.0  0.64189  0.76326  0.83014  1.0000
  H   H2791     1.0  0.34376  0.75513  0.57787  1.0000
  H   H2792     1.0  0.61021  0.00358  0.85544  1.0000
  C   C1579     1.0  0.89067  0.12390  0.13789  1.0000
  H   H2793     1.0  0.69552  0.16156  0.16964  1.0000
  H   H2794     1.0  0.79601  0.14292  0.28127  1.0000
  Fe  Fe164     1.0  0.69945  0.19785  0.11425  1.0000
  H   H2795     1.0  0.73620  0.23733  0.20392  1.0000
  S   S335      1.0  0.70240  0.20695  0.17745  1.0000
  Fe  Fe165     1.0  0.68522  0.16589  0.06157  1.0000
  H   H2796     1.0  0.73983  0.22761  0.48994  1.0000
  H   H2797     1.0  0.72506  0.16054  0.39307  1.0000
  C   C1580     1.0  0.91967  0.09257  0.33105  1.0000
  S   S336      1.0  0.71271  0.16966  0.09461  1.0000
  H   H2798     1.0  0.73567  0.20707  0.34517  1.0000
  H   H2799     1.0  0.68906  0.23780  0.12496  1.0000
  C   C1581     1.0  0.68529  0.22549  0.45434  1.0000
  Fe  Fe166     1.0  0.94060  0.07094  0.19529  1.0000
  S   S337      1.0  0.94800  0.04310  0.22635  1.0000
  S   S338      1.0  0.91026  0.08205  0.19938  1.0000
  C   C1582     1.0  0.78898  0.17326  0.46807  1.0000
  Fe  Fe167     1.0  0.96486  0.03510  0.17328  1.0000
  H   H2800     1.0  0.89043  0.19047  0.05518  1.0000
  H   H2801     1.0  0.66444  0.15075  0.19430  1.0000
  S   S339      1.0  0.95498  0.06142  0.13955  1.0000
  Fe  Fe168     1.0  0.83549  0.19838  0.30736  1.0000
  S   S340      1.0  0.86527  0.20109  0.33008  1.0000
  S   S341      1.0  0.81863  0.21894  0.26775  1.0000
  Fe  Fe169     1.0  0.82888  0.16246  0.35587  1.0000
  S   S342      1.0  0.85817  0.16178  0.38247  1.0000
  S   S343      1.0  0.80529  0.14271  0.37192  1.0000
  Fe  Fe170     1.0  0.85376  0.19394  0.38905  1.0000
  S   S344      1.0  0.86432  0.20889  0.44388  1.0000
  Fe  Fe171     1.0  0.86771  0.16876  0.32155  1.0000
  S   S345      1.0  0.89627  0.15890  0.29828  1.0000
  S   S346      1.0  0.82373  0.19402  0.36720  1.0000
  S   S347      1.0  0.83870  0.16657  0.29374  1.0000
  C   C1583     1.0  0.90625  0.10354  0.22645  1.0000
  C   C1584     1.0  0.92029  0.11736  0.23003  1.0000
  C   C1585     1.0  0.91683  0.13442  0.25161  1.0000
  C   C1586     1.0  0.89940  0.13773  0.27000  1.0000
  C   C1587     1.0  0.88518  0.12415  0.26585  1.0000
  C   C1588     1.0  0.88859  0.10712  0.24390  1.0000
  H   H2802     1.0  0.93372  0.11501  0.21576  1.0000
  H   H2803     1.0  0.92773  0.14508  0.25418  1.0000
  H   H2804     1.0  0.87166  0.12665  0.27983  1.0000
  H   H2805     1.0  0.87761  0.09654  0.24086  1.0000
  H   H2806     1.0  0.96147  0.14175  0.27177  1.0000
  H   H2807     1.0  0.83412  0.20854  0.03226  1.0000
  H   H2808     1.0  0.79596  0.17566  0.30937  1.0000
  C   C1589     1.0  0.83486  0.23513  0.43479  1.0000
  C   C1590     1.0  0.76278  0.15315  0.44929  1.0000
  C   C1591     1.0  0.77354  0.14552  0.41797  1.0000
  C   C1592     1.0  0.79196  0.15191  0.41157  1.0000
  C   C1593     1.0  0.79963  0.16574  0.43683  1.0000
  C   C1594     1.0  0.70378  0.21853  0.44879  1.0000
  H   H2809     1.0  0.78522  0.25195  0.32329  1.0000
  H   H2810     1.0  0.76757  0.13474  0.39863  1.0000
  H   H2811     1.0  0.81398  0.17036  0.43291  1.0000
  H   H2812     1.0  0.79101  0.21021  0.42019  1.0000
  H   H2813     1.0  0.66338  0.24556  0.43399  1.0000
  C   C1595     1.0  0.96021  0.11620  0.30920  1.0000
  H   H2814     1.0  0.89650  0.14459  0.43196  1.0000
  C   C1596     1.0  0.69672  0.23883  0.22377  1.0000
  H   H2815     1.0  0.87754  0.24664  0.22178  1.0000
  H   H2816     1.0  0.93470  0.15288  0.39365  1.0000
  C   C1597     1.0  0.77056  0.16702  0.47443  1.0000
  H   H2817     1.0  0.78028  0.19140  0.35978  1.0000
  C   C1598     1.0  0.70787  0.24196  0.39677  1.0000
  C   C1599     1.0  0.82432  0.25183  0.44462  1.0000
  H   H2818     1.0  0.92263  0.20590  0.24922  1.0000
  H   H2819     1.0  0.88406  0.24210  0.33911  1.0000
  C   C1600     1.0  0.85100  0.22978  0.45669  1.0000
  H   H2820     1.0  0.88870  0.15059  0.10637  1.0000
  H   H2821     1.0  0.88913  0.11544  0.11027  1.0000
  N   N88       1.0  0.66132  0.17057  0.26383  1.0000
  H   H2822     1.0  0.93191  0.14108  0.44039  1.0000
  H   H2823     1.0  0.80743  0.24867  0.21264  1.0000
  H   H2824     1.0  0.91279  0.12581  0.36523  1.0000
  C   C1601     1.0  0.67785  0.24041  0.43032  1.0000
  C   C1602     1.0  0.83199  0.23488  0.23983  1.0000
  C   C1603     1.0  0.85176  0.23433  0.24226  1.0000
  H   H2825     1.0  0.68650  0.17669  0.23057  1.0000
  H   H2826     1.0  0.79303  0.16073  0.24290  1.0000
  S   S348      1.0  0.70102  0.16582  0.49471  1.0000
  H   H2827     1.0  0.85903  0.22412  0.26153  1.0000
  H   H2828     1.0  0.75054  0.23092  0.30903  1.0000
  C   C1604     1.0  0.82483  0.17978  0.02139  1.0000
  C   C1605     1.0  0.74581  0.21868  0.25183  1.0000
  C   C1606     1.0  0.75784  0.21988  0.29034  1.0000
  C   C1607     1.0  0.68245  0.21202  0.32922  1.0000
  H   H2829     1.0  0.65680  0.10067  0.09004  1.0000
  H   H2830     1.0  0.75849  0.24401  0.22595  1.0000
  Fe  Fe172     1.0  0.68428  0.20753  0.03265  1.0000
  H   H2831     1.0  0.83062  0.22658  0.40995  1.0000
  H   H2832     1.0  0.77597  0.16255  0.32551  1.0000
  C   C1608     1.0  0.69579  0.23135  0.18557  1.0000
  H   H2833     1.0  0.77168  0.22611  0.28233  1.0000
  H   H2834     1.0  0.83041  0.17398  0.04978  1.0000
  H   H2835     1.0  0.86580  0.17158  0.08839  1.0000
  H   H2836     1.0  0.74565  0.16352  0.33601  1.0000
  H   H2837     1.0  0.75736  0.17962  0.26644  1.0000
  H   H2838     1.0  0.74861  0.14818  0.45423  1.0000
  N   N89       1.0  0.94125  0.11387  0.37436  1.0000
  C   C1609     1.0  0.93656  0.09371  0.36050  1.0000
  C   C1610     1.0  0.88145  0.18695  0.20707  1.0000
  S   S349      1.0  0.96548  0.08672  0.21992  1.0000
  Fe  Fe173     1.0  0.72200  0.18609  0.04181  1.0000
  H   H2839     1.0  0.75223  0.20845  0.23029  1.0000
  H   H2840     1.0  0.64767  0.14314  0.25383  1.0000
  H   H2841     1.0  0.71254  0.17239  0.35290  1.0000
  H   H2842     1.0  0.83328  0.22044  0.09946  1.0000
  H   H2843     1.0  0.87463  0.20165  0.20851  1.0000
  H   H2844     1.0  0.64708  0.21284  0.15607  1.0000
  C   C1611     1.0  0.66607  0.18304  0.29905  1.0000
  C   C1612     1.0  0.95524  0.11224  0.40830  1.0000
  H   H2845     1.0  0.93307  0.08444  0.38603  1.0000
  H   H2846     1.0  0.79513  0.18388  0.48755  1.0000
  H   H2847     1.0  0.95228  0.02596  0.08810  1.0000
  H   H2848     1.0  0.90088  0.20014  0.27297  1.0000
  C   C1613     1.0  0.78717  0.23252  0.02388  1.0000
  H   H2849     1.0  0.66980  0.21576  0.34706  1.0000
  H   H2850     1.0  0.90600  0.12452  0.14553  1.0000
  C   C1614     1.0  0.87645  0.19723  0.06246  1.0000
  H   H2851     1.0  0.77809  0.19354  0.26143  1.0000
  C   C1615     1.0  0.97124  0.13068  0.28520  1.0000
  H   H2852     1.0  0.90607  0.09387  0.34703  1.0000
  C   C1616     1.0  0.74306  0.17659  0.35444  1.0000
  C   C1617     1.0  0.95358  0.01085  0.07982  1.0000
  H   H2853     1.0  0.81235  0.20120  0.18190  1.0000
  C   C1618     1.0  0.80527  0.20612  0.05584  1.0000
  C   C1619     1.0  0.76911  0.18630  0.28348  1.0000
  H   H2854     1.0  0.73233  0.19188  0.30399  1.0000
  S   S350      1.0  0.72274  0.25191  0.36183  1.0000
  H   H2855     1.0  0.66731  0.21234  0.27464  1.0000
  C   C1620     1.0  0.68916  0.24867  0.40147  1.0000
  H   H2856     1.0  0.90111  0.21927  0.23673  1.0000
  S   S351      1.0  0.67135  0.19319  0.08472  1.0000
  H   H2857     1.0  0.67645  0.13378  0.22639  1.0000
  H   H2858     1.0  0.90707  0.07249  0.28963  1.0000
  S   S352      1.0  0.67118  0.13662  0.06231  1.0000
  H   H2859     1.0  0.68998  0.15855  0.26637  1.0000
  H   H2860     1.0  0.95882  0.12685  0.41960  1.0000
  N   N90       1.0  0.79905  0.22717  0.05963  1.0000
  H   H2861     1.0  0.68972  0.22566  0.32236  1.0000
  C   C1621     1.0  0.78801  0.22974  0.09695  1.0000
  C   C1622     1.0  0.71499  0.22674  0.42008  1.0000
  C   C1623     1.0  0.81583  0.24020  0.06152  1.0000
  C   C1624     1.0  0.83010  0.23607  0.09573  1.0000
  H   H2862     1.0  0.73652  0.24891  0.25130  1.0000
  C   C1625     1.0  0.76906  0.21891  0.09846  1.0000
  C   C1626     1.0  0.75879  0.22315  0.13685  1.0000
  H   H2863     1.0  0.73127  0.21399  0.25790  1.0000
  C   C1627     1.0  0.90709  0.20475  0.24481  1.0000
  H   H2864     1.0  0.76257  0.23254  0.36704  1.0000
  H   H2865     1.0  0.81061  0.20029  0.08440  1.0000
  C   C1628     1.0  0.74423  0.23849  0.23206  1.0000
  H   H2866     1.0  0.78511  0.24538  0.10296  1.0000
  C   C1629     1.0  0.87622  0.25195  0.35941  1.0000
  H   H2867     1.0  0.91037  0.17616  0.22092  1.0000
  H   H2868     1.0  0.94235  0.01545  0.02116  1.0000
  C   C1630     1.0  0.85664  0.24135  0.48854  1.0000
  C   C1631     1.0  0.67950  0.16422  0.24414  1.0000
  H   H2869     1.0  0.66626  0.20353  0.21364  1.0000
  C   C1632     1.0  0.64992  0.11225  0.10644  1.0000
  H   H2870     1.0  0.87032  0.24306  0.38324  1.0000
  H   H2871     1.0  0.75931  0.22332  0.07410  1.0000
  H   H2872     1.0  0.77168  0.20299  0.09665  1.0000
  H   H2873     1.0  0.74544  0.21496  0.13745  1.0000
  H   H2874     1.0  0.76775  0.21860  0.16247  1.0000
  H   H2875     1.0  0.77971  0.23345  0.42970  1.0000
  H   H2876     1.0  0.89521  0.18598  0.12676  1.0000
  C   C1633     1.0  0.92325  0.12335  0.38973  1.0000
  H   H2877     1.0  0.75417  0.17730  0.37765  1.0000
  S   S353      1.0  0.67175  0.21577  0.49186  1.0000
  C   C1634     1.0  0.82060  0.20157  0.02454  1.0000
  C   C1635     1.0  0.90306  0.18999  0.21232  1.0000
  H   H2878     1.0  0.70959  0.20693  0.46691  1.0000
  H   H2879     1.0  0.88234  0.14869  0.19572  1.0000
  H   H2880     1.0  0.69235  0.20268  0.34687  1.0000
  H   H2881     1.0  0.85169  0.16253  0.19676  1.0000
  H   H2882     1.0  0.67148  0.01728  0.31112  1.0000
  H   H2883     1.0  0.75789  0.21137  0.39579  1.0000
  H   H2884     1.0  0.84357  0.19537  0.21371  1.0000
  C   C1636     1.0  0.94878  0.12651  0.34216  1.0000
  C   C1637     1.0  0.92555  0.14323  0.41062  1.0000
  H   H2885     1.0  0.68984  0.19913  0.27422  1.0000
  H   H2886     1.0  0.93701  0.13464  0.32675  1.0000
  C   C1638     1.0  0.73778  0.24189  0.50467  1.0000
  H   H2887     1.0  0.75510  0.23885  0.13930  1.0000
  H   H2888     1.0  0.70078  0.22951  0.24802  1.0000
  H   H2889     1.0  0.85874  0.24273  0.11406  1.0000
  C   C1639     1.0  0.94797  0.00489  0.04199  1.0000
  H   H2890     1.0  0.79664  0.22452  0.12263  1.0000
  H   H2891     1.0  0.69222  0.13603  0.16214  1.0000
  C   C1640     1.0  0.90645  0.15378  0.41584  1.0000
  C   C1641     1.0  0.65595  0.19305  0.20250  1.0000
  H   H2892     1.0  0.95044  0.10863  0.28890  1.0000
  H   H2893     1.0  0.77292  0.14724  0.25933  1.0000
  C   C1642     1.0  0.91992  0.07332  0.30871  1.0000
  H   H2894     1.0  0.72093  0.18635  0.39460  1.0000
  H   H2895     1.0  0.92012  0.06090  0.32942  1.0000
  H   H2896     1.0  0.94869  0.10452  0.43324  1.0000
  H   H2897     1.0  0.90019  0.15765  0.38672  1.0000
  H   H2898     1.0  0.90942  0.19527  0.18490  1.0000
  H   H2899     1.0  0.93256  0.07219  0.28968  1.0000
  C   C1643     1.0  0.78495  0.22356  0.40618  1.0000
  S   S354      1.0  0.71107  0.21472  0.06472  1.0000
  H   H2900     1.0  0.87941  0.20462  0.14268  1.0000
  H   H2901     1.0  0.82348  0.23968  0.03325  1.0000
  C   C1644     1.0  0.67670  0.20194  0.29094  1.0000
  H   H2902     1.0  0.87834  0.21281  0.06933  1.0000
  H   H2903     1.0  0.95773  0.13801  0.35513  1.0000
  C   C1645     1.0  0.67743  0.14823  0.21229  1.0000
  H   H2904     1.0  0.87660  0.17910  0.23355  1.0000
  H   H2905     1.0  0.85345  0.19334  0.10180  1.0000
  H   H2906     1.0  0.91988  0.10450  0.30948  1.0000
  H   H2907     1.0  0.72936  0.22149  0.41659  1.0000
  H   H2908     1.0  0.88325  0.11614  0.16141  1.0000
  C   C1646     1.0  0.69431  0.14745  0.18481  1.0000
  C   C1647     1.0  0.86224  0.24704  0.21963  1.0000
  Fe  Fe174     1.0  0.97386  0.05823  0.24750  1.0000
  C   C1648     1.0  0.69023  0.24356  0.15443  1.0000
  C   C1649     1.0  0.86774  0.18682  0.09716  1.0000
  N   N91       1.0  0.87527  0.17660  0.16996  1.0000
  N   N92       1.0  0.76120  0.20107  0.31237  1.0000
  C   C1650     1.0  0.74247  0.19493  0.32835  1.0000
  H   H2909     1.0  0.70763  0.14411  0.20145  1.0000
  H   H2910     1.0  0.84860  0.16641  0.14594  1.0000
  H   H2911     1.0  0.86665  0.14250  0.12643  1.0000
  C   C1651     1.0  0.88196  0.14424  0.13246  1.0000
  H   H2912     1.0  0.90839  0.16741  0.43272  1.0000
  H   H2913     1.0  0.94896  0.08620  0.34706  1.0000
  C   C1652     1.0  0.82079  0.18779  0.17529  1.0000
  H   H2914     1.0  0.78851  0.21095  0.33187  1.0000
  C   C1653     1.0  0.78621  0.15425  0.26877  1.0000
  S   S355      1.0  0.75235  0.18799  0.02269  1.0000
  C   C1654     1.0  0.85430  0.17322  0.17300  1.0000
  H   H2915     1.0  0.84583  0.20410  0.16436  1.0000
  H   H2916     1.0  0.81802  0.18353  0.14432  1.0000
  H   H2917     1.0  0.81611  0.17611  0.19504  1.0000
  H   H2918     1.0  0.79289  0.19703  0.04863  1.0000
  C   C1655     1.0  0.77548  0.20495  0.34476  1.0000
  H   H2919     1.0  0.91625  0.11356  0.41077  1.0000
  H   H2920     1.0  0.79620  0.23091  0.38990  1.0000
  C   C1656     1.0  0.72419  0.17389  0.37486  1.0000
  C   C1657     1.0  0.88565  0.15715  0.16893  1.0000
  C   C1658     1.0  0.84181  0.19147  0.18222  1.0000
  C   C1659     1.0  0.88018  0.18888  0.13495  1.0000
  H   H2921     1.0  0.90124  0.15893  0.16975  1.0000
  C   C1660     1.0  0.78214  0.16973  0.29996  1.0000
  H   H2922     1.0  0.86918  0.23728  0.50555  1.0000
  C   C1661     1.0  0.76867  0.21866  0.37823  1.0000
  H   H2923     1.0  0.82413  0.24165  0.12365  1.0000
  H   H2924     1.0  0.91218  0.01166  0.18759  1.0000
  H   H2925     1.0  0.86708  0.19614  0.03608  1.0000
  C   C1662     1.0  0.64750  0.18104  0.23624  1.0000
  H   H2926     1.0  0.67467  0.17438  0.32082  1.0000
  C   C1663     1.0  0.65470  0.13156  0.09931  1.0000
  H   H2927     1.0  0.64626  0.01990  0.30301  1.0000
  C   C1664     1.0  0.82273  0.24821  0.21463  1.0000
  H   H2928     1.0  0.66247  0.14359  0.29658  1.0000
  H   H2929     1.0  0.65296  0.18783  0.31445  1.0000
  H   H2930     1.0  0.66330  0.18346  0.18100  1.0000
  C   C1665     1.0  0.97458  0.10205  0.39981  1.0000
  S   S356      1.0  0.96856  0.00404  0.15386  1.0000
  H   H2931     1.0  0.85555  0.24039  0.06177  1.0000
  C   C1666     1.0  0.84887  0.24590  0.08907  1.0000
  C   C1667     1.0  0.65211  0.15253  0.27887  1.0000
  H   H2932     1.0  0.97042  0.10523  0.32082  1.0000
  H   H2933     1.0  0.66079  0.00718  0.26746  1.0000
  C   C1668     1.0  0.65876  0.00998  0.29930  1.0000
  H   H2934     1.0  0.77617  0.22156  0.01837  1.0000
  H   H2935     1.0  0.97290  0.08723  0.38784  1.0000
  H   H2936     1.0  0.64927  0.16133  0.11552  1.0000
  H   H2937     1.0  0.85083  0.25160  0.32468  1.0000
  C   C1669     1.0  0.64591  0.14641  0.12101  1.0000
  C   C1670     1.0  0.77705  0.25276  0.02472  1.0000
  H   H2938     1.0  0.97054  0.04320  0.01946  1.0000
  H   H2939     1.0  0.73698  0.25332  0.48171  1.0000
  H   H2940     1.0  0.64603  0.25256  0.49752  1.0000
  S   S357      1.0  0.97327  0.02646  0.82164  1.0000
  C   C1671     1.0  0.66837  0.10198  0.65284  1.0000
  H   H2941     1.0  0.68236  0.21662  0.77497  1.0000
  Fe  Fe175     1.0  0.70616  0.18182  0.60356  1.0000
  H   H2942     1.0  0.79414  0.16226  0.55906  1.0000
  S   S358      1.0  0.71280  0.19279  0.66425  1.0000
  Fe  Fe176     1.0  0.69135  0.15060  0.54946  1.0000
  C   C1672     1.0  0.85509  0.24227  0.97344  1.0000
  C   C1673     1.0  0.80773  0.24987  0.70047  1.0000
  H   H2943     1.0  0.92911  0.10710  0.80300  1.0000
  S   S359      1.0  0.71923  0.15397  0.58164  1.0000
  C   C1674     1.0  0.95739  0.11659  0.75834  1.0000
  Fe  Fe177     1.0  0.95436  0.04798  0.68224  1.0000
  H   H2944     1.0  0.67309  0.23296  0.81207  1.0000
  Fe  Fe178     1.0  0.91988  0.05105  0.73510  1.0000
  S   S360      1.0  0.92763  0.02262  0.76334  1.0000
  S   S361      1.0  0.89318  0.06397  0.76197  1.0000
  Fe  Fe179     1.0  0.95724  0.03292  0.76534  1.0000
  Fe  Fe180     1.0  0.93400  0.01161  0.70324  1.0000
  H   H2945     1.0  0.82944  0.20585  0.67536  1.0000
  S   S362      1.0  0.94929  0.06225  0.74105  1.0000
  S   S363      1.0  0.92395  0.03920  0.67393  1.0000
  Fe  Fe181     1.0  0.82056  0.20092  0.79503  1.0000
  S   S364      1.0  0.85109  0.20018  0.81420  1.0000
  S   S365      1.0  0.80491  0.21935  0.74995  1.0000
  Fe  Fe182     1.0  0.81081  0.16755  0.84808  1.0000
  S   S366      1.0  0.84072  0.16325  0.87070  1.0000
  S   S367      1.0  0.78536  0.15091  0.86673  1.0000
  Fe  Fe183     1.0  0.84017  0.19582  0.87524  1.0000
  S   S368      1.0  0.85342  0.20887  0.92995  1.0000
  Fe  Fe184     1.0  0.84936  0.16776  0.80804  1.0000
  S   S369      1.0  0.87382  0.15417  0.77392  1.0000
  S   S370      1.0  0.80975  0.19978  0.85643  1.0000
  S   S371      1.0  0.81939  0.16891  0.78493  1.0000
  C   C1675     1.0  0.88810  0.08909  0.76519  1.0000
  C   C1676     1.0  0.89958  0.10263  0.74747  1.0000
  C   C1677     1.0  0.89512  0.12255  0.75082  1.0000
  C   C1678     1.0  0.87914  0.12906  0.77175  1.0000
  C   C1679     1.0  0.86771  0.11553  0.78960  1.0000
  C   C1680     1.0  0.87215  0.09560  0.78617  1.0000
  H   H2946     1.0  0.91182  0.09773  0.73108  1.0000
  H   H2947     1.0  0.90407  0.13299  0.73717  1.0000
  H   H2948     1.0  0.85540  0.12041  0.80584  1.0000
  H   H2949     1.0  0.86321  0.08517  0.79994  1.0000
  H   H2950     1.0  0.95069  0.08331  0.93639  1.0000
  C   C1681     1.0  0.83606  0.24182  0.73825  1.0000
  C   C1682     1.0  0.65471  0.00975  0.63825  1.0000
  H   H2951     1.0  0.89322  0.13164  0.89957  1.0000
  C   C1683     1.0  0.77832  0.18269  0.96547  1.0000
  C   C1684     1.0  0.78609  0.17415  0.93187  1.0000
  C   C1685     1.0  0.77605  0.16034  0.91075  1.0000
  C   C1686     1.0  0.75835  0.15463  0.92429  1.0000
  C   C1687     1.0  0.75069  0.16300  0.95866  1.0000
  C   C1688     1.0  0.84985  0.18248  0.66247  1.0000
  H   H2952     1.0  0.79997  0.17822  0.92254  1.0000
  H   H2953     1.0  0.75058  0.14378  0.90822  1.0000
  H   H2954     1.0  0.78603  0.19370  0.98071  1.0000
  H   H2955     1.0  0.89788  0.00883  0.80868  1.0000
  C   C1689     1.0  0.77046  0.21644  0.62534  1.0000
  H   H2956     1.0  0.73243  0.22709  0.87056  1.0000
  H   H2957     1.0  0.87461  0.01165  0.82840  1.0000
  C   C1690     1.0  0.88957  0.11649  0.89202  1.0000
  H   H2958     1.0  0.81866  0.16640  0.54899  1.0000
  H   H2959     1.0  0.68855  0.11925  0.62217  1.0000
  C   C1691     1.0  0.68363  0.24040  0.96084  1.0000
  H   H2960     1.0  0.84319  0.15686  0.59963  1.0000
  C   C1692     1.0  0.67533  0.11173  0.62002  1.0000
  H   H2961     1.0  0.93476  0.03688  0.84398  1.0000
  H   H2962     1.0  0.78103  0.19000  0.59462  1.0000
  C   C1693     1.0  0.84418  0.23116  0.94749  1.0000
  H   H2963     1.0  0.92246  0.03349  0.88919  1.0000
  C   C1694     1.0  0.65938  0.14947  0.69986  1.0000
  H   H2964     1.0  0.82359  0.12008  0.66126  1.0000
  H   H2965     1.0  0.81739  0.22916  0.91726  1.0000
  H   H2966     1.0  0.81603  0.20683  0.99508  1.0000
  C   C1695     1.0  0.81323  0.15622  0.60846  1.0000
  Fe  Fe185     1.0  0.68882  0.19249  0.52375  1.0000
  C   C1696     1.0  0.81735  0.23793  0.72763  1.0000
  H   H2967     1.0  0.97082  0.11493  0.74199  1.0000
  H   H2968     1.0  0.95396  0.13232  0.76174  1.0000
  H   H2969     1.0  0.87371  0.15848  0.62395  1.0000
  C   C1697     1.0  0.76934  0.18178  0.64972  1.0000
  H   H2970     1.0  0.84357  0.23272  0.75934  1.0000
  H   H2971     1.0  0.70932  0.22676  0.98345  1.0000
  H   H2972     1.0  0.94027  0.12569  0.83023  1.0000
  C   C1698     1.0  0.95859  0.09613  0.92732  1.0000
  C   C1699     1.0  0.64715  0.19136  0.71299  1.0000
  H   H2973     1.0  0.82318  0.17115  0.68185  1.0000
  H   H2974     1.0  0.92238  0.06829  0.90275  1.0000
  H   H2975     1.0  0.91087  0.04656  0.84931  1.0000
  H   H2976     1.0  0.96298  0.09135  0.79380  1.0000
  H   H2977     1.0  0.90420  0.11638  0.83763  1.0000
  C   C1700     1.0  0.92466  0.04377  0.86472  1.0000
  C   C1701     1.0  0.70593  0.21726  0.66849  1.0000
  S   S372      1.0  0.67755  0.17719  0.57613  1.0000
  H   H2978     1.0  0.66250  0.21429  0.68447  1.0000
  H   H2979     1.0  0.84693  0.20122  0.71386  1.0000
  H   H2980     1.0  0.85897  0.12163  0.66217  1.0000
  H   H2981     1.0  0.75425  0.24425  0.98500  1.0000
  H   H2982     1.0  0.78119  0.22675  0.91587  1.0000
  H   H2983     1.0  0.88858  0.10787  0.91938  1.0000
  H   H2984     1.0  0.84311  0.16466  0.71099  1.0000
  H   H2985     1.0  0.79313  0.24712  0.69319  1.0000
  H   H2986     1.0  0.82778  0.22903  0.54510  1.0000
  C   C1702     1.0  0.85939  0.13777  0.66310  1.0000
  C   C1703     1.0  0.68819  0.24544  0.64434  1.0000
  H   H2987     1.0  0.83861  0.21378  0.58238  1.0000
  H   H2988     1.0  0.89418  0.00526  0.95429  1.0000
  H   H2989     1.0  0.96510  0.11325  0.87807  1.0000
  H   H2990     1.0  0.92282  0.09911  0.91264  1.0000
  H   H2991     1.0  0.94787  0.07102  0.83034  1.0000
  H   H2992     1.0  0.78815  0.25114  0.62726  1.0000
  H   H2993     1.0  0.87546  0.11683  0.87711  1.0000
  H   H2994     1.0  0.92357  0.07710  0.82693  1.0000
  H   H2995     1.0  0.92782  0.12189  0.89255  1.0000
  H   H2996     1.0  0.89967  0.09264  0.85690  1.0000
  H   H2997     1.0  0.96917  0.08802  0.86962  1.0000
  N   N93       1.0  0.77298  0.23046  0.59200  1.0000
  H   H2998     1.0  0.86910  0.23708  0.98232  1.0000
  H   H2999     1.0  0.82255  0.20353  0.54667  1.0000
  C   C1704     1.0  0.79036  0.22527  0.56837  1.0000
  C   C1705     1.0  0.80894  0.22114  0.59227  1.0000
  H   H3000     1.0  0.77846  0.23342  0.86494  1.0000
  S   S373      1.0  0.96951  0.06399  0.63441  1.0000
  C   C1706     1.0  0.77519  0.25055  0.60875  1.0000
  C   C1707     1.0  0.82543  0.21656  0.56485  1.0000
  H   H3001     1.0  0.69376  0.23933  0.78538  1.0000
  H   H3002     1.0  0.78189  0.21804  0.64796  1.0000
  H   H3003     1.0  0.67893  0.25209  0.62253  1.0000
  H   H3004     1.0  0.65380  0.18298  0.65272  1.0000
  C   C1708     1.0  0.82609  0.13321  0.67963  1.0000
  Fe  Fe186     1.0  0.72766  0.17165  0.52952  1.0000
  H   H3005     1.0  0.80758  0.20852  0.61199  1.0000
  C   C1709     1.0  0.76072  0.17713  0.97920  1.0000
  H   H3006     1.0  0.66014  0.18597  0.72853  1.0000
  H   H3007     1.0  0.83759  0.13754  0.73997  1.0000
  S   S374      1.0  0.69583  0.17985  0.00626  1.0000
  C   C1710     1.0  0.82605  0.23787  0.93640  1.0000
  H   H3008     1.0  0.80447  0.12692  0.74751  1.0000
  H   H3009     1.0  0.95182  0.10913  0.94123  1.0000
  H   H3010     1.0  0.81288  0.23383  0.61041  1.0000
  H   H3011     1.0  0.74381  0.24285  0.76273  1.0000
  C   C1711     1.0  0.80887  0.15672  0.56431  1.0000
  H   H3012     1.0  0.89855  0.14539  0.66921  1.0000
  H   H3013     1.0  0.65247  0.22101  0.73101  1.0000
  H   H3014     1.0  0.72083  0.22110  0.72325  1.0000
  N   N94       1.0  0.73153  0.19966  0.84010  1.0000
  C   C1712     1.0  0.74456  0.18557  0.81893  1.0000
  C   C1713     1.0  0.72294  0.18943  0.87430  1.0000
  C   C1714     1.0  0.71647  0.20703  0.81147  1.0000
  C   C1715     1.0  0.74219  0.21684  0.85537  1.0000
  C   C1716     1.0  0.75852  0.21224  0.88509  1.0000
  C   C1717     1.0  0.75753  0.19452  0.78777  1.0000
  C   C1718     1.0  0.69878  0.21718  0.82985  1.0000
  C   C1719     1.0  0.71119  0.17144  0.86351  1.0000
  C   C1720     1.0  0.70016  0.16449  0.89883  1.0000
  H   H3015     1.0  0.75569  0.19238  0.59718  1.0000
  C   C1721     1.0  0.76767  0.17871  0.76385  1.0000
  H   H3016     1.0  0.73616  0.17429  0.80366  1.0000
  H   H3017     1.0  0.75377  0.17728  0.84013  1.0000
  H   H3018     1.0  0.73421  0.18403  0.89486  1.0000
  H   H3019     1.0  0.71422  0.19976  0.89221  1.0000
  H   H3020     1.0  0.71133  0.19515  0.79217  1.0000
  H   H3021     1.0  0.72261  0.21762  0.79104  1.0000
  H   H3022     1.0  0.81173  0.17127  0.61977  1.0000
  C   C1722     1.0  0.68625  0.22706  0.79848  1.0000
  H   H3023     1.0  0.76792  0.20025  0.87473  1.0000
  H   H3024     1.0  0.75266  0.20811  0.91390  1.0000
  H   H3025     1.0  0.74928  0.20390  0.76696  1.0000
  H   H3026     1.0  0.76857  0.20336  0.80223  1.0000
  C   C1723     1.0  0.66534  0.11142  0.58429  1.0000
  H   H3027     1.0  0.84275  0.25162  0.82167  1.0000
  H   H3028     1.0  0.70091  0.17449  0.83928  1.0000
  H   H3029     1.0  0.72079  0.15932  0.85410  1.0000
  H   H3030     1.0  0.68997  0.17597  0.90886  1.0000
  H   H3031     1.0  0.69210  0.15144  0.89057  1.0000
  H   H3032     1.0  0.70999  0.16056  0.92346  1.0000
  H   H3033     1.0  0.67623  0.10212  0.68034  1.0000
  H   H3034     1.0  0.97155  0.01226  0.54744  1.0000
  H   H3035     1.0  0.75562  0.21548  0.54970  1.0000
  H   H3036     1.0  0.75729  0.17036  0.74630  1.0000
  H   H3037     1.0  0.77768  0.18544  0.74343  1.0000
  H   H3038     1.0  0.77583  0.16866  0.78359  1.0000
  N   N95       1.0  0.94003  0.09786  0.86000  1.0000
  C   C1724     1.0  0.92428  0.10674  0.88430  1.0000
  C   C1725     1.0  0.95878  0.09876  0.88204  1.0000
  C   C1726     1.0  0.94132  0.10991  0.82307  1.0000
  C   C1727     1.0  0.93595  0.07731  0.84761  1.0000
  C   C1728     1.0  0.93261  0.06263  0.88093  1.0000
  C   C1729     1.0  0.90432  0.10743  0.86460  1.0000
  C   C1730     1.0  0.95956  0.10688  0.79853  1.0000
  S   S375      1.0  0.71597  0.19964  0.55387  1.0000
  S   S376      1.0  0.67330  0.12399  0.54278  1.0000
  C   C1731     1.0  0.83822  0.16599  0.67991  1.0000
  H   H3039     1.0  0.84745  0.18410  0.63042  1.0000
  H   H3040     1.0  0.72996  0.24235  0.93550  1.0000
  C   C1732     1.0  0.69441  0.22612  0.63962  1.0000
  C   C1733     1.0  0.76916  0.19480  0.61347  1.0000
  H   H3041     1.0  0.83565  0.17706  0.99846  1.0000
  C   C1734     1.0  0.75585  0.22972  0.56512  1.0000
  H   H3042     1.0  0.82135  0.11058  0.77105  1.0000
  H   H3043     1.0  0.74253  0.23039  0.58224  1.0000
  H   H3044     1.0  0.75702  0.21981  0.64097  1.0000
  N   N96       1.0  0.83955  0.14655  0.65943  1.0000
  H   H3045     1.0  0.75724  0.18570  0.66898  1.0000
  C   C1735     1.0  0.83243  0.12573  0.72097  1.0000
  H   H3046     1.0  0.68987  0.21796  0.61416  1.0000
  C   C1736     1.0  0.71164  0.22790  0.70144  1.0000
  H   H3047     1.0  0.76170  0.24266  0.90060  1.0000
  C   C1737     1.0  0.81619  0.11620  0.74215  1.0000
  H   H3048     1.0  0.70870  0.15003  0.69033  1.0000
  H   H3049     1.0  0.69555  0.15095  0.73531  1.0000
  C   C1738     1.0  0.84455  0.20191  0.68153  1.0000
  C   C1739     1.0  0.69527  0.14589  0.70430  1.0000
  H   H3050     1.0  0.69452  0.12984  0.70354  1.0000
  H   H3051     1.0  0.75824  0.24987  0.66244  1.0000
  H   H3052     1.0  0.72417  0.24207  0.52066  1.0000
  S   S377      1.0  0.96461  0.01942  0.70742  1.0000
  H   H3053     1.0  0.97192  0.11334  0.81370  1.0000
  H   H3054     1.0  0.67949  0.15065  0.65082  1.0000
  H   H3055     1.0  0.78282  0.18316  0.66661  1.0000
  S   S378      1.0  0.66889  0.23027  0.99599  1.0000
  H   H3056     1.0  0.76794  0.16643  0.64041  1.0000
  H   H3057     1.0  0.94597  0.10975  0.74077  1.0000
  H   H3058     1.0  0.81074  0.10388  0.72461  1.0000
  H   H3059     1.0  0.68024  0.17113  0.68324  1.0000
  H   H3060     1.0  0.69003  0.20654  0.84519  1.0000
  H   H3061     1.0  0.70284  0.22839  0.85141  1.0000
  C   C1740     1.0  0.67850  0.15525  0.68193  1.0000
  H   H3062     1.0  0.73720  0.15842  0.96947  1.0000
  H   H3063     1.0  0.74782  0.22542  0.83072  1.0000
  C   C1741     1.0  0.70318  0.23654  0.96178  1.0000
  H   H3064     1.0  0.94629  0.05884  0.89586  1.0000
  H   H3065     1.0  0.86570  0.14141  0.69232  1.0000
  H   H3066     1.0  0.90382  0.13946  0.61889  1.0000
  H   H3067     1.0  0.64562  0.22890  0.55400  1.0000
  H   H3068     1.0  0.79599  0.23209  0.99709  1.0000
  H   H3069     1.0  0.89483  0.12110  0.65079  1.0000
  H   H3070     1.0  0.78781  0.21243  0.54919  1.0000
  C   C1742     1.0  0.87379  0.14285  0.63088  1.0000
  H   H3071     1.0  0.81195  0.14051  0.68310  1.0000
  H   H3072     1.0  0.79347  0.23720  0.54767  1.0000
  C   C1743     1.0  0.83351  0.14786  0.61673  1.0000
  C   C1744     1.0  0.77068  0.22993  0.89200  1.0000
  H   H3073     1.0  0.85342  0.21350  0.66957  1.0000
  H   H3074     1.0  0.80238  0.14722  0.62220  1.0000
  C   C1745     1.0  0.89397  0.13678  0.64330  1.0000
  H   H3075     1.0  0.87029  0.13493  0.60331  1.0000
  C   C1746     1.0  0.70543  0.24725  0.70612  1.0000
  H   H3076     1.0  0.84408  0.11468  0.71841  1.0000
  H   H3077     1.0  0.83457  0.13318  0.60296  1.0000
  H   H3078     1.0  0.86515  0.17969  0.66875  1.0000
  H   H3079     1.0  0.87542  0.02506  0.76202  1.0000
  H   H3080     1.0  0.96296  0.00590  0.61637  1.0000
  H   H3081     1.0  0.81009  0.14194  0.55136  1.0000
  C   C1747     1.0  0.64860  0.10090  0.58141  1.0000
  H   H3082     1.0  0.66316  0.11696  0.97792  1.0000
  C   C1748     1.0  0.71488  0.24538  0.93459  1.0000
  C   C1749     1.0  0.75434  0.24554  0.53280  1.0000
  C   C1750     1.0  0.67581  0.25273  0.93193  1.0000
  H   H3083     1.0  0.65916  0.13338  0.69922  1.0000
  H   H3084     1.0  0.65979  0.15326  0.73167  1.0000
  C   C1751     1.0  0.87544  0.00907  0.76558  1.0000
  H   H3085     1.0  0.66481  0.02146  0.63260  1.0000
  H   H3086     1.0  0.76479  0.24372  0.73355  1.0000
  H   H3087     1.0  0.81187  0.17194  0.01281  1.0000
  C   C1752     1.0  0.65116  0.09229  0.65052  1.0000
  H   H3088     1.0  0.65179  0.15205  0.62135  1.0000
  C   C1753     1.0  0.64998  0.21273  0.70347  1.0000
  H   H3089     1.0  0.65103  0.09841  0.95088  1.0000
  C   C1754     1.0  0.64902  0.11212  0.96770  1.0000
  H   H3090     1.0  0.82617  0.24604  0.85917  1.0000
  H   H3091     1.0  0.77295  0.25072  0.80101  1.0000
  C   C1755     1.0  0.75462  0.25259  0.75109  1.0000
  H   H3092     1.0  0.86067  0.00416  0.76180  1.0000
  H   H3093     1.0  0.64502  0.01472  0.66189  1.0000
  H   H3094     1.0  0.76737  0.24575  0.51505  1.0000
  S   S379      1.0  0.75828  0.17675  0.51488  1.0000
  Fe  Fe187     1.0  0.69921  0.32301  0.34550  1.0000
  S   S380      1.0  0.72643  0.30790  0.36396  1.0000
  H   H3095     1.0  0.72080  0.30062  0.14408  1.0000
  Fe  Fe188     1.0  0.69951  0.30281  0.26646  1.0000
  S   S381      1.0  0.72706  0.28706  0.27857  1.0000
  H   H3096     1.0  0.77595  0.31242  0.40964  1.0000
  Fe  Fe189     1.0  0.71460  0.28122  0.33715  1.0000
  H   H3097     1.0  0.69458  0.25824  0.05711  1.0000
  Fe  Fe190     1.0  0.73671  0.31489  0.30412  1.0000
  S   S382      1.0  0.76742  0.32248  0.30024  1.0000
  S   S383      1.0  0.68615  0.29531  0.32395  1.0000
  S   S384      1.0  0.71033  0.33170  0.28649  1.0000
  Fe  Fe191     1.0  0.82211  0.32958  0.11159  1.0000
  S   S385      1.0  0.85084  0.32955  0.14037  1.0000
  S   S386      1.0  0.79529  0.34509  0.13113  1.0000
  H   H3098     1.0  0.74570  0.32564  0.06127  1.0000
  S   S387      1.0  0.86515  0.30157  0.06705  1.0000
  S   S388      1.0  0.81731  0.28529  0.48369  1.0000
  Fe  Fe192     1.0  0.85216  0.29777  0.12625  1.0000
  S   S389      1.0  0.86675  0.27636  0.16753  1.0000
  Fe  Fe193     1.0  0.86218  0.33360  0.07950  1.0000
  S   S390      1.0  0.88768  0.35317  0.07866  1.0000
  S   S391      1.0  0.82230  0.29734  0.10311  1.0000
  S   S392      1.0  0.83309  0.33626  0.05168  1.0000
  Fe  Fe194     1.0  0.95484  0.42216  0.36776  1.0000
  H   H3099     1.0  0.90452  0.40376  0.24798  1.0000
  Fe  Fe195     1.0  0.92741  0.40838  0.42869  1.0000
  S   S393      1.0  0.92632  0.43711  0.46003  1.0000
  S   S394      1.0  0.91436  0.37980  0.44360  1.0000
  Fe  Fe196     1.0  0.92508  0.45005  0.39943  1.0000
  S   S395      1.0  0.90758  0.47697  0.38590  1.0000
  Fe  Fe197     1.0  0.95779  0.43687  0.45188  1.0000
  H   H3100     1.0  0.69568  0.34269  0.48875  1.0000
  S   S396      1.0  0.92318  0.42134  0.36861  1.0000
  S   S397      1.0  0.95921  0.40710  0.42542  1.0000
  H   H3101     1.0  0.65661  0.32166  0.38004  1.0000
  H   H3102     1.0  0.76001  0.30098  0.17838  1.0000
  H   H3103     1.0  0.81184  0.25588  0.42756  1.0000
  H   H3104     1.0  0.72397  0.33988  0.10118  1.0000
  H   H3105     1.0  0.78487  0.31143  0.45935  1.0000
  C   C1756     1.0  0.75462  0.31596  0.08047  1.0000
  C   C1757     1.0  0.88821  0.35923  0.48308  1.0000
  C   C1758     1.0  0.89501  0.37775  0.47531  1.0000
  C   C1759     1.0  0.70052  0.33364  0.13773  1.0000
  H   H3106     1.0  0.81688  0.33877  0.40252  1.0000
  C   C1760     1.0  0.88460  0.45068  0.09772  1.0000
  H   H3107     1.0  0.89441  0.34668  0.46850  1.0000
  H   H3108     1.0  0.95884  0.46798  0.11982  1.0000
  H   H3109     1.0  0.92200  0.37266  0.06478  1.0000
  H   H3110     1.0  0.88069  0.44501  0.12696  1.0000
  C   C1761     1.0  0.68945  0.29611  0.43459  1.0000
  C   C1762     1.0  0.90926  0.48495  0.33705  1.0000
  C   C1763     1.0  0.91944  0.47408  0.30922  1.0000
  C   C1764     1.0  0.88741  0.48413  0.12796  1.0000
  H   H3111     1.0  0.92627  0.46046  0.31758  1.0000
  H   H3112     1.0  0.88635  0.26230  0.37242  1.0000
  C   C1765     1.0  0.89788  0.46771  0.10632  1.0000
  S   S398      1.0  0.68614  0.29612  0.20771  1.0000
  C   C1766     1.0  0.83719  0.29262  0.27153  1.0000
  C   C1767     1.0  0.77482  0.32883  0.25301  1.0000
  C   C1768     1.0  0.76207  0.33683  0.22529  1.0000
  C   C1769     1.0  0.76856  0.34234  0.18820  1.0000
  C   C1770     1.0  0.78760  0.33912  0.17827  1.0000
  C   C1771     1.0  0.80021  0.33078  0.20568  1.0000
  C   C1772     1.0  0.79391  0.32609  0.24327  1.0000
  H   H3113     1.0  0.74735  0.33916  0.23275  1.0000
  H   H3114     1.0  0.75878  0.34890  0.16706  1.0000
  H   H3115     1.0  0.81487  0.32835  0.19804  1.0000
  H   H3116     1.0  0.80381  0.32031  0.26481  1.0000
  H   H3117     1.0  0.91185  0.39096  0.30500  1.0000
  C   C1773     1.0  0.73172  0.29058  0.06763  1.0000
  H   H3118     1.0  0.84231  0.30245  0.21223  1.0000
  H   H3119     1.0  0.77249  0.34721  0.40850  1.0000
  C   C1774     1.0  0.84966  0.27728  0.36403  1.0000
  H   H3120     1.0  0.97691  0.45426  0.26186  1.0000
  H   H3121     1.0  0.76754  0.25417  0.05017  1.0000
  H   H3122     1.0  0.87108  0.45672  0.08507  1.0000
  H   H3123     1.0  0.75314  0.33407  0.39044  1.0000
  H   H3124     1.0  0.75181  0.35853  0.33410  1.0000
  H   H3125     1.0  0.82798  0.31400  0.31308  1.0000
  H   H3126     1.0  0.79218  0.26081  0.27572  1.0000
  H   H3127     1.0  0.68341  0.26002  0.38264  1.0000
  H   H3128     1.0  0.65348  0.26006  0.05901  1.0000
  C   C1775     1.0  0.65224  0.33481  0.39518  1.0000
  H   H3129     1.0  0.76580  0.29720  0.03285  1.0000
  H   H3130     1.0  0.92364  0.37065  0.36099  1.0000
  C   C1776     1.0  0.96137  0.35203  0.47747  1.0000
  H   H3131     1.0  0.76946  0.27994  0.46918  1.0000
  H   H3132     1.0  0.90738  0.43769  0.22652  1.0000
  C   C1777     1.0  0.73247  0.34498  0.46377  1.0000
  C   C1778     1.0  0.89916  0.44186  0.03315  1.0000
  H   H3133     1.0  0.73743  0.31896  0.15089  1.0000
  C   C1779     1.0  0.87652  0.42071  0.06359  1.0000
  H   H3134     1.0  0.70858  0.32164  0.08215  1.0000
  C   C1780     1.0  0.68135  0.30077  0.47485  1.0000
  C   C1781     1.0  0.91267  0.37552  0.03986  1.0000
  H   H3135     1.0  0.97732  0.47340  0.32226  1.0000
  H   H3136     1.0  0.97361  0.35644  0.45973  1.0000
  H   H3137     1.0  0.91016  0.40509  0.19690  1.0000
  H   H3138     1.0  0.78460  0.27909  0.42711  1.0000
  H   H3139     1.0  0.81116  0.30845  0.36733  1.0000
  H   H3140     1.0  0.66949  0.37762  0.42749  1.0000
  C   C1782     1.0  0.67227  0.28271  0.49309  1.0000
  C   C1783     1.0  0.86031  0.26274  0.33689  1.0000
  C   C1784     1.0  0.72928  0.31126  0.12770  1.0000
  C   C1785     1.0  0.83677  0.31400  0.40043  1.0000
  H   H3141     1.0  0.84003  0.32178  0.24735  1.0000
  H   H3142     1.0  0.97396  0.41236  0.21609  1.0000
  C   C1786     1.0  0.90817  0.42329  0.09334  1.0000
  H   H3143     1.0  0.72605  0.30092  0.04504  1.0000
  H   H3144     1.0  0.76080  0.32587  0.10285  1.0000
  H   H3145     1.0  0.95318  0.48988  0.49505  1.0000
  C   C1787     1.0  0.71580  0.32695  0.10905  1.0000
  C   C1788     1.0  0.88698  0.39389  0.49434  1.0000
  H   H3146     1.0  0.90847  0.40787  0.08367  1.0000
  N   N97       1.0  0.83226  0.28749  0.34686  1.0000
  H   H3147     1.0  0.74529  0.27597  0.13749  1.0000
  H   H3148     1.0  0.88077  0.39893  0.11082  1.0000
  H   H3149     1.0  0.92507  0.43144  0.26327  1.0000
  H   H3150     1.0  0.77043  0.37679  0.46095  1.0000
  H   H3151     1.0  0.96483  0.47732  0.25434  1.0000
  C   C1789     1.0  0.64698  0.27391  0.06979  1.0000
  H   H3152     1.0  0.67061  0.31270  0.47098  1.0000
  C   C1790     1.0  0.72562  0.33865  0.50477  1.0000
  C   C1791     1.0  0.81818  0.27244  0.33447  1.0000
  H   H3153     1.0  0.86457  0.41852  0.12320  1.0000
  H   H3154     1.0  0.84588  0.26942  0.39118  1.0000
  H   H3155     1.0  0.95619  0.47926  0.19142  1.0000
  H   H3156     1.0  0.66956  0.29102  0.04998  1.0000
  H   H3157     1.0  0.70691  0.33801  0.16636  1.0000
  H   H3158     1.0  0.65361  0.50136  0.28478  1.0000
  C   C1792     1.0  0.77275  0.30774  0.43992  1.0000
  H   H3159     1.0  0.70207  0.27616  0.02268  1.0000
  H   H3160     1.0  0.93325  0.42663  0.05668  1.0000
  C   C1793     1.0  0.82564  0.32965  0.42300  1.0000
  H   H3161     1.0  0.65105  0.27571  0.10122  1.0000
  H   H3162     1.0  0.89853  0.37070  0.28649  1.0000
  H   H3163     1.0  0.81743  0.29020  0.40196  1.0000
  H   H3164     1.0  0.77742  0.30538  0.14140  1.0000
  C   C1794     1.0  0.83012  0.26363  0.47570  1.0000
  N   N98       1.0  0.89238  0.43450  0.07214  1.0000
  C   C1795     1.0  0.76622  0.36948  0.48829  1.0000
  C   C1796     1.0  0.91586  0.40713  0.22722  1.0000
  H   H3165     1.0  0.95717  0.42366  0.10923  1.0000
  H   H3166     1.0  0.69413  0.26419  0.26029  1.0000
  H   H3167     1.0  0.67802  0.29164  0.41402  1.0000
  C   C1797     1.0  0.86944  0.40887  0.09909  1.0000
  C   C1798     1.0  0.65397  0.29101  0.04603  1.0000
  C   C1799     1.0  0.92063  0.48079  0.27038  1.0000
  H   H3168     1.0  0.69240  0.34627  0.12534  1.0000
  S   S399      1.0  0.68915  0.34663  0.38770  1.0000
  C   C1800     1.0  0.79788  0.28032  0.32473  1.0000
  H   H3169     1.0  0.90981  0.46278  0.12569  1.0000
  H   H3170     1.0  0.81681  0.26145  0.35811  1.0000
  N   N99       1.0  0.74253  0.30104  0.09956  1.0000
  C   C1801     1.0  0.77136  0.28564  0.43904  1.0000
  C   C1802     1.0  0.76682  0.34723  0.48236  1.0000
  C   C1803     1.0  0.96226  0.48278  0.12992  1.0000
  H   H3171     1.0  0.91123  0.45166  0.03699  1.0000
  H   H3172     1.0  0.71952  0.26791  0.10467  1.0000
  H   H3173     1.0  0.69310  0.30618  0.49333  1.0000
  H   H3174     1.0  0.82605  0.27154  0.17329  1.0000
  H   H3175     1.0  0.84599  0.30598  0.42197  1.0000
  H   H3176     1.0  0.97341  0.48845  0.11077  1.0000
  C   C1804     1.0  0.76812  0.29440  0.15382  1.0000
  C   C1805     1.0  0.85274  0.39637  0.08705  1.0000
  C   C1806     1.0  0.92878  0.42988  0.08727  1.0000
  H   H3177     1.0  0.73125  0.36141  0.39174  1.0000
  H   H3178     1.0  0.70586  0.36298  0.51438  1.0000
  H   H3179     1.0  0.96073  0.50089  0.42438  1.0000
  C   C1807     1.0  0.92031  0.42858  0.23254  1.0000
  H   H3180     1.0  0.90546  0.42286  0.12548  1.0000
  C   C1808     1.0  0.95756  0.36714  0.50952  1.0000
  H   H3181     1.0  0.93923  0.42214  0.14593  1.0000
  N   N100      1.0  0.93127  0.37243  0.23842  1.0000
  C   C1809     1.0  0.91447  0.36580  0.21436  1.0000
  C   C1810     1.0  0.93390  0.39404  0.23339  1.0000
  C   C1811     1.0  0.94870  0.36199  0.22274  1.0000
  C   C1812     1.0  0.92970  0.36743  0.28135  1.0000
  C   C1813     1.0  0.82342  0.29967  0.37915  1.0000
  C   C1814     1.0  0.91015  0.34386  0.21660  1.0000
  C   C1815     1.0  0.96780  0.36706  0.24301  1.0000
  C   C1816     1.0  0.75429  0.37005  0.35631  1.0000
  H   H3182     1.0  0.93037  0.44559  0.09237  1.0000
  C   C1817     1.0  0.89166  0.33942  0.19495  1.0000
  C   C1818     1.0  0.96440  0.49937  0.50688  1.0000
  H   H3183     1.0  0.91645  0.36942  0.18277  1.0000
  H   H3184     1.0  0.90126  0.37369  0.22278  1.0000
  H   H3185     1.0  0.94188  0.39994  0.25897  1.0000
  H   H3186     1.0  0.94284  0.39691  0.20744  1.0000
  H   H3187     1.0  0.94987  0.36470  0.19056  1.0000
  H   H3188     1.0  0.94767  0.34604  0.22602  1.0000
  H   H3189     1.0  0.93110  0.35146  0.28569  1.0000
  H   H3190     1.0  0.75313  0.31228  0.48656  1.0000
  H   H3191     1.0  0.76550  0.34032  0.51166  1.0000
  C   C1819     1.0  0.91163  0.37495  0.30221  1.0000
  H   H3192     1.0  0.92145  0.33493  0.20250  1.0000
  H   H3193     1.0  0.90865  0.33907  0.24743  1.0000
  H   H3194     1.0  0.96871  0.36067  0.27293  1.0000
  H   H3195     1.0  0.96945  0.38287  0.24603  1.0000
  C   C1820     1.0  0.94456  0.49564  0.12356  1.0000
  H   H3196     1.0  0.97475  0.44527  0.15130  1.0000
  H   H3197     1.0  0.85194  0.30667  0.31945  1.0000
  S   S400      1.0  0.95644  0.45200  0.39360  1.0000
  H   H3198     1.0  0.87696  0.46463  0.02345  1.0000
  H   H3199     1.0  0.89247  0.34365  0.16357  1.0000
  H   H3200     1.0  0.88910  0.32361  0.19619  1.0000
  H   H3201     1.0  0.87948  0.34726  0.20862  1.0000
  H   H3202     1.0  0.72496  0.32262  0.50657  1.0000
  H   H3203     1.0  0.95506  0.38121  0.49450  1.0000
  S   S401      1.0  0.97720  0.44915  0.49826  1.0000
  H   H3204     1.0  0.82320  0.26397  0.30871  1.0000
  H   H3205     1.0  0.90957  0.35080  0.34315  1.0000
  H   H3206     1.0  0.70339  0.28774  0.09258  1.0000
  C   C1821     1.0  0.96876  0.48286  0.17375  1.0000
  H   H3207     1.0  0.75936  0.28117  0.41986  1.0000
  N   N101      1.0  0.75260  0.33921  0.45354  1.0000
  Fe  Fe198     1.0  0.83504  0.30377  0.04475  1.0000
  H   H3208     1.0  0.69049  0.32181  0.14266  1.0000
  C   C1822     1.0  0.91076  0.36682  0.34381  1.0000
  H   H3209     1.0  0.92767  0.36181  0.51367  1.0000
  H   H3210     1.0  0.81632  0.32298  0.44480  1.0000
  H   H3211     1.0  0.94177  0.37347  0.29847  1.0000
  H   H3212     1.0  0.84594  0.32143  0.37936  1.0000
  H   H3213     1.0  0.86038  0.28793  0.37351  1.0000
  C   C1823     1.0  0.74659  0.36411  0.39612  1.0000
  C   C1824     1.0  0.75419  0.31732  0.45563  1.0000
  H   H3214     1.0  0.83564  0.33912  0.43905  1.0000
  C   C1825     1.0  0.94258  0.41896  0.11480  1.0000
  C   C1826     1.0  0.70690  0.26651  0.04705  1.0000
  C   C1827     1.0  0.83756  0.30089  0.31391  1.0000
  C   C1828     1.0  0.78105  0.27846  0.17132  1.0000
  H   H3215     1.0  0.74141  0.28059  0.05131  1.0000
  H   H3216     1.0  0.96473  0.33761  0.49063  1.0000
  H   H3217     1.0  0.89703  0.49643  0.13263  1.0000
  H   H3218     1.0  0.87495  0.48953  0.11052  1.0000
  H   H3219     1.0  0.84668  0.26184  0.08680  1.0000
  C   C1829     1.0  0.90039  0.50255  0.32593  1.0000
  H   H3220     1.0  0.94046  0.49568  0.09194  1.0000
  H   H3221     1.0  0.86698  0.27058  0.31254  1.0000
  H   H3222     1.0  0.79062  0.27232  0.14859  1.0000
  C   C1830     1.0  0.70571  0.34690  0.51259  1.0000
  H   H3223     1.0  0.94206  0.40308  0.10944  1.0000
  H   H3224     1.0  0.84832  0.38762  0.11252  1.0000
  H   H3225     1.0  0.89208  0.40822  0.48839  1.0000
  H   H3226     1.0  0.78744  0.26452  0.02603  1.0000
  H   H3227     1.0  0.88268  0.47918  0.15718  1.0000
  H   H3228     1.0  0.92834  0.47230  0.24885  1.0000
  H   H3229     1.0  0.96593  0.44712  0.19960  1.0000
  H   H3230     1.0  0.72253  0.33885  0.44146  1.0000
  C   C1831     1.0  0.84579  0.30682  0.24282  1.0000
  H   H3231     1.0  0.93157  0.43295  0.21222  1.0000
  C   C1832     1.0  0.77094  0.30787  0.05457  1.0000
  S   S402      1.0  0.96974  0.41132  0.31377  1.0000
  H   H3232     1.0  0.78215  0.30071  0.07297  1.0000
  H   H3233     1.0  0.90349  0.47398  0.07907  1.0000
  H   H3234     1.0  0.89820  0.37313  0.35901  1.0000
  H   H3235     1.0  0.93263  0.49014  0.14074  1.0000
  C   C1833     1.0  0.83323  0.26107  0.19220  1.0000
  H   H3236     1.0  0.84047  0.40559  0.07708  1.0000
  C   C1834     1.0  0.68844  0.27101  0.19947  1.0000
  H   H3237     1.0  0.69593  0.30924  0.42267  1.0000
  H   H3238     1.0  0.77138  0.27091  0.29908  1.0000
  H   H3239     1.0  0.79829  0.29318  0.30549  1.0000
  H   H3240     1.0  0.79048  0.28463  0.35213  1.0000
  H   H3241     1.0  0.70060  0.28447  0.43672  1.0000
  C   C1835     1.0  0.68646  0.26338  0.16147  1.0000
  H   H3242     1.0  0.74794  0.37655  0.41642  1.0000
  H   H3243     1.0  0.68226  0.26999  0.49043  1.0000
  H   H3244     1.0  0.74210  0.31078  0.43960  1.0000
  C   C1836     1.0  0.75695  0.34550  0.41200  1.0000
  H   H3245     1.0  0.85680  0.38621  0.06306  1.0000
  H   H3246     1.0  0.82242  0.29012  0.26160  1.0000
  C   C1837     1.0  0.71501  0.27825  0.08123  1.0000
  C   C1838     1.0  0.66529  0.34935  0.40212  1.0000
  C   C1839     1.0  0.75449  0.28625  0.12205  1.0000
  H   H3247     1.0  0.88093  0.41002  0.04060  1.0000
  H   H3248     1.0  0.86145  0.30677  0.24646  1.0000
  H   H3249     1.0  0.76970  0.37277  0.35850  1.0000
  C   C1840     1.0  0.89487  0.36694  0.03806  1.0000
  H   H3250     1.0  0.74683  0.38353  0.34609  1.0000
  C   C1841     1.0  0.78598  0.26499  0.30441  1.0000
  H   H3251     1.0  0.84508  0.27864  0.26927  1.0000
  H   H3252     1.0  0.79496  0.37189  0.51200  1.0000
  H   H3253     1.0  0.76311  0.27720  0.10156  1.0000
  C   C1842     1.0  0.65943  0.36634  0.42194  1.0000
  H   H3254     1.0  0.78992  0.28468  0.19523  1.0000
  H   H3255     1.0  0.78146  0.34332  0.47301  1.0000
  H   H3256     1.0  0.71774  0.25602  0.03577  1.0000
  H   H3257     1.0  0.81119  0.25565  0.06477  1.0000
  H   H3258     1.0  0.77258  0.26675  0.18388  1.0000
  H   H3259     1.0  0.68237  0.27286  0.13746  1.0000
  H   H3260     1.0  0.78561  0.33530  0.05153  1.0000
  H   H3261     1.0  0.73005  0.36090  0.46207  1.0000
  C   C1843     1.0  0.69312  0.25858  0.23069  1.0000
  C   C1844     1.0  0.87356  0.35681  0.50997  1.0000
  H   H3262     1.0  0.97762  0.40730  0.50648  1.0000
  C   C1845     1.0  0.77997  0.32409  0.03143  1.0000
  H   H3263     1.0  0.97059  0.49384  0.03635  1.0000
  H   H3264     1.0  0.86388  0.42865  0.05121  1.0000
  H   H3265     1.0  0.94883  0.35093  0.45754  1.0000
  C   C1846     1.0  0.85302  0.26044  0.19461  1.0000
  C   C1847     1.0  0.84622  0.25838  0.49801  1.0000
  C   C1848     1.0  0.91206  0.49860  0.25955  1.0000
  H   H3266     1.0  0.75197  0.37485  0.49709  1.0000
  H   H3267     1.0  0.97180  0.49811  0.18179  1.0000
  H   H3268     1.0  0.66009  0.27912  0.47349  1.0000
  H   H3269     1.0  0.64779  0.30449  0.05903  1.0000
  H   H3270     1.0  0.65417  0.32857  0.01735  1.0000
  H   H3271     1.0  0.97186  0.36649  0.01539  1.0000
  H   H3272     1.0  0.90494  0.42950  0.01548  1.0000
  Fe  Fe199     1.0  0.67422  0.31563  0.81038  1.0000
  S   S403      1.0  0.70210  0.31914  0.84176  1.0000
  C   C1849     1.0  0.68181  0.29153  0.56158  1.0000
  Fe  Fe200     1.0  0.69152  0.29183  0.74384  1.0000
  S   S404      1.0  0.72077  0.29284  0.76984  1.0000
  H   H3273     1.0  0.68140  0.27085  0.88211  1.0000
  Fe  Fe201     1.0  0.70683  0.28762  0.82745  1.0000
  S   S405      1.0  0.72193  0.26793  0.87093  1.0000
  Fe  Fe202     1.0  0.71366  0.32401  0.78173  1.0000
  S   S406      1.0  0.73553  0.34580  0.76784  1.0000
  S   S407      1.0  0.67799  0.28351  0.80037  1.0000
  S   S408      1.0  0.68536  0.32352  0.75153  1.0000
  Fe  Fe203     1.0  0.79613  0.32489  0.59195  1.0000
  S   S409      1.0  0.81981  0.33574  0.62996  1.0000
  S   S410      1.0  0.76458  0.32997  0.59588  1.0000
  H   H3274     1.0  0.67860  0.40178  0.77170  1.0000
  H   H3275     1.0  0.70256  0.35269  0.70184  1.0000
  C   C1850     1.0  0.88863  0.38324  0.97578  1.0000
  Fe  Fe204     1.0  0.83215  0.30548  0.62462  1.0000
  S   S411      1.0  0.84636  0.29038  0.67635  1.0000
  Fe  Fe205     1.0  0.83483  0.34107  0.57324  1.0000
  H   H3276     1.0  0.72003  0.39909  0.66677  1.0000
  S   S412      1.0  0.80703  0.29413  0.59170  1.0000
  C   C1851     1.0  0.78016  0.37556  0.52055  1.0000
  H   H3277     1.0  0.81968  0.28386  0.86316  1.0000
  H   H3278     1.0  0.94606  0.40105  0.54136  1.0000
  Fe  Fe206     1.0  0.94133  0.42248  0.94366  1.0000
  S   S413      1.0  0.94604  0.45171  0.97128  1.0000
  S   S414      1.0  0.91236  0.40913  0.94181  1.0000
  Fe  Fe207     1.0  0.96385  0.45748  0.91877  1.0000
  C   C1852     1.0  0.95251  0.44928  0.73541  1.0000
  H   H3279     1.0  0.66066  0.25533  0.93049  1.0000
  H   H3280     1.0  0.67323  0.42637  0.62170  1.0000
  S   S415      1.0  0.95666  0.42975  0.88795  1.0000
  H   H3281     1.0  0.93627  0.41260  0.60757  1.0000
  H   H3282     1.0  0.73070  0.37743  0.68723  1.0000
  H   H3283     1.0  0.84591  0.26129  0.87046  1.0000
  H   H3284     1.0  0.71208  0.28750  0.61617  1.0000
  N   N102      1.0  0.97215  0.45451  0.72273  1.0000
  C   C1853     1.0  0.91836  0.38807  0.01005  1.0000
  H   H3285     1.0  0.66328  0.48282  0.86418  1.0000
  H   H3286     1.0  0.72969  0.28085  0.58043  1.0000
  H   H3287     1.0  0.75398  0.26871  0.80483  1.0000
  C   C1854     1.0  0.93112  0.43254  0.78345  1.0000
  H   H3288     1.0  0.96337  0.34538  0.58989  1.0000
  H   H3289     1.0  0.76122  0.28861  0.61924  1.0000
  H   H3290     1.0  0.87921  0.38629  0.95106  1.0000
  H   H3291     1.0  0.67080  0.44490  0.65886  1.0000
  H   H3292     1.0  0.68476  0.30711  0.55687  1.0000
  H   H3293     1.0  0.96416  0.38305  0.58560  1.0000
  C   C1855     1.0  0.94349  0.48419  0.83414  1.0000
  H   H3294     1.0  0.68698  0.39302  0.64268  1.0000
  H   H3295     1.0  0.75192  0.40447  0.69575  1.0000
  H   H3296     1.0  0.93951  0.47052  0.84663  1.0000
  C   C1856     1.0  0.66730  0.39285  0.75868  1.0000
  H   H3297     1.0  0.65186  0.48510  0.81627  1.0000
  H   H3298     1.0  0.86640  0.40394  0.53658  1.0000
  N   N103      1.0  0.66586  0.28515  0.53489  1.0000
  H   H3299     1.0  0.85665  0.26882  0.00709  1.0000
  C   C1857     1.0  0.74414  0.34105  0.72061  1.0000
  C   C1858     1.0  0.76051  0.34992  0.70766  1.0000
  C   C1859     1.0  0.76716  0.34626  0.66955  1.0000
  C   C1860     1.0  0.75706  0.33425  0.64405  1.0000
  C   C1861     1.0  0.74047  0.32580  0.65679  1.0000
  C   C1862     1.0  0.73430  0.32877  0.69526  1.0000
  H   H3300     1.0  0.76808  0.35953  0.72713  1.0000
  H   H3301     1.0  0.77987  0.35303  0.65960  1.0000
  H   H3302     1.0  0.73261  0.31658  0.63719  1.0000
  H   H3303     1.0  0.72170  0.32180  0.70499  1.0000
  H   H3304     1.0  0.67085  0.36095  0.63942  1.0000
  S   S416      1.0  0.82052  0.28915  0.99335  1.0000
  C   C1863     1.0  0.68539  0.31824  0.94632  1.0000
  C   C1864     1.0  0.70708  0.25783  0.90587  1.0000
  H   H3305     1.0  0.68247  0.33367  0.95393  1.0000
  C   C1865     1.0  0.68181  0.41724  0.68088  1.0000
  H   H3306     1.0  0.67185  0.34795  0.87771  1.0000
  H   H3307     1.0  0.65746  0.40217  0.74081  1.0000
  C   C1866     1.0  0.83520  0.25753  0.84764  1.0000
  C   C1867     1.0  0.83526  0.26990  0.69497  1.0000
  C   C1868     1.0  0.65772  0.35388  0.88211  1.0000
  H   H3308     1.0  0.71367  0.32531  0.92765  1.0000
  C   C1869     1.0  0.71598  0.28866  0.58477  1.0000
  H   H3309     1.0  0.68046  0.31577  0.91570  1.0000
  H   H3310     1.0  0.65456  0.46167  0.83936  1.0000
  H   H3311     1.0  0.91782  0.44135  0.58679  1.0000
  H   H3312     1.0  0.76949  0.33100  0.01087  1.0000
  H   H3313     1.0  0.79762  0.25973  0.83192  1.0000
  H   H3314     1.0  0.80047  0.34210  0.71915  1.0000
  H   H3315     1.0  0.77897  0.39148  0.52517  1.0000
  C   C1870     1.0  0.80796  0.33095  0.73737  1.0000
  H   H3316     1.0  0.65366  0.27482  0.99134  1.0000
  H   H3317     1.0  0.74907  0.28436  0.66452  1.0000
  H   H3318     1.0  0.90372  0.47250  0.98008  1.0000
  H   H3319     1.0  0.94219  0.34660  0.54318  1.0000
  H   H3320     1.0  0.94546  0.44051  0.71210  1.0000
  C   C1871     1.0  0.92565  0.41075  0.58363  1.0000
  H   H3321     1.0  0.67069  0.25466  0.54740  1.0000
  H   H3322     1.0  0.81874  0.32343  0.71887  1.0000
  C   C1872     1.0  0.92237  0.43054  0.56435  1.0000
  H   H3323     1.0  0.80990  0.26112  0.78755  1.0000
  C   C1873     1.0  0.64760  0.30125  0.93315  1.0000
  H   H3324     1.0  0.69441  0.32361  0.65661  1.0000
  H   H3325     1.0  0.92188  0.44575  0.78604  1.0000
  C   C1874     1.0  0.67541  0.37611  0.73305  1.0000
  H   H3326     1.0  0.64668  0.31505  0.91622  1.0000
  H   H3327     1.0  0.96020  0.42436  0.77417  1.0000
  H   H3328     1.0  0.67545  0.32677  0.62124  1.0000
  C   C1875     1.0  0.65176  0.47736  0.84486  1.0000
  C   C1876     1.0  0.65023  0.30052  0.53568  1.0000
  C   C1877     1.0  0.67907  0.35144  0.66006  1.0000
  H   H3329     1.0  0.66920  0.34538  0.68157  1.0000
  H   H3330     1.0  0.70637  0.27989  0.52802  1.0000
  H   H3331     1.0  0.74479  0.25690  0.61949  1.0000
  S   S417      1.0  0.84801  0.37030  0.56481  1.0000
  S   S418      1.0  0.81002  0.33263  0.53589  1.0000
  H   H3332     1.0  0.65405  0.42569  0.65640  1.0000
  H   H3333     1.0  0.66648  0.37481  0.92564  1.0000
  H   H3334     1.0  0.67765  0.42104  0.71115  1.0000
  N   N104      1.0  0.79235  0.28642  0.79902  1.0000
  C   C1878     1.0  0.80519  0.26992  0.81308  1.0000
  C   C1879     1.0  0.77778  0.27864  0.77048  1.0000
  C   C1880     1.0  0.80446  0.30021  0.77652  1.0000
  C   C1881     1.0  0.78294  0.29743  0.83223  1.0000
  C   C1882     1.0  0.77701  0.28546  0.86843  1.0000
  C   C1883     1.0  0.82336  0.27558  0.83620  1.0000
  C   C1884     1.0  0.79387  0.31644  0.75287  1.0000
  H   H3335     1.0  0.91205  0.40665  0.59681  1.0000
  Fe  Fe208     1.0  0.97236  0.43758  0.99631  1.0000
  C   C1885     1.0  0.76434  0.29753  0.89572  1.0000
  H   H3336     1.0  0.95654  0.44694  0.79968  1.0000
  H   H3337     1.0  0.64922  0.30482  0.60000  1.0000
  S   S419      1.0  0.68481  0.27978  0.68386  1.0000
  H   H3338     1.0  0.76782  0.29045  0.76038  1.0000
  C   C1886     1.0  0.69513  0.36274  0.68087  1.0000
  H   H3339     1.0  0.81363  0.29203  0.75535  1.0000
  H   H3340     1.0  0.81427  0.30777  0.79692  1.0000
  H   H3341     1.0  0.79243  0.30875  0.84417  1.0000
  H   H3342     1.0  0.77016  0.30560  0.82093  1.0000
  H   H3343     1.0  0.78970  0.28066  0.88577  1.0000
  H   H3344     1.0  0.76928  0.27236  0.86011  1.0000
  H   H3345     1.0  0.83275  0.28451  0.81822  1.0000
  C   C1887     1.0  0.86573  0.37290  0.52948  1.0000
  H   H3346     1.0  0.78341  0.32438  0.77138  1.0000
  H   H3347     1.0  0.78639  0.31027  0.72694  1.0000
  N   N105      1.0  0.65427  0.30504  0.97498  1.0000
  C   C1888     1.0  0.95953  0.49255  0.64045  1.0000
  C   C1889     1.0  0.76496  0.26237  0.78526  1.0000
  H   H3348     1.0  0.70551  0.36568  0.65749  1.0000
  H   H3349     1.0  0.90505  0.37599  0.57257  1.0000
  H   H3350     1.0  0.75109  0.30228  0.88009  1.0000
  H   H3351     1.0  0.76040  0.28862  0.92130  1.0000
  H   H3352     1.0  0.77188  0.31045  0.90666  1.0000
  H   H3353     1.0  0.88208  0.46894  0.95256  1.0000
  C   C1890     1.0  0.94011  0.36192  0.53404  1.0000
  C   C1891     1.0  0.93478  0.49097  0.79916  1.0000
  H   H3354     1.0  0.94338  0.46252  0.73914  1.0000
  H   H3355     1.0  0.71793  0.30413  0.57723  1.0000
  H   H3356     1.0  0.81522  0.33841  0.76208  1.0000
  C   C1892     1.0  0.70083  0.27984  0.55831  1.0000
  H   H3357     1.0  0.78499  0.27323  0.74361  1.0000
  C   C1893     1.0  0.65592  0.38495  0.79275  1.0000
  S   S420      1.0  0.84903  0.31153  0.57046  1.0000
  C   C1894     1.0  0.70691  0.31490  0.94753  1.0000
  H   H3358     1.0  0.97046  0.36791  0.52830  1.0000
  C   C1895     1.0  0.95812  0.48304  0.68079  1.0000
  C   C1896     1.0  0.65466  0.36909  0.90913  1.0000
  H   H3359     1.0  0.92409  0.48251  0.78457  1.0000
  H   H3360     1.0  0.96935  0.47933  0.76150  1.0000
  C   C1897     1.0  0.93272  0.39538  0.55327  1.0000
  H   H3361     1.0  0.97421  0.36785  0.66471  1.0000
  H   H3362     1.0  0.74738  0.26350  0.73176  1.0000
  H   H3363     1.0  0.73416  0.41828  0.72222  1.0000
  C   C1898     1.0  0.90629  0.39213  0.97803  1.0000
  H   H3364     1.0  0.80888  0.27541  0.66448  1.0000
  H   H3365     1.0  0.71263  0.31714  0.97771  1.0000
  H   H3366     1.0  0.66521  0.39187  0.66754  1.0000
  N   N106      1.0  0.93576  0.37496  0.56865  1.0000
  S   S421      1.0  0.96652  0.40789  0.97302  1.0000
  C   C1899     1.0  0.91756  0.36896  0.58777  1.0000
  C   C1900     1.0  0.95197  0.37532  0.59804  1.0000
  C   C1901     1.0  0.95947  0.35554  0.61389  1.0000
  C   C1902     1.0  0.97727  0.35810  0.63939  1.0000
  C   C1903     1.0  0.91303  0.34703  0.58750  1.0000
  C   C1904     1.0  0.89593  0.34297  0.61297  1.0000
  C   C1905     1.0  0.81917  0.25594  0.94985  1.0000
  H   H3367     1.0  0.93562  0.43555  0.55086  1.0000
  H   H3368     1.0  0.68127  0.30870  0.00507  1.0000
  C   C1906     1.0  0.95735  0.49522  0.85281  1.0000
  H   H3369     1.0  0.91703  0.37422  0.61872  1.0000
  H   H3370     1.0  0.75703  0.27006  0.98941  1.0000
  N   N107      1.0  0.68934  0.38133  0.70174  1.0000
  H   H3371     1.0  0.94783  0.38392  0.62439  1.0000
  H   H3372     1.0  0.77708  0.36828  0.54876  1.0000
  H   H3373     1.0  0.94870  0.34897  0.63269  1.0000
  C   C1907     1.0  0.84810  0.26025  0.98738  1.0000
  H   H3374     1.0  0.90942  0.34230  0.55710  1.0000
  H   H3375     1.0  0.92508  0.33787  0.59823  1.0000
  H   H3376     1.0  0.89896  0.34657  0.64423  1.0000
  H   H3377     1.0  0.88330  0.35158  0.60271  1.0000
  H   H3378     1.0  0.89252  0.32736  0.61099  1.0000
  H   H3379     1.0  0.73514  0.34386  0.52854  1.0000
  H   H3380     1.0  0.93076  0.42455  0.81171  1.0000
  H   H3381     1.0  0.96292  0.49368  0.70301  1.0000
  H   H3382     1.0  0.68115  0.28955  0.96976  1.0000
  C   C1908     1.0  0.68715  0.33423  0.63664  1.0000
  H   H3383     1.0  0.80528  0.26121  0.94056  1.0000
  H   H3384     1.0  0.77769  0.26121  0.58505  1.0000
  H   H3385     1.0  0.92544  0.42305  0.75989  1.0000
  H   H3386     1.0  0.77444  0.28133  0.66292  1.0000
  C   C1909     1.0  0.70685  0.38912  0.72158  1.0000
  H   H3387     1.0  0.74429  0.39603  0.74282  1.0000
  H   H3388     1.0  0.90029  0.45019  0.95302  1.0000
  H   H3389     1.0  0.68208  0.36512  0.75326  1.0000
  H   H3390     1.0  0.67762  0.29063  0.59296  1.0000
  C   C1910     1.0  0.72416  0.39176  0.69467  1.0000
  H   H3391     1.0  0.70058  0.34125  0.54089  1.0000
  C   C1911     1.0  0.95148  0.43797  0.77476  1.0000
  H   H3392     1.0  0.66526  0.37606  0.81256  1.0000
  C   C1912     1.0  0.73952  0.40340  0.71526  1.0000
  H   H3393     1.0  0.71170  0.37924  0.74580  1.0000
  H   H3394     1.0  0.70380  0.40318  0.73632  1.0000
  C   C1913     1.0  0.67569  0.30459  0.97561  1.0000
  C   C1914     1.0  0.76477  0.25588  0.98786  1.0000
  Fe  Fe209     1.0  0.82266  0.30259  0.53822  1.0000
  C   C1915     1.0  0.66919  0.42920  0.65267  1.0000
  H   H3395     1.0  0.69656  0.42199  0.67716  1.0000
  C   C1916     1.0  0.81661  0.26586  0.68427  1.0000
  C   C1917     1.0  0.97023  0.46398  0.68287  1.0000
  H   H3396     1.0  0.92246  0.39546  0.52812  1.0000
  H   H3397     1.0  0.95529  0.48238  0.61673  1.0000
  H   H3398     1.0  0.96402  0.45364  0.66131  1.0000
  H   H3399     1.0  0.69736  0.33911  0.61448  1.0000
  C   C1918     1.0  0.83012  0.26712  0.97550  1.0000
  S   S422      1.0  0.96916  0.48728  0.89568  1.0000
  H   H3400     1.0  0.75196  0.26011  0.54598  1.0000
  C   C1919     1.0  0.64808  0.28913  0.00206  1.0000
  H   H3401     1.0  0.91103  0.42976  0.54147  1.0000
  C   C1920     1.0  0.76108  0.27942  0.64594  1.0000
  H   H3402     1.0  0.66275  0.36927  0.71992  1.0000
  H   H3403     1.0  0.94294  0.48016  0.68559  1.0000
  C   C1921     1.0  0.89318  0.46161  0.97107  1.0000
  C   C1922     1.0  0.68752  0.26146  0.90450  1.0000
  C   C1923     1.0  0.68044  0.39519  0.67205  1.0000
  C   C1924     1.0  0.75867  0.25819  0.63467  1.0000
  H   H3404     1.0  0.97479  0.42341  0.71272  1.0000
  C   C1925     1.0  0.84497  0.25785  0.72204  1.0000
  H   H3405     1.0  0.71071  0.29995  0.93752  1.0000
  H   H3406     1.0  0.79190  0.31806  0.01397  1.0000
  H   H3407     1.0  0.77376  0.25593  0.96145  1.0000
  H   H3408     1.0  0.69917  0.26453  0.56728  1.0000
  C   C1926     1.0  0.65915  0.26593  0.54948  1.0000
  H   H3409     1.0  0.97422  0.49727  0.63537  1.0000
  H   H3410     1.0  0.70974  0.25539  0.73174  1.0000
  H   H3411     1.0  0.65227  0.33620  0.96800  1.0000
  H   H3412     1.0  0.65579  0.26687  0.58129  1.0000
  C   C1927     1.0  0.69351  0.25595  0.67775  1.0000
  H   H3413     1.0  0.65605  0.31501  0.52932  1.0000
  H   H3414     1.0  0.65814  0.29198  0.91724  1.0000
  H   H3415     1.0  0.85938  0.26099  0.73066  1.0000
  H   H3416     1.0  0.64971  0.39713  0.81019  1.0000
  C   C1928     1.0  0.87247  0.39144  0.52159  1.0000
  C   C1929     1.0  0.64753  0.32486  0.98854  1.0000
  H   H3417     1.0  0.85076  0.26750  0.52210  1.0000
  H   H3418     1.0  0.86848  0.34248  0.51596  1.0000
  H   H3419     1.0  0.87333  0.44250  0.99613  1.0000
  H   H3420     1.0  0.86922  0.36403  0.00385  1.0000
  H   H3421     1.0  0.93195  0.39482  0.01220  1.0000
  C   C1930     1.0  0.88295  0.37060  0.00559  1.0000
  H   H3422     1.0  0.97192  0.49158  0.53129  1.0000
  C   C1931     1.0  0.88413  0.45269  0.00707  1.0000
  S   S423      1.0  0.64535  0.32735  0.82695  1.0000
  Fe  Fe210     1.0  0.66049  0.69165  0.42772  1.0000
  S   S424      1.0  0.69211  0.69112  0.42275  1.0000
  H   H3423     1.0  0.77870  0.74321  0.13963  1.0000
  Fe  Fe211     1.0  0.65514  0.66707  0.35443  1.0000
  S   S425      1.0  0.68643  0.66427  0.34391  1.0000
  H   H3424     1.0  0.81933  0.63590  0.44234  1.0000
  Fe  Fe212     1.0  0.68905  0.65962  0.40918  1.0000
  S   S426      1.0  0.70912  0.63670  0.43475  1.0000
  Fe  Fe213     1.0  0.68682  0.69599  0.35850  1.0000
  S   S427      1.0  0.70485  0.71760  0.32761  1.0000
  S   S428      1.0  0.65756  0.65960  0.41859  1.0000
  S   S429      1.0  0.65538  0.69934  0.36449  1.0000
  Fe  Fe214     1.0  0.82752  0.66301  0.07163  1.0000
  S   S430      1.0  0.80124  0.66423  0.10767  1.0000
  S   S431      1.0  0.84063  0.63298  0.06249  1.0000
  C   C1932     1.0  0.88581  0.59762  0.49749  1.0000
  H   H3425     1.0  0.92876  0.53019  0.50292  1.0000
  H   H3426     1.0  0.70665  0.68734  0.08329  1.0000
  Fe  Fe215     1.0  0.81241  0.69168  0.13250  1.0000
  S   S432      1.0  0.80728  0.69723  0.19644  1.0000
  H   H3427     1.0  0.70472  0.66137  0.13138  1.0000
  C   C1933     1.0  0.69290  0.67229  0.12924  1.0000
  S   S433      1.0  0.83994  0.68928  0.10044  1.0000
  H   H3428     1.0  0.91773  0.51499  0.43456  1.0000
  Fe  Fe216     1.0  0.92667  0.57875  0.18039  1.0000
  S   S434      1.0  0.92801  0.55069  0.14631  1.0000
  S   S435      1.0  0.91326  0.60827  0.16544  1.0000
  C   C1934     1.0  0.74267  0.71601  0.13084  1.0000
  H   H3429     1.0  0.75302  0.70166  0.47140  1.0000
  C   C1935     1.0  0.95047  0.52927  0.36544  1.0000
  Fe  Fe217     1.0  0.92685  0.53604  0.20516  1.0000
  H   H3430     1.0  0.92657  0.58260  0.08528  1.0000
  H   H3431     1.0  0.69006  0.66966  0.06660  1.0000
  S   S436      1.0  0.92250  0.56398  0.23860  1.0000
  H   H3432     1.0  0.80265  0.61660  0.44292  1.0000
  H   H3433     1.0  0.92270  0.66292  0.27108  1.0000
  C   C1936     1.0  0.83181  0.74338  0.50723  1.0000
  H   H3434     1.0  0.85888  0.69025  0.27041  1.0000
  H   H3435     1.0  0.92928  0.64196  0.24195  1.0000
  H   H3436     1.0  0.89838  0.51564  0.49417  1.0000
  H   H3437     1.0  0.96893  0.55140  0.41958  1.0000
  C   C1937     1.0  0.81911  0.71735  0.21517  1.0000
  C   C1938     1.0  0.83374  0.72573  0.19443  1.0000
  H   H3438     1.0  0.74856  0.73569  0.28349  1.0000
  S   S437      1.0  0.67459  0.74177  0.15863  1.0000
  H   H3439     1.0  0.77018  0.71790  0.45273  1.0000
  H   H3440     1.0  0.83734  0.72037  0.16555  1.0000
  C   C1939     1.0  0.88355  0.66163  0.25532  1.0000
  C   C1940     1.0  0.84336  0.72178  0.44183  1.0000
  C   C1941     1.0  0.90033  0.65229  0.23235  1.0000
  H   H3441     1.0  0.84791  0.71347  0.41648  1.0000
  H   H3442     1.0  0.89378  0.69953  0.14754  1.0000
  C   C1942     1.0  0.86098  0.62601  0.09054  1.0000
  C   C1943     1.0  0.86581  0.60623  0.09541  1.0000
  C   C1944     1.0  0.88184  0.60040  0.11810  1.0000
  C   C1945     1.0  0.89332  0.61437  0.13541  1.0000
  C   C1946     1.0  0.88874  0.63410  0.12956  1.0000
  C   C1947     1.0  0.87252  0.63991  0.10775  1.0000
  H   H3443     1.0  0.85698  0.59538  0.08207  1.0000
  H   H3444     1.0  0.88528  0.58516  0.12231  1.0000
  H   H3445     1.0  0.89782  0.64494  0.14206  1.0000
  H   H3446     1.0  0.86916  0.65515  0.10361  1.0000
  C   C1948     1.0  0.69542  0.72546  0.28212  1.0000
  C   C1949     1.0  0.67983  0.71637  0.26522  1.0000
  H   H3447     1.0  0.66158  0.71426  0.21415  1.0000
  H   H3448     1.0  0.84004  0.68346  0.23931  1.0000
  S   S438      1.0  0.81382  0.67960  0.02138  1.0000
  H   H3449     1.0  0.92833  0.53355  0.32146  1.0000
  H   H3450     1.0  0.67295  0.70494  0.28086  1.0000
  H   H3451     1.0  0.89482  0.69436  0.21977  1.0000
  H   H3452     1.0  0.88683  0.53805  0.47942  1.0000
  C   C1950     1.0  0.90189  0.50942  0.28733  1.0000
  C   C1951     1.0  0.66947  0.73636  0.45217  1.0000
  C   C1952     1.0  0.70420  0.74027  0.26157  1.0000
  C   C1953     1.0  0.75722  0.72382  0.29731  1.0000
  H   H3453     1.0  0.67272  0.72681  0.42793  1.0000
  C   C1954     1.0  0.65644  0.73106  0.48032  1.0000
  S   S439      1.0  0.64682  0.70785  0.47799  1.0000
  C   C1955     1.0  0.72599  0.64416  0.47000  1.0000
  C   C1956     1.0  0.72479  0.66269  0.48653  1.0000
  C   C1957     1.0  0.69245  0.68137  0.08835  1.0000
  H   H3454     1.0  0.87259  0.70747  0.22457  1.0000
  H   H3455     1.0  0.87790  0.67027  0.17387  1.0000
  C   C1958     1.0  0.74063  0.63131  0.48234  1.0000
  H   H3456     1.0  0.71360  0.67261  0.47768  1.0000
  H   H3457     1.0  0.94282  0.55246  0.06126  1.0000
  H   H3458     1.0  0.64969  0.65082  0.51199  1.0000
  H   H3459     1.0  0.74168  0.61692  0.46965  1.0000
  H   H3460     1.0  0.94731  0.51077  0.13277  1.0000
  H   H3461     1.0  0.65087  0.68664  0.03421  1.0000
  H   H3462     1.0  0.94952  0.54499  0.37218  1.0000
  C   C1959     1.0  0.82437  0.73976  0.26907  1.0000
  C   C1960     1.0  0.90040  0.52958  0.47870  1.0000
  H   H3463     1.0  0.89648  0.63794  0.22034  1.0000
  H   H3464     1.0  0.89286  0.51652  0.42278  1.0000
  H   H3465     1.0  0.85552  0.74712  0.19581  1.0000
  Fe  Fe218     1.0  0.78849  0.68289  0.06019  1.0000
  H   H3466     1.0  0.81851  0.63089  0.16410  1.0000
  H   H3467     1.0  0.66882  0.73463  0.07174  1.0000
  H   H3468     1.0  0.83734  0.69159  0.32720  1.0000
  C   C1961     1.0  0.84109  0.74200  0.43909  1.0000
  H   H3469     1.0  0.90687  0.53783  0.41844  1.0000
  H   H3470     1.0  0.94197  0.51111  0.31619  1.0000
  Fe  Fe219     1.0  0.95426  0.56376  0.24367  1.0000
  H   H3471     1.0  0.88040  0.65125  0.27913  1.0000
  H   H3472     1.0  0.85504  0.66063  0.31212  1.0000
  H   H3473     1.0  0.91428  0.63914  0.28373  1.0000
  H   H3474     1.0  0.65144  0.74389  0.28803  1.0000
  H   H3475     1.0  0.80188  0.71660  0.42711  1.0000
  H   H3476     1.0  0.92185  0.55132  0.47693  1.0000
  H   H3477     1.0  0.84016  0.65756  0.16654  1.0000
  H   H3478     1.0  0.94108  0.52148  0.38547  1.0000
  H   H3479     1.0  0.86767  0.64016  0.19646  1.0000
  N   N108      1.0  0.86585  0.66633  0.23145  1.0000
  H   H3480     1.0  0.72499  0.71394  0.51263  1.0000
  H   H3481     1.0  0.79282  0.62252  0.06254  1.0000
  N   N109      1.0  0.77994  0.68111  0.41973  1.0000
  C   C1962     1.0  0.76021  0.67437  0.41082  1.0000
  C   C1963     1.0  0.78108  0.68789  0.46191  1.0000
  C   C1964     1.0  0.78417  0.69720  0.39158  1.0000
  C   C1965     1.0  0.79449  0.66488  0.41439  1.0000
  C   C1966     1.0  0.78977  0.64511  0.43305  1.0000
  C   C1967     1.0  0.75686  0.66694  0.36819  1.0000
  C   C1968     1.0  0.80276  0.70796  0.39958  1.0000
  C   C1969     1.0  0.76814  0.70559  0.47272  1.0000
  H   H3482     1.0  0.97120  0.50595  0.35839  1.0000
  C   C1970     1.0  0.80618  0.63042  0.42839  1.0000
  C   C1971     1.0  0.73804  0.65681  0.36409  1.0000
  H   H3483     1.0  0.94511  0.56666  0.50285  1.0000
  H   H3484     1.0  0.74961  0.68638  0.41502  1.0000
  H   H3485     1.0  0.75612  0.66309  0.43213  1.0000
  H   H3486     1.0  0.77729  0.67604  0.48214  1.0000
  H   H3487     1.0  0.79596  0.69133  0.47023  1.0000
  H   H3488     1.0  0.77230  0.70815  0.39030  1.0000
  H   H3489     1.0  0.78516  0.69136  0.36113  1.0000
  H   H3490     1.0  0.79728  0.66220  0.38274  1.0000
  H   H3491     1.0  0.80842  0.66908  0.42718  1.0000
  H   H3492     1.0  0.77713  0.63880  0.41869  1.0000
  H   H3493     1.0  0.78693  0.64672  0.46484  1.0000
  H   H3494     1.0  0.75638  0.67937  0.34750  1.0000
  H   H3495     1.0  0.76816  0.65656  0.35876  1.0000
  H   H3496     1.0  0.81501  0.69764  0.40210  1.0000
  H   H3497     1.0  0.75315  0.72598  0.11891  1.0000
  H   H3498     1.0  0.88487  0.60499  0.46854  1.0000
  H   H3499     1.0  0.77119  0.72973  0.30562  1.0000
  H   H3500     1.0  0.69505  0.68360  0.15203  1.0000
  S   S440      1.0  0.95842  0.58014  0.18779  1.0000
  H   H3501     1.0  0.73175  0.71150  0.03999  1.0000
  H   H3502     1.0  0.74089  0.70401  0.10941  1.0000
  H   H3503     1.0  0.84401  0.74924  0.41179  1.0000
  H   H3504     1.0  0.66344  0.69124  0.09585  1.0000
  H   H3505     1.0  0.73491  0.65368  0.33269  1.0000
  H   H3506     1.0  0.73876  0.64285  0.38025  1.0000
  H   H3507     1.0  0.72634  0.66611  0.37588  1.0000
  S   S441      1.0  0.96777  0.57229  0.30158  1.0000
  C   C1972     1.0  0.80671  0.72177  0.36589  1.0000
  H   H3508     1.0  0.95196  0.58430  0.08760  1.0000
  C   C1973     1.0  0.84369  0.66590  0.29166  1.0000
  C   C1974     1.0  0.88094  0.69758  0.20528  1.0000
  H   H3509     1.0  0.72899  0.72417  0.13400  1.0000
  H   H3510     1.0  0.82746  0.65673  0.21196  1.0000
  C   C1975     1.0  0.88480  0.70855  0.16740  1.0000
  H   H3511     1.0  0.81785  0.68373  0.29632  1.0000
  C   C1976     1.0  0.83505  0.75276  0.47163  1.0000
  C   C1977     1.0  0.83386  0.72312  0.50979  1.0000
  C   C1978     1.0  0.94142  0.56516  0.04146  1.0000
  C   C1979     1.0  0.67678  0.69755  0.08530  1.0000
  H   H3512     1.0  0.95719  0.52357  0.44828  1.0000
  H   H3513     1.0  0.85625  0.63715  0.24151  1.0000
  S   S442      1.0  0.95822  0.53476  0.21495  1.0000
  C   C1980     1.0  0.82999  0.67875  0.31522  1.0000
  H   H3514     1.0  0.80804  0.71371  0.33783  1.0000
  H   H3515     1.0  0.80879  0.62744  0.39681  1.0000
  C   C1981     1.0  0.83143  0.62931  0.18289  1.0000
  C   C1982     1.0  0.85771  0.64757  0.21690  1.0000
  H   H3516     1.0  0.85657  0.68359  0.18158  1.0000
  C   C1983     1.0  0.70444  0.72570  0.05008  1.0000
  H   H3517     1.0  0.70532  0.72218  0.08173  1.0000
  C   C1984     1.0  0.97120  0.52134  0.36845  1.0000
  H   H3518     1.0  0.68018  0.70880  0.10763  1.0000
  C   C1985     1.0  0.91766  0.64894  0.25910  1.0000
  S   S443      1.0  0.75760  0.67876  0.04600  1.0000
  H   H3519     1.0  0.67941  0.66494  0.13493  1.0000
  H   H3520     1.0  0.76795  0.61725  0.06401  1.0000
  H   H3521     1.0  0.67069  0.63743  0.49711  1.0000
  H   H3522     1.0  0.84229  0.62104  0.16593  1.0000
  H   H3523     1.0  0.64741  0.62274  0.35270  1.0000
  C   C1986     1.0  0.84399  0.74085  0.21154  1.0000
  H   H3524     1.0  0.93839  0.59660  0.04909  1.0000
  C   C1987     1.0  0.75348  0.63675  0.51218  1.0000
  H   H3525     1.0  0.82448  0.67042  0.34023  1.0000
  H   H3526     1.0  0.70063  0.69791  0.01996  1.0000
  H   H3527     1.0  0.77510  0.64176  0.05682  1.0000
  C   C1988     1.0  0.83854  0.64934  0.19418  1.0000
  H   H3528     1.0  0.83568  0.65329  0.28086  1.0000
  H   H3529     1.0  0.66164  0.73345  0.02208  1.0000
  C   C1989     1.0  0.85205  0.67737  0.25716  1.0000
  N   N110      1.0  0.74055  0.68314  0.22405  1.0000
  C   C1990     1.0  0.75932  0.67224  0.22168  1.0000
  C   C1991     1.0  0.74079  0.69739  0.25804  1.0000
  C   C1992     1.0  0.72553  0.66840  0.23159  1.0000
  C   C1993     1.0  0.73537  0.69326  0.18599  1.0000
  C   C1994     1.0  0.74947  0.70809  0.17066  1.0000
  C   C1995     1.0  0.76120  0.65690  0.18843  1.0000
  C   C1996     1.0  0.70569  0.67661  0.24315  1.0000
  C   C1997     1.0  0.75994  0.70699  0.26842  1.0000
  C   C1998     1.0  0.87002  0.67879  0.19645  1.0000
  H   H3530     1.0  0.89507  0.52306  0.27898  1.0000
  C   C1999     1.0  0.78012  0.64571  0.19199  1.0000
  C   C2000     1.0  0.69092  0.66080  0.24217  1.0000
  H   H3531     1.0  0.76250  0.66489  0.25024  1.0000
  H   H3532     1.0  0.77111  0.68225  0.21734  1.0000
  H   H3533     1.0  0.72988  0.70910  0.25312  1.0000
  H   H3534     1.0  0.73668  0.69019  0.28581  1.0000
  H   H3535     1.0  0.73024  0.65828  0.25553  1.0000
  H   H3536     1.0  0.72320  0.65924  0.20510  1.0000
  H   H3537     1.0  0.73296  0.68244  0.16221  1.0000
  H   H3538     1.0  0.72170  0.70147  0.18875  1.0000
  H   H3539     1.0  0.76383  0.70150  0.16686  1.0000
  H   H3540     1.0  0.75016  0.72065  0.19095  1.0000
  H   H3541     1.0  0.74999  0.64601  0.18956  1.0000
  H   H3542     1.0  0.76057  0.66404  0.15921  1.0000
  H   H3543     1.0  0.70057  0.68822  0.22305  1.0000
  H   H3544     1.0  0.70612  0.68264  0.27337  1.0000
  H   H3545     1.0  0.76976  0.69613  0.28251  1.0000
  H   H3546     1.0  0.76709  0.71263  0.24231  1.0000
  H   H3547     1.0  0.90466  0.66157  0.20772  1.0000
  H   H3548     1.0  0.82023  0.72914  0.37154  1.0000
  H   H3549     1.0  0.80298  0.71808  0.26823  1.0000
  H   H3550     1.0  0.95180  0.53388  0.30218  1.0000
  H   H3551     1.0  0.87133  0.71259  0.15191  1.0000
  H   H3552     1.0  0.78161  0.63546  0.16690  1.0000
  H   H3553     1.0  0.79209  0.65582  0.19158  1.0000
  H   H3554     1.0  0.78087  0.63726  0.21971  1.0000
  H   H3555     1.0  0.68898  0.65510  0.21188  1.0000
  H   H3556     1.0  0.69523  0.64865  0.26198  1.0000
  H   H3557     1.0  0.67706  0.66692  0.25213  1.0000
  H   H3558     1.0  0.88866  0.67479  0.27079  1.0000
  C   C2001     1.0  0.67345  0.72160  0.22738  1.0000
  C   C2002     1.0  0.77861  0.62640  0.04993  1.0000
  H   H3559     1.0  0.82794  0.62097  0.20957  1.0000
  H   H3560     1.0  0.71627  0.74734  0.27445  1.0000
  S   S444      1.0  0.91355  0.50682  0.21089  1.0000
  C   C2003     1.0  0.93955  0.58328  0.06733  1.0000
  C   C2004     1.0  0.65196  0.74393  0.51102  1.0000
  H   H3561     1.0  0.89243  0.51094  0.34723  1.0000
  C   C2005     1.0  0.83928  0.71224  0.47684  1.0000
  N   N111      1.0  0.67365  0.70648  0.04518  1.0000
  Fe  Fe220     1.0  0.82405  0.70605  0.05303  1.0000
  C   C2006     1.0  0.77237  0.71275  0.51439  1.0000
  C   C2007     1.0  0.89793  0.57901  0.49419  1.0000
  C   C2008     1.0  0.90483  0.52453  0.43602  1.0000
  H   H3562     1.0  0.79516  0.73291  0.36277  1.0000
  Fe  Fe221     1.0  0.95932  0.55104  0.15827  1.0000
  H   H3563     1.0  0.89210  0.57042  0.46943  1.0000
  H   H3564     1.0  0.89234  0.72207  0.17451  1.0000
  C   C2009     1.0  0.66199  0.72496  0.04977  1.0000
  S   S445      1.0  0.79764  0.71053  0.08794  1.0000
  C   C2010     1.0  0.83932  0.74791  0.24897  1.0000
  S   S446      1.0  0.84028  0.68675  0.47800  1.0000
  C   C2011     1.0  0.68237  0.73620  0.20662  1.0000
  H   H3565     1.0  0.69830  0.74063  0.04723  1.0000
  C   C2012     1.0  0.94270  0.52673  0.32375  1.0000
  C   C2013     1.0  0.81438  0.72445  0.25234  1.0000
  H   H3566     1.0  0.75011  0.71895  0.32433  1.0000
  C   C2014     1.0  0.91675  0.54080  0.49863  1.0000
  H   H3567     1.0  0.67692  0.67227  0.50172  1.0000
  H   H3568     1.0  0.82077  0.74494  0.29789  1.0000
  H   H3569     1.0  0.97125  0.56774  0.03456  1.0000
  H   H3570     1.0  0.87123  0.59442  0.50703  1.0000
  C   C2015     1.0  0.69764  0.74570  0.22393  1.0000
  H   H3571     1.0  0.70558  0.73033  0.49946  1.0000
  H   H3572     1.0  0.77681  0.74605  0.21135  1.0000
  H   H3573     1.0  0.73266  0.73710  0.05003  1.0000
  H   H3574     1.0  0.77493  0.74447  0.07544  1.0000
  C   C2016     1.0  0.69213  0.71134  0.02650  1.0000
  C   C2017     1.0  0.96844  0.51316  0.43816  1.0000
  H   H3575     1.0  0.92801  0.56405  0.02435  1.0000
  C   C2018     1.0  0.72457  0.72572  0.03463  1.0000
  H   H3576     1.0  0.91237  0.58315  0.48617  1.0000
  H   H3577     1.0  0.95616  0.52815  0.02984  1.0000
  C   C2019     1.0  0.66367  0.69199  0.01944  1.0000
  S   S447      1.0  0.83647  0.73233  0.02503  1.0000
  H   H3578     1.0  0.76925  0.74513  0.41346  1.0000
  H   H3579     1.0  0.67289  0.67886  0.01499  1.0000
  H   H3580     1.0  0.79356  0.74924  0.01759  1.0000
  Fe  Fe222     1.0  0.67247  0.70344  0.85333  1.0000
  S   S448      1.0  0.69966  0.70691  0.82161  1.0000
  C   C2020     1.0  0.70411  0.71858  0.55871  1.0000
  Fe  Fe223     1.0  0.66824  0.66169  0.82698  1.0000
  S   S449      1.0  0.69539  0.66136  0.79310  1.0000
  H   H3581     1.0  0.73618  0.68222  0.52978  1.0000
  Fe  Fe224     1.0  0.70747  0.67741  0.84502  1.0000
  S   S450      1.0  0.73796  0.67368  0.86517  1.0000
  Fe  Fe225     1.0  0.68563  0.69098  0.77261  1.0000
  S   S451      1.0  0.69059  0.70158  0.71135  1.0000
  S   S452      1.0  0.68128  0.67516  0.88105  1.0000
  C   C2021     1.0  0.75134  0.67955  0.99594  1.0000
  Fe  Fe226     1.0  0.83434  0.63669  0.58333  1.0000
  S   S453      1.0  0.81278  0.64772  0.62638  1.0000
  S   S454      1.0  0.84797  0.60711  0.59486  1.0000
  C   C2022     1.0  0.81327  0.64335  0.92988  1.0000
  S   S455      1.0  0.80976  0.68762  0.57433  1.0000
  H   H3582     1.0  0.91145  0.59954  0.72420  1.0000
  Fe  Fe227     1.0  0.82808  0.67559  0.62306  1.0000
  S   S456      1.0  0.83453  0.68953  0.68122  1.0000
  Fe  Fe228     1.0  0.79620  0.65865  0.57396  1.0000
  S   S457      1.0  0.76434  0.66104  0.57267  1.0000
  S   S458      1.0  0.85084  0.66399  0.58352  1.0000
  H   H3583     1.0  0.75239  0.62775  0.86021  1.0000
  Fe  Fe229     1.0  0.94944  0.57978  0.67562  1.0000
  S   S459      1.0  0.94972  0.54935  0.65237  1.0000
  S   S460      1.0  0.93487  0.60499  0.64411  1.0000
  C   C2023     1.0  0.82813  0.73832  0.97745  1.0000
  H   H3584     1.0  0.82033  0.63729  0.90326  1.0000
  H   H3585     1.0  0.83807  0.69888  0.81396  1.0000
  Fe  Fe230     1.0  0.94910  0.54034  0.71550  1.0000
  H   H3586     1.0  0.83272  0.67067  0.88757  1.0000
  H   H3587     1.0  0.90475  0.63573  0.77549  1.0000
  S   S461      1.0  0.94593  0.57071  0.73826  1.0000
  H   H3588     1.0  0.70148  0.69004  0.53444  1.0000
  C   C2024     1.0  0.81516  0.74869  0.90157  1.0000
  H   H3589     1.0  0.78904  0.73983  0.77213  1.0000
  H   H3590     1.0  0.88718  0.53081  0.65955  1.0000
  C   C2025     1.0  0.87941  0.68929  0.73888  1.0000
  C   C2026     1.0  0.73371  0.67275  0.98357  1.0000
  C   C2027     1.0  0.84229  0.72398  0.71562  1.0000
  C   C2028     1.0  0.83834  0.71448  0.68022  1.0000
  C   C2029     1.0  0.83671  0.72510  0.64534  1.0000
  H   H3591     1.0  0.80560  0.63676  0.00356  1.0000
  C   C2030     1.0  0.69176  0.68553  0.61336  1.0000
  H   H3592     1.0  0.84364  0.71587  0.74258  1.0000
  H   H3593     1.0  0.83361  0.71784  0.61789  1.0000
  H   H3594     1.0  0.81902  0.69178  0.90245  1.0000
  H   H3595     1.0  0.92692  0.52714  0.87455  1.0000
  C   C2031     1.0  0.69174  0.70113  0.54703  1.0000
  H   H3596     1.0  0.77250  0.64574  0.92360  1.0000
  H   H3597     1.0  0.82741  0.75171  0.53266  1.0000
  C   C2032     1.0  0.87218  0.60641  0.60819  1.0000
  C   C2033     1.0  0.87951  0.59121  0.63166  1.0000
  C   C2034     1.0  0.89884  0.59033  0.64240  1.0000
  C   C2035     1.0  0.91090  0.60465  0.62947  1.0000
  C   C2036     1.0  0.90358  0.61976  0.60583  1.0000
  C   C2037     1.0  0.88429  0.62065  0.59526  1.0000
  H   H3598     1.0  0.87013  0.58022  0.64197  1.0000
  H   H3599     1.0  0.90432  0.57879  0.66115  1.0000
  H   H3600     1.0  0.91286  0.63090  0.59581  1.0000
  H   H3601     1.0  0.87887  0.63221  0.57657  1.0000
  C   C2038     1.0  0.68531  0.72650  0.70614  1.0000
  C   C2039     1.0  0.67387  0.73636  0.73327  1.0000
  H   H3602     1.0  0.76461  0.70361  0.83012  1.0000
  H   H3603     1.0  0.76504  0.72881  0.00932  1.0000
  C   C2040     1.0  0.89080  0.52553  0.62963  1.0000
  Fe  Fe231     1.0  0.97774  0.56961  0.74172  1.0000
  H   H3604     1.0  0.94992  0.50555  0.63913  1.0000
  H   H3605     1.0  0.88292  0.56169  0.53478  1.0000
  H   H3606     1.0  0.80624  0.71242  0.82782  1.0000
  C   C2041     1.0  0.76708  0.71718  0.81349  1.0000
  C   C2042     1.0  0.67388  0.73918  0.91980  1.0000
  H   H3607     1.0  0.78593  0.63507  0.88497  1.0000
  C   C2043     1.0  0.88864  0.74783  0.61104  1.0000
  H   H3608     1.0  0.69922  0.72706  0.89397  1.0000
  S   S462      1.0  0.93122  0.51609  0.73672  1.0000
  H   H3609     1.0  0.82112  0.67993  0.81852  1.0000
  C   C2044     1.0  0.74213  0.67757  0.91551  1.0000
  C   C2045     1.0  0.75944  0.68511  0.92799  1.0000
  H   H3610     1.0  0.69925  0.69773  0.62742  1.0000
  H   H3611     1.0  0.77433  0.60349  0.89403  1.0000
  H   H3612     1.0  0.93582  0.56090  0.95920  1.0000
  C   C2046     1.0  0.72906  0.67183  0.94337  1.0000
  H   H3613     1.0  0.76943  0.68990  0.90652  1.0000
  H   H3614     1.0  0.69377  0.75168  0.82873  1.0000
  C   C2047     1.0  0.74986  0.68528  0.76745  1.0000
  H   H3615     1.0  0.71572  0.66591  0.93390  1.0000
  H   H3616     1.0  0.91651  0.60202  0.77597  1.0000
  H   H3617     1.0  0.87902  0.69604  0.70935  1.0000
  H   H3618     1.0  0.96954  0.56128  0.55539  1.0000
  C   C2048     1.0  0.88770  0.70403  0.76751  1.0000
  H   H3619     1.0  0.91134  0.54716  0.62266  1.0000
  H   H3620     1.0  0.82917  0.68690  0.77053  1.0000
  H   H3621     1.0  0.93951  0.54481  0.56416  1.0000
  H   H3622     1.0  0.67030  0.62006  0.77596  1.0000
  C   C2049     1.0  0.66773  0.67674  0.56250  1.0000
  N   N112      1.0  0.88497  0.65466  0.71061  1.0000
  C   C2050     1.0  0.86562  0.64802  0.72199  1.0000
  C   C2051     1.0  0.89118  0.66996  0.73945  1.0000
  C   C2052     1.0  0.88377  0.66250  0.66931  1.0000
  C   C2053     1.0  0.89930  0.63806  0.71165  1.0000
  C   C2054     1.0  0.90060  0.62635  0.75047  1.0000
  C   C2055     1.0  0.85758  0.63105  0.69737  1.0000
  C   C2056     1.0  0.90178  0.67229  0.65415  1.0000
  C   C2057     1.0  0.91546  0.60995  0.74765  1.0000
  C   C2058     1.0  0.83841  0.62504  0.71279  1.0000
  C   C2059     1.0  0.89854  0.68009  0.61254  1.0000
  H   H3623     1.0  0.85505  0.66011  0.71906  1.0000
  H   H3624     1.0  0.86539  0.64406  0.75362  1.0000
  H   H3625     1.0  0.89046  0.66442  0.77002  1.0000
  H   H3626     1.0  0.90636  0.67330  0.73523  1.0000
  H   H3627     1.0  0.87156  0.67290  0.66589  1.0000
  H   H3628     1.0  0.88074  0.65066  0.64819  1.0000
  H   H3629     1.0  0.89654  0.62773  0.68731  1.0000
  H   H3630     1.0  0.91377  0.64335  0.70618  1.0000
  H   H3631     1.0  0.88694  0.61963  0.75719  1.0000
  H   H3632     1.0  0.85535  0.63544  0.66629  1.0000
  H   H3633     1.0  0.86716  0.61805  0.69821  1.0000
  H   H3634     1.0  0.91390  0.66173  0.65313  1.0000
  H   H3635     1.0  0.90580  0.68468  0.67302  1.0000
  H   H3636     1.0  0.92960  0.61574  0.74103  1.0000
  H   H3637     1.0  0.83990  0.61947  0.74327  1.0000
  H   H3638     1.0  0.82814  0.63754  0.71216  1.0000
  H   H3639     1.0  0.83272  0.61337  0.69374  1.0000
  H   H3640     1.0  0.91153  0.68715  0.60238  1.0000
  H   H3641     1.0  0.89527  0.66808  0.59190  1.0000
  H   H3642     1.0  0.88665  0.69100  0.61191  1.0000
  H   H3643     1.0  0.88771  0.69836  0.79803  1.0000
  H   H3644     1.0  0.78640  0.65087  0.98511  1.0000
  H   H3645     1.0  0.78110  0.60743  0.00093  1.0000
  H   H3646     1.0  0.77841  0.72192  0.69091  1.0000
  H   H3647     1.0  0.89233  0.60768  0.51895  1.0000
  Fe  Fe232     1.0  0.83099  0.67336  0.53456  1.0000
  H   H3648     1.0  0.90239  0.70746  0.75926  1.0000
  C   C2060     1.0  0.70643  0.66909  0.60499  1.0000
  H   H3649     1.0  0.83644  0.75365  0.61967  1.0000
  H   H3650     1.0  0.86465  0.68680  0.74789  1.0000
  C   C2061     1.0  0.96112  0.57510  0.55341  1.0000
  C   C2062     1.0  0.92564  0.53228  0.90539  1.0000
  C   C2063     1.0  0.66248  0.65480  0.70750  1.0000
  H   H3651     1.0  0.67489  0.72020  0.60877  1.0000
  H   H3652     1.0  0.66485  0.59135  0.73310  1.0000
  C   C2064     1.0  0.66662  0.75164  0.94868  1.0000
  H   H3653     1.0  0.74009  0.60882  0.88486  1.0000
  S   S463      1.0  0.65748  0.69008  0.80192  1.0000
  C   C2065     1.0  0.96761  0.53194  0.00938  1.0000
  H   H3654     1.0  0.72453  0.72868  0.00263  1.0000
  H   H3655     1.0  0.87897  0.71767  0.76658  1.0000
  H   H3656     1.0  0.71543  0.67261  0.57999  1.0000
  H   H3657     1.0  0.66861  0.72880  0.75852  1.0000
  H   H3658     1.0  0.71441  0.71447  0.58237  1.0000
  H   H3659     1.0  0.81883  0.57380  0.97157  1.0000
  H   H3660     1.0  0.74842  0.71302  0.73795  1.0000
  H   H3661     1.0  0.90430  0.74852  0.60949  1.0000
  H   H3662     1.0  0.72780  0.68266  0.72265  1.0000
  C   C2066     1.0  0.82538  0.69233  0.80023  1.0000
  H   H3663     1.0  0.91538  0.54476  0.90589  1.0000
  H   H3664     1.0  0.65442  0.68303  0.54909  1.0000
  H   H3665     1.0  0.65754  0.69670  0.65012  1.0000
  H   H3666     1.0  0.68268  0.67977  0.63672  1.0000
  C   C2067     1.0  0.94502  0.53825  0.92107  1.0000
  H   H3667     1.0  0.66137  0.65208  0.73954  1.0000
  C   C2068     1.0  0.84396  0.74410  0.71661  1.0000
  C   C2069     1.0  0.93010  0.55752  0.55634  1.0000
  H   H3668     1.0  0.74872  0.66750  0.71428  1.0000
  C   C2070     1.0  0.80593  0.60959  0.94140  1.0000
  H   H3669     1.0  0.83507  0.61449  0.96358  1.0000
  H   H3670     1.0  0.80161  0.71987  0.71317  1.0000
  H   H3671     1.0  0.68958  0.71826  0.99736  1.0000
  H   H3672     1.0  0.65919  0.62519  0.68978  1.0000
  H   H3673     1.0  0.88437  0.73285  0.60363  1.0000
  H   H3674     1.0  0.70135  0.72912  0.65314  1.0000
  C   C2071     1.0  0.75159  0.65503  0.52983  1.0000
  C   C2072     1.0  0.89888  0.54210  0.60596  1.0000
  C   C2073     1.0  0.74918  0.62155  0.88939  1.0000
  H   H3675     1.0  0.72092  0.74632  0.93532  1.0000
  H   H3676     1.0  0.75171  0.74489  0.80418  1.0000
  C   C2074     1.0  0.80760  0.73278  0.92087  1.0000
  H   H3677     1.0  0.66365  0.63689  0.54775  1.0000
  C   C2075     1.0  0.66427  0.64617  0.52124  1.0000
  C   C2076     1.0  0.74192  0.73244  0.85719  1.0000
  C   C2077     1.0  0.81411  0.72755  0.95869  1.0000
  H   H3678     1.0  0.77151  0.74088  0.96481  1.0000
  H   H3679     1.0  0.95048  0.54933  0.90076  1.0000
  N   N113      1.0  0.77443  0.71252  0.77302  1.0000
  S   S464      1.0  0.65819  0.72711  0.88850  1.0000
  H   H3680     1.0  0.76006  0.67525  0.78250  1.0000
  H   H3681     1.0  0.95466  0.52543  0.91975  1.0000
  C   C2078     1.0  0.66675  0.70879  0.59359  1.0000
  C   C2079     1.0  0.67635  0.66382  0.52942  1.0000
  H   H3682     1.0  0.81035  0.60614  0.91079  1.0000
  H   H3683     1.0  0.97227  0.52205  0.85216  1.0000
  C   C2080     1.0  0.83852  0.74533  0.64629  1.0000
  N   N114      1.0  0.67984  0.69271  0.57900  1.0000
  H   H3684     1.0  0.79586  0.69310  0.74812  1.0000
  H   H3685     1.0  0.73953  0.69074  0.78932  1.0000
  H   H3686     1.0  0.75297  0.73905  0.87615  1.0000
  H   H3687     1.0  0.79895  0.67130  0.94366  1.0000
  C   C2081     1.0  0.80929  0.70757  0.79744  1.0000
  C   C2082     1.0  0.95353  0.51979  0.80226  1.0000
  H   H3688     1.0  0.65146  0.75309  0.95237  1.0000
  C   C2083     1.0  0.78837  0.72882  0.71182  1.0000
  C   C2084     1.0  0.74884  0.73017  0.81502  1.0000
  H   H3689     1.0  0.77787  0.72502  0.83101  1.0000
  H   H3690     1.0  0.72902  0.74200  0.85761  1.0000
  H   H3691     1.0  0.97295  0.56885  0.94198  1.0000
  S   S465      1.0  0.81616  0.64498  0.53070  1.0000
  C   C2085     1.0  0.78105  0.63254  0.91549  1.0000
  H   H3692     1.0  0.83502  0.58139  0.93408  1.0000
  C   C2086     1.0  0.79313  0.74847  0.69454  1.0000
  C   C2087     1.0  0.77947  0.73114  0.75306  1.0000
  H   H3693     1.0  0.79780  0.66493  0.89267  1.0000
  C   C2088     1.0  0.65123  0.70296  0.62284  1.0000
  H   H3694     1.0  0.93414  0.53750  0.98053  1.0000
  C   C2089     1.0  0.79265  0.63592  0.98461  1.0000
  C   C2090     1.0  0.96204  0.51316  0.83720  1.0000
  C   C2091     1.0  0.69349  0.73691  0.91566  1.0000
  H   H3695     1.0  0.73720  0.72418  0.79697  1.0000
  C   C2092     1.0  0.94019  0.50856  0.78270  1.0000
  H   H3696     1.0  0.69910  0.65534  0.59897  1.0000
  H   H3697     1.0  0.67771  0.65437  0.69972  1.0000
  H   H3698     1.0  0.84658  0.75129  0.74425  1.0000
  H   H3699     1.0  0.76337  0.60932  0.93985  1.0000
  S   S466      1.0  0.64636  0.63869  0.83549  1.0000
  C   C2093     1.0  0.94365  0.54677  0.96326  1.0000
  C   C2094     1.0  0.97227  0.51322  0.98598  1.0000
  H   H3700     1.0  0.77727  0.69222  0.97779  1.0000
  H   H3701     1.0  0.78795  0.68610  0.79483  1.0000
  H   H3702     1.0  0.82462  0.64439  0.95283  1.0000
  H   H3703     1.0  0.76659  0.74050  0.74859  1.0000
  C   C2095     1.0  0.79152  0.69901  0.77725  1.0000
  H   H3704     1.0  0.92697  0.56524  0.58433  1.0000
  H   H3705     1.0  0.81452  0.72008  0.78079  1.0000
  H   H3706     1.0  0.88801  0.55396  0.60462  1.0000
  H   H3707     1.0  0.89896  0.57739  0.55798  1.0000
  H   H3708     1.0  0.80812  0.71536  0.97343  1.0000
  C   C2096     1.0  0.69210  0.73647  0.67370  1.0000
  C   C2097     1.0  0.82301  0.60500  0.96945  1.0000
  H   H3709     1.0  0.73225  0.66113  0.75158  1.0000
  C   C2098     1.0  0.97748  0.55544  0.95819  1.0000
  C   C2099     1.0  0.94201  0.57191  0.53291  1.0000
  H   H3710     1.0  0.91429  0.52272  0.56656  1.0000
  C   C2100     1.0  0.75974  0.70254  0.74806  1.0000
  H   H3711     1.0  0.65655  0.66953  0.70095  1.0000
  H   H3712     1.0  0.95904  0.58103  0.58350  1.0000
  H   H3713     1.0  0.69528  0.73116  0.56860  1.0000
  H   H3714     1.0  0.71136  0.66182  0.66674  1.0000
  C   C2101     1.0  0.76396  0.68629  0.96821  1.0000
  C   C2102     1.0  0.71960  0.66556  0.64039  1.0000
  C   C2103     1.0  0.73901  0.67347  0.73698  1.0000
  H   H3715     1.0  0.66315  0.66714  0.58663  1.0000
  H   H3716     1.0  0.72793  0.67868  0.64670  1.0000
  H   H3717     1.0  0.95907  0.50750  0.97280  1.0000
  C   C2104     1.0  0.80696  0.66450  0.91947  1.0000
  H   H3718     1.0  0.79664  0.72451  0.90660  1.0000
  C   C2105     1.0  0.65418  0.59598  0.75386  1.0000
  C   C2106     1.0  0.82400  0.67703  0.91150  1.0000
  H   H3719     1.0  0.95727  0.53369  0.79062  1.0000
  N   N115      1.0  0.91204  0.55059  0.53718  1.0000
  H   H3720     1.0  0.83125  0.71598  0.53723  1.0000
  H   H3721     1.0  0.76629  0.69685  0.72064  1.0000
  C   C2107     1.0  0.90415  0.53536  0.56388  1.0000
  H   H3722     1.0  0.74111  0.63258  0.90672  1.0000
  H   H3723     1.0  0.72970  0.65338  0.63388  1.0000
  H   H3724     1.0  0.76278  0.72526  0.52151  1.0000
  H   H3725     1.0  0.83295  0.67844  0.93844  1.0000
  H   H3726     1.0  0.76418  0.62647  0.52289  1.0000
  H   H3727     1.0  0.87772  0.52012  0.61530  1.0000
  N   N116      1.0  0.96201  0.54971  0.98578  1.0000
  C   C2108     1.0  0.65726  0.61227  0.77796  1.0000
  C   C2109     1.0  0.89762  0.56710  0.53283  1.0000
  H   H3728     1.0  0.93451  0.58624  0.53144  1.0000
  H   H3729     1.0  0.77007  0.70107  0.53606  1.0000
  H   H3730     1.0  0.67049  0.70121  0.95961  1.0000
  H   H3731     1.0  0.65941  0.71599  0.56821  1.0000
  N   N117      1.0  0.79788  0.63008  0.94327  1.0000
  H   H3732     1.0  0.79513  0.59876  0.94794  1.0000
  H   H3733     1.0  0.84231  0.58121  0.98508  1.0000
  C   C2110     1.0  0.76741  0.61536  0.91127  1.0000
  H   H3734     1.0  0.65352  0.67003  0.95398  1.0000
  H   H3735     1.0  0.75169  0.75015  0.99227  1.0000
  H   H3736     1.0  0.95753  0.58034  0.99802  1.0000
  H   H3737     1.0  0.73830  0.71814  0.86953  1.0000
  H   H3738     1.0  0.89081  0.52961  0.55124  1.0000
  C   C2111     1.0  0.65777  0.69908  0.97770  1.0000
  H   H3739     1.0  0.69090  0.65850  0.53646  1.0000
  H   H3740     1.0  0.92018  0.52023  0.92320  1.0000
  H   H3741     1.0  0.72387  0.66764  0.00502  1.0000
  H   H3742     1.0  0.64815  0.73161  0.64980  1.0000
  C   C2112     1.0  0.65193  0.63943  0.68405  1.0000
  H   H3743     1.0  0.64940  0.71289  0.97853  1.0000
  C   C2113     1.0  0.64567  0.68414  0.95651  1.0000
  H   H3744     1.0  0.95791  0.51291  0.51897  1.0000
  C   C2114     1.0  0.71534  0.72561  0.52366  1.0000
  C   C2115     1.0  0.77823  0.62310  0.00554  1.0000
  C   C2116     1.0  0.83016  0.58404  0.96457  1.0000
  H   H3745     1.0  0.81890  0.60691  0.00061  1.0000
  H   H3746     1.0  0.88406  0.75110  0.64153  1.0000
  H   H3747     1.0  0.76369  0.62692  0.99471  1.0000
  H   H3748     1.0  0.72394  0.73816  0.53267  1.0000
  C   C2117     1.0  0.76600  0.74317  0.99491  1.0000
  H   H3749     1.0  0.65349  0.64265  0.65251  1.0000
  H   H3750     1.0  0.96936  0.58564  0.53652  1.0000
  H   H3751     1.0  0.90141  0.51342  0.63271  1.0000
  H   H3752     1.0  0.68242  0.70589  0.52202  1.0000
  H   H3753     1.0  0.79849  0.74645  0.66425  1.0000
  C   C2118     1.0  0.70576  0.74782  0.93910  1.0000
  C   C2119     1.0  0.73755  0.66809  0.51622  1.0000
  H   H3754     1.0  0.78725  0.71753  0.51698  1.0000
  C   C2120     1.0  0.95888  0.56635  0.01430  1.0000
  Fe  Fe233     1.0  0.67492  0.80892  0.10184  1.0000
  H   H3755     1.0  0.96385  0.84923  0.25296  1.0000
  C   C2121     1.0  0.64778  0.77072  0.32136  1.0000
  Fe  Fe234     1.0  0.68627  0.76877  0.13235  1.0000
  S   S467      1.0  0.71577  0.77000  0.10943  1.0000
  H   H3756     1.0  0.95791  0.95656  0.04986  1.0000
  Fe  Fe235     1.0  0.71501  0.80049  0.13224  1.0000
  S   S468      1.0  0.74177  0.81328  0.15615  1.0000
  C   C2122     1.0  0.81627  0.78359  0.10920  1.0000
  H   H3757     1.0  0.80946  0.77006  0.05445  1.0000
  S   S469      1.0  0.68648  0.79831  0.16020  1.0000
  S   S470      1.0  0.67246  0.77907  0.07622  1.0000
  H   H3758     1.0  0.71411  0.80572  0.43927  1.0000
  H   H3759     1.0  0.87541  0.82743  0.25631  1.0000
  Fe  Fe236     1.0  0.92524  0.88549  0.48870  1.0000
  S   S471      1.0  0.92431  0.91187  0.45033  1.0000
  H   H3760     1.0  0.80682  0.75442  0.09472  1.0000
  H   H3761     1.0  0.87223  0.79644  0.44723  1.0000
  H   H3762     1.0  0.67499  0.84113  0.03802  1.0000
  H   H3763     1.0  0.66729  0.80598  0.29381  1.0000
  S   S472      1.0  0.95167  0.87290  0.46155  1.0000
  C   C2123     1.0  0.77824  0.82185  0.48956  1.0000
  Fe  Fe237     1.0  0.82878  0.78823  0.40552  1.0000
  S   S473      1.0  0.85314  0.79734  0.36898  1.0000
  S   S474      1.0  0.83131  0.77791  0.46809  1.0000
  Fe  Fe238     1.0  0.79929  0.79944  0.34289  1.0000
  S   S475      1.0  0.82111  0.81017  0.30152  1.0000
  S   S476      1.0  0.76798  0.79633  0.33138  1.0000
  Fe  Fe239     1.0  0.83769  0.78326  0.31863  1.0000
  N   N118      1.0  0.76844  0.80262  0.49044  1.0000
  Fe  Fe240     1.0  0.83448  0.82332  0.35535  1.0000
  S   S477      1.0  0.84621  0.85332  0.35716  1.0000
  S   S478      1.0  0.81504  0.77168  0.35680  1.0000
  S   S479      1.0  0.81106  0.81518  0.39518  1.0000
  H   H3764     1.0  0.79725  0.75759  0.15917  1.0000
  C   C2124     1.0  0.78178  0.75739  0.15309  1.0000
  C   C2125     1.0  0.96243  0.97765  0.09579  1.0000
  H   H3765     1.0  0.66575  0.96761  0.25552  1.0000
  C   C2126     1.0  0.72729  0.77150  0.37804  1.0000
  C   C2127     1.0  0.88226  0.78444  0.03080  1.0000
  H   H3766     1.0  0.77780  0.82796  0.45931  1.0000
  C   C2128     1.0  0.88414  0.86404  0.46436  1.0000
  C   C2129     1.0  0.88200  0.87804  0.43492  1.0000
  C   C2130     1.0  0.86968  0.87499  0.40292  1.0000
  C   C2131     1.0  0.85978  0.85773  0.39974  1.0000
  C   C2132     1.0  0.86154  0.84390  0.42966  1.0000
  C   C2133     1.0  0.87358  0.84715  0.46209  1.0000
  H   H3767     1.0  0.88995  0.89115  0.43654  1.0000
  H   H3768     1.0  0.86819  0.88577  0.37998  1.0000
  H   H3769     1.0  0.85375  0.83064  0.42765  1.0000
  H   H3770     1.0  0.87512  0.83632  0.48477  1.0000
  C   C2134     1.0  0.74896  0.80775  0.20449  1.0000
  C   C2135     1.0  0.76532  0.81621  0.21965  1.0000
  C   C2136     1.0  0.77137  0.81247  0.25836  1.0000
  C   C2137     1.0  0.76107  0.80025  0.28214  1.0000
  C   C2138     1.0  0.74484  0.79148  0.26679  1.0000
  C   C2139     1.0  0.73879  0.79518  0.22791  1.0000
  H   H3771     1.0  0.77321  0.82595  0.20162  1.0000
  H   H3772     1.0  0.78369  0.81953  0.27010  1.0000
  H   H3773     1.0  0.73703  0.78176  0.28491  1.0000
  H   H3774     1.0  0.72629  0.78841  0.21613  1.0000
  H   H3775     1.0  0.80630  0.84746  0.46912  1.0000
  C   C2140     1.0  0.96609  0.91264  0.18318  1.0000
  H   H3776     1.0  0.75722  0.76144  0.06172  1.0000
  S   S480      1.0  0.70351  0.81364  0.07623  1.0000
  H   H3777     1.0  0.92353  0.81026  0.40646  1.0000
  H   H3778     1.0  0.64981  0.85034  0.51427  1.0000
  H   H3779     1.0  0.89512  0.78452  0.44279  1.0000
  H   H3780     1.0  0.75943  0.77471  0.12510  1.0000
  C   C2141     1.0  0.64616  0.84417  0.05724  1.0000
  C   C2142     1.0  0.77520  0.77449  0.12601  1.0000
  S   S481      1.0  0.64937  0.82944  0.09919  1.0000
  C   C2143     1.0  0.88220  0.78565  0.46095  1.0000
  H   H3781     1.0  0.66883  0.98156  0.31716  1.0000
  Fe  Fe241     1.0  0.95219  0.90076  0.42785  1.0000
  H   H3782     1.0  0.95576  0.86238  0.31911  1.0000
  H   H3783     1.0  0.94194  0.00077  0.21911  1.0000
  H   H3784     1.0  0.97349  0.99359  0.43564  1.0000
  H   H3785     1.0  0.77065  0.83258  0.50875  1.0000
  H   H3786     1.0  0.78813  0.79578  0.04008  1.0000
  H   H3787     1.0  0.77881  0.78816  0.14161  1.0000
  N   N119      1.0  0.91618  0.85526  0.32517  1.0000
  C   C2144     1.0  0.92578  0.84267  0.35616  1.0000
  C   C2145     1.0  0.92861  0.85543  0.28939  1.0000
  C   C2146     1.0  0.91324  0.87536  0.34179  1.0000
  C   C2147     1.0  0.89714  0.84750  0.31324  1.0000
  C   C2148     1.0  0.89683  0.82556  0.30318  1.0000
  C   C2149     1.0  0.91466  0.84024  0.39480  1.0000
  C   C2150     1.0  0.90418  0.89064  0.31344  1.0000
  C   C2151     1.0  0.94707  0.86709  0.29331  1.0000
  H   H3788     1.0  0.96638  0.94775  0.31385  1.0000
  C   C2152     1.0  0.66781  0.77061  0.34076  1.0000
  C   C2153     1.0  0.77284  0.75882  0.06138  1.0000
  C   C2154     1.0  0.90373  0.91076  0.33245  1.0000
  H   H3789     1.0  0.93961  0.84876  0.36516  1.0000
  H   H3790     1.0  0.92937  0.82804  0.34407  1.0000
  H   H3791     1.0  0.93293  0.84035  0.28109  1.0000
  H   H3792     1.0  0.92059  0.86122  0.26337  1.0000
  H   H3793     1.0  0.92674  0.88086  0.35396  1.0000
  H   H3794     1.0  0.90376  0.87501  0.36735  1.0000
  H   H3795     1.0  0.88650  0.85038  0.33645  1.0000
  H   H3796     1.0  0.89136  0.85545  0.28710  1.0000
  H   H3797     1.0  0.89906  0.81674  0.33017  1.0000
  H   H3798     1.0  0.90798  0.82143  0.28194  1.0000
  H   H3799     1.0  0.91462  0.85400  0.41178  1.0000
  H   H3800     1.0  0.89980  0.83616  0.38921  1.0000
  H   H3801     1.0  0.88933  0.88691  0.30620  1.0000
  H   H3802     1.0  0.91208  0.89158  0.28565  1.0000
  H   H3803     1.0  0.95305  0.90502  0.19121  1.0000
  H   H3804     1.0  0.87849  0.92661  0.42624  1.0000
  S   S482      1.0  0.93505  0.95693  0.51202  1.0000
  H   H3805     1.0  0.88805  0.91569  0.49198  1.0000
  C   C2155     1.0  0.95684  0.97169  0.05802  1.0000
  C   C2156     1.0  0.87777  0.82010  0.28503  1.0000
  H   H3806     1.0  0.73413  0.78551  0.37270  1.0000
  H   H3807     1.0  0.79193  0.75594  0.42248  1.0000
  C   C2157     1.0  0.66881  0.93901  0.23147  1.0000
  H   H3808     1.0  0.68188  0.93512  0.24857  1.0000
  H   H3809     1.0  0.74756  0.83285  0.44633  1.0000
  H   H3810     1.0  0.91834  0.91548  0.33918  1.0000
  H   H3811     1.0  0.89688  0.92142  0.31202  1.0000
  H   H3812     1.0  0.89555  0.91065  0.36008  1.0000
  Fe  Fe242     1.0  0.70206  0.78291  0.05547  1.0000
  N   N120      1.0  0.95336  0.96138  0.23754  1.0000
  H   H3813     1.0  0.81110  0.78562  0.13957  1.0000
  C   C2158     1.0  0.96322  0.93459  0.18722  1.0000
  H   H3814     1.0  0.96762  0.98489  0.50044  1.0000
  H   H3815     1.0  0.78418  0.80547  0.08743  1.0000
  C   C2159     1.0  0.97148  0.97233  0.23391  1.0000
  H   H3816     1.0  0.94739  0.97917  0.28870  1.0000
  C   C2160     1.0  0.94479  0.96420  0.27776  1.0000
  C   C2161     1.0  0.95932  0.86466  0.25688  1.0000
  H   H3817     1.0  0.95260  0.93919  0.16453  1.0000
  H   H3818     1.0  0.81630  0.79805  0.09495  1.0000
  H   H3819     1.0  0.89543  0.75600  0.04259  1.0000
  C   C2162     1.0  0.95084  0.94954  0.31054  1.0000
  C   C2163     1.0  0.80753  0.84194  0.49973  1.0000
  H   H3820     1.0  0.94372  0.88280  0.29640  1.0000
  H   H3821     1.0  0.90577  0.98697  0.17746  1.0000
  H   H3822     1.0  0.77570  0.77209  0.20845  1.0000
  H   H3823     1.0  0.79205  0.78750  0.46327  1.0000
  H   H3824     1.0  0.65895  0.79534  0.39605  1.0000
  H   H3825     1.0  0.82278  0.84142  0.50818  1.0000
  C   C2164     1.0  0.66091  0.76189  0.51387  1.0000
  C   C2165     1.0  0.93076  0.98999  0.21530  1.0000
  C   C2166     1.0  0.74751  0.80685  0.48409  1.0000
  H   H3826     1.0  0.73680  0.75960  0.36730  1.0000
  C   C2167     1.0  0.72052  0.82018  0.44109  1.0000
  C   C2168     1.0  0.76848  0.76948  0.45395  1.0000
  H   H3827     1.0  0.76566  0.82454  0.02076  1.0000
  H   H3828     1.0  0.68911  0.75745  0.43413  1.0000
  H   H3829     1.0  0.68347  0.78660  0.28401  1.0000
  S   S483      1.0  0.85267  0.76639  0.27069  1.0000
  C   C2169     1.0  0.91785  0.99680  0.18133  1.0000
  H   H3830     1.0  0.75288  0.77010  0.45057  1.0000
  H   H3831     1.0  0.69107  0.78453  0.40113  1.0000
  C   C2170     1.0  0.96092  0.99722  0.10665  1.0000
  C   C2171     1.0  0.80387  0.76960  0.08483  1.0000
  H   H3832     1.0  0.80809  0.81201  0.48350  1.0000
  C   C2172     1.0  0.83675  0.77590  0.11187  1.0000
  N   N121      1.0  0.78288  0.77420  0.08473  1.0000
  H   H3833     1.0  0.94820  0.97029  0.35886  1.0000
  C   C2173     1.0  0.97776  0.96273  0.43195  1.0000
  H   H3834     1.0  0.65433  0.96242  0.36901  1.0000
  H   H3835     1.0  0.92726  0.95947  0.20348  1.0000
  C   C2174     1.0  0.95645  0.94004  0.22909  1.0000
  H   H3836     1.0  0.71069  0.77178  0.32435  1.0000
  H   H3837     1.0  0.94615  0.97012  0.17786  1.0000
  H   H3838     1.0  0.68371  0.82300  0.39463  1.0000
  H   H3839     1.0  0.93881  0.82826  0.42821  1.0000
  C   C2175     1.0  0.87951  0.93749  0.45026  1.0000
  H   H3840     1.0  0.66984  0.83277  0.35379  1.0000
  C   C2176     1.0  0.77663  0.78995  0.45832  1.0000
  H   H3841     1.0  0.69887  0.81045  0.23846  1.0000
  H   H3842     1.0  0.74876  0.79589  0.07909  1.0000
  C   C2177     1.0  0.77652  0.75900  0.41808  1.0000
  C   C2178     1.0  0.75854  0.79910  0.05498  1.0000
  H   H3843     1.0  0.87748  0.80417  0.28019  1.0000
  S   S484      1.0  0.90034  0.86713  0.50348  1.0000
  H   H3844     1.0  0.67301  0.94464  0.20241  1.0000
  C   C2179     1.0  0.65604  0.99099  0.32126  1.0000
  H   H3845     1.0  0.75875  0.82970  0.07099  1.0000
  C   C2180     1.0  0.93938  0.96938  0.20715  1.0000
  H   H3846     1.0  0.77262  0.76049  0.47981  1.0000
  H   H3847     1.0  0.64959  0.80548  0.35144  1.0000
  S   S485      1.0  0.95838  0.90354  0.36368  1.0000
  H   H3848     1.0  0.86600  0.82430  0.30486  1.0000
  S   S486      1.0  0.96944  0.91659  0.47248  1.0000
  H   H3849     1.0  0.77420  0.76782  0.39120  1.0000
  S   S487      1.0  0.68503  0.78955  0.48677  1.0000
  C   C2181     1.0  0.88744  0.79203  0.50262  1.0000
  H   H3850     1.0  0.96693  0.93343  0.24987  1.0000
  H   H3851     1.0  0.92910  0.96293  0.27580  1.0000
  H   H3852     1.0  0.74732  0.81027  0.41945  1.0000
  H   H3853     1.0  0.65754  0.94137  0.42791  1.0000
  H   H3854     1.0  0.68423  0.83063  0.25552  1.0000
  H   H3855     1.0  0.96328  0.95927  0.44166  1.0000
  C   C2182     1.0  0.79942  0.82165  0.50246  1.0000
  C   C2183     1.0  0.65704  0.95449  0.25308  1.0000
  C   C2184     1.0  0.94971  0.98532  0.03100  1.0000
  H   H3856     1.0  0.89354  0.79203  0.04740  1.0000
  H   H3857     1.0  0.66069  0.84792  0.41636  1.0000
  H   H3858     1.0  0.65500  0.99454  0.35308  1.0000
  N   N122      1.0  0.67671  0.79021  0.34579  1.0000
  C   C2185     1.0  0.69461  0.78738  0.37006  1.0000
  H   H3859     1.0  0.70222  0.75653  0.36281  1.0000
  H   H3860     1.0  0.71074  0.80474  0.30649  1.0000
  C   C2186     1.0  0.68034  0.79847  0.30551  1.0000
  C   C2187     1.0  0.69699  0.81263  0.30203  1.0000
  C   C2188     1.0  0.67412  0.76700  0.48569  1.0000
  C   C2189     1.0  0.65593  0.83308  0.40923  1.0000
  C   C2190     1.0  0.66958  0.82340  0.38020  1.0000
  H   H3861     1.0  0.84266  0.77391  0.08201  1.0000
  C   C2191     1.0  0.69737  0.82185  0.26134  1.0000
  H   H3862     1.0  0.66507  0.94646  0.31179  1.0000
  H   H3863     1.0  0.70973  0.83142  0.25937  1.0000
  H   H3864     1.0  0.94301  0.93233  0.23390  1.0000
  H   H3865     1.0  0.70280  0.80080  0.37167  1.0000
  H   H3866     1.0  0.89354  0.94436  0.44874  1.0000
  C   C2192     1.0  0.74196  0.81798  0.44583  1.0000
  C   C2193     1.0  0.77940  0.79398  0.06673  1.0000
  C   C2194     1.0  0.70827  0.77084  0.35636  1.0000
  C   C2195     1.0  0.94284  0.95588  0.35021  1.0000
  H   H3867     1.0  0.75636  0.75809  0.18895  1.0000
  Fe  Fe243     1.0  0.94154  0.92554  0.49818  1.0000
  H   H3868     1.0  0.71704  0.82828  0.41368  1.0000
  Fe  Fe244     1.0  0.96684  0.88970  0.50838  1.0000
  C   C2196     1.0  0.92390  0.82467  0.42110  1.0000
  H   H3869     1.0  0.89471  0.80603  0.50017  1.0000
  H   H3870     1.0  0.91600  0.82391  0.44903  1.0000
  C   C2197     1.0  0.87721  0.92755  0.48995  1.0000
  H   H3871     1.0  0.74117  0.82353  0.03455  1.0000
  H   H3872     1.0  0.92585  0.99730  0.15350  1.0000
  H   H3873     1.0  0.77551  0.79738  0.42940  1.0000
  H   H3874     1.0  0.69624  0.82445  0.32397  1.0000
  H   H3875     1.0  0.72520  0.76965  0.41007  1.0000
  C   C2198     1.0  0.66107  0.84732  0.03165  1.0000
  H   H3876     1.0  0.75417  0.79060  0.02876  1.0000
  H   H3877     1.0  0.94727  0.94521  0.37316  1.0000
  H   H3878     1.0  0.86818  0.94877  0.44557  1.0000
  H   H3879     1.0  0.66680  0.76321  0.36976  1.0000
  C   C2199     1.0  0.66295  0.80293  0.36853  1.0000
  H   H3880     1.0  0.86065  0.80609  0.51416  1.0000
  H   H3881     1.0  0.84554  0.78632  0.12848  1.0000
  H   H3882     1.0  0.86299  0.92110  0.48982  1.0000
  H   H3883     1.0  0.87547  0.77127  0.46129  1.0000
  H   H3884     1.0  0.95144  0.86974  0.23020  1.0000
  H   H3885     1.0  0.92711  0.95661  0.34890  1.0000
  H   H3886     1.0  0.92208  0.99027  0.24219  1.0000
  H   H3887     1.0  0.74190  0.81554  0.50932  1.0000
  H   H3888     1.0  0.67690  0.76090  0.32230  1.0000
  H   H3889     1.0  0.70460  0.75698  0.20801  1.0000
  C   C2200     1.0  0.77199  0.75851  0.19282  1.0000
  C   C2201     1.0  0.65152  0.94741  0.29458  1.0000
  H   H3890     1.0  0.71437  0.82832  0.46623  1.0000
  H   H3891     1.0  0.64729  0.77955  0.29415  1.0000
  H   H3892     1.0  0.65068  0.92661  0.36207  1.0000
  H   H3893     1.0  0.94515  0.93502  0.30374  1.0000
  H   H3894     1.0  0.65567  0.82468  0.43705  1.0000
  H   H3895     1.0  0.73927  0.79340  0.48401  1.0000
  H   H3896     1.0  0.96874  0.98812  0.23827  1.0000
  C   C2202     1.0  0.75598  0.82056  0.04468  1.0000
  H   H3897     1.0  0.96792  0.96705  0.11667  1.0000
  H   H3898     1.0  0.83747  0.76176  0.12750  1.0000
  H   H3899     1.0  0.96933  0.90896  0.15219  1.0000
  H   H3900     1.0  0.97222  0.87343  0.26041  1.0000
  H   H3901     1.0  0.66044  0.92578  0.22654  1.0000
  H   H3902     1.0  0.87876  0.76430  0.07897  1.0000
  C   C2203     1.0  0.88167  0.76382  0.04699  1.0000
  H   H3903     1.0  0.97701  0.97109  0.20355  1.0000
  H   H3904     1.0  0.64740  0.93822  0.50855  1.0000
  H   H3905     1.0  0.86858  0.79185  0.03723  1.0000
  H   H3906     1.0  0.97689  0.94134  0.18068  1.0000
  H   H3907     1.0  0.64684  0.93215  0.29197  1.0000
  H   H3908     1.0  0.64460  0.95836  0.23440  1.0000
  C   C2204     1.0  0.67846  0.75409  0.45516  1.0000
  H   H3909     1.0  0.87026  0.75566  0.03215  1.0000
  H   H3910     1.0  0.88384  0.85631  0.02598  1.0000
  H   H3911     1.0  0.90912  0.85298  0.01844  1.0000
  C   C2205     1.0  0.77924  0.75623  0.01817  1.0000
  H   H3912     1.0  0.88181  0.82099  0.01727  1.0000
  Fe  Fe245     1.0  0.67449  0.84287  0.58685  1.0000
  C   C2206     1.0  0.74584  0.80469  0.82794  1.0000
  H   H3913     1.0  0.94593  0.88905  0.67799  1.0000
  Fe  Fe246     1.0  0.67892  0.80516  0.63269  1.0000
  S   S488      1.0  0.70242  0.79377  0.59475  1.0000
  H   H3914     1.0  0.79995  0.85213  0.51979  1.0000
  Fe  Fe247     1.0  0.71374  0.82367  0.59913  1.0000
  S   S489      1.0  0.74560  0.82455  0.60421  1.0000
  H   H3915     1.0  0.71372  0.81883  0.80518  1.0000
  H   H3916     1.0  0.89811  0.81575  0.91302  1.0000
  S   S490      1.0  0.69156  0.83445  0.64092  1.0000
  H   H3917     1.0  0.85527  0.92049  0.59955  1.0000
  H   H3918     1.0  0.87102  0.94701  0.62274  1.0000
  H   H3919     1.0  0.67321  0.77174  0.99502  1.0000
  Fe  Fe248     1.0  0.92662  0.91019  0.94147  1.0000
  S   S491      1.0  0.93615  0.93675  0.91086  1.0000
  S   S492      1.0  0.89625  0.90181  0.92869  1.0000
  H   H3920     1.0  0.85680  0.91184  0.55089  1.0000
  S   S493      1.0  0.71407  0.77364  0.99735  1.0000
  H   H3921     1.0  0.96777  0.89212  0.62299  1.0000
  S   S494      1.0  0.95378  0.89339  0.93045  1.0000
  H   H3922     1.0  0.73413  0.80266  0.84856  1.0000
  Fe  Fe249     1.0  0.81984  0.78051  0.82479  1.0000
  S   S495      1.0  0.84924  0.78154  0.80101  1.0000
  C   C2207     1.0  0.69463  0.82076  0.93749  1.0000
  Fe  Fe250     1.0  0.80764  0.81832  0.78555  1.0000
  S   S496      1.0  0.83602  0.82287  0.75853  1.0000
  S   S497      1.0  0.78121  0.83661  0.77428  1.0000
  Fe  Fe251     1.0  0.83534  0.79113  0.74451  1.0000
  S   S498      1.0  0.84266  0.78016  0.68403  1.0000
  Fe  Fe252     1.0  0.84796  0.81329  0.81722  1.0000
  S   S499      1.0  0.87633  0.82350  0.84049  1.0000
  S   S500      1.0  0.80606  0.78743  0.76675  1.0000
  S   S501      1.0  0.81945  0.81142  0.84604  1.0000
  H   H3923     1.0  0.77698  0.75766  0.56913  1.0000
  H   H3924     1.0  0.95535  0.92182  0.68154  1.0000
  C   C2208     1.0  0.93140  0.95501  0.63062  1.0000
  C   C2209     1.0  0.93418  0.94955  0.59135  1.0000
  C   C2210     1.0  0.88353  0.94007  0.81876  1.0000
  H   H3925     1.0  0.93255  0.94425  0.65357  1.0000
  H   H3926     1.0  0.89237  0.92170  0.63811  1.0000
  C   C2211     1.0  0.89082  0.88061  0.90200  1.0000
  C   C2212     1.0  0.90509  0.86828  0.88736  1.0000
  C   C2213     1.0  0.90033  0.85110  0.86764  1.0000
  C   C2214     1.0  0.88130  0.84617  0.86207  1.0000
  C   C2215     1.0  0.86699  0.85869  0.87594  1.0000
  C   C2216     1.0  0.87177  0.87584  0.89590  1.0000
  H   H3927     1.0  0.91979  0.87182  0.89181  1.0000
  H   H3928     1.0  0.91147  0.84145  0.85706  1.0000
  H   H3929     1.0  0.85229  0.85499  0.87195  1.0000
  H   H3930     1.0  0.86066  0.88536  0.90710  1.0000
  C   C2217     1.0  0.75521  0.82792  0.65166  1.0000
  C   C2218     1.0  0.77319  0.81994  0.66084  1.0000
  C   C2219     1.0  0.78124  0.82252  0.69841  1.0000
  C   C2220     1.0  0.77149  0.83342  0.72679  1.0000
  C   C2221     1.0  0.75366  0.84171  0.71735  1.0000
  C   C2222     1.0  0.74540  0.83875  0.68004  1.0000
  H   H3931     1.0  0.78090  0.81167  0.63893  1.0000
  H   H3932     1.0  0.79514  0.81634  0.70514  1.0000
  H   H3933     1.0  0.74627  0.85049  0.73892  1.0000
  H   H3934     1.0  0.73167  0.84523  0.67294  1.0000
  H   H3935     1.0  0.81552  0.80424  0.60446  1.0000
  C   C2223     1.0  0.84194  0.75484  0.68207  1.0000
  H   H3936     1.0  0.84681  0.79784  0.99345  1.0000
  C   C2224     1.0  0.73993  0.77115  0.66935  1.0000
  H   H3937     1.0  0.65740  0.77186  0.53744  1.0000
  H   H3938     1.0  0.86146  0.79404  0.92934  1.0000
  H   H3939     1.0  0.80934  0.93645  0.55188  1.0000
  N   N123      1.0  0.88533  0.80345  0.96455  1.0000
  C   C2225     1.0  0.86578  0.80684  0.94692  1.0000
  S   S502      1.0  0.69795  0.83466  0.54569  1.0000
  C   C2226     1.0  0.97034  0.91752  0.68819  1.0000
  H   H3940     1.0  0.85685  0.80192  0.62399  1.0000
  H   H3941     1.0  0.89585  0.91279  0.84104  1.0000
  H   H3942     1.0  0.92283  0.00335  0.61793  1.0000
  C   C2227     1.0  0.84950  0.81097  0.97599  1.0000
  H   H3943     1.0  0.92268  0.90593  0.62048  1.0000
  C   C2228     1.0  0.70421  0.78115  0.82603  1.0000
  H   H3944     1.0  0.94745  0.98630  0.79953  1.0000
  H   H3945     1.0  0.91468  0.98063  0.92120  1.0000
  H   H3946     1.0  0.77974  0.77027  0.00254  1.0000
  H   H3947     1.0  0.66539  0.82931  0.88808  1.0000
  H   H3948     1.0  0.65288  0.80605  0.84716  1.0000
  H   H3949     1.0  0.64948  0.97416  0.51994  1.0000
  C   C2229     1.0  0.72662  0.79150  0.72520  1.0000
  H   H3950     1.0  0.81350  0.83004  0.59604  1.0000
  Fe  Fe253     1.0  0.94738  0.94650  0.96910  1.0000
  H   H3951     1.0  0.93792  0.93472  0.58425  1.0000
  H   H3952     1.0  0.90028  0.78430  0.58224  1.0000
  C   C2230     1.0  0.73758  0.77254  0.71375  1.0000
  H   H3953     1.0  0.88672  0.98463  0.63473  1.0000
  C   C2231     1.0  0.89926  0.97816  0.92239  1.0000
  C   C2232     1.0  0.89166  0.98953  0.95769  1.0000
  H   H3954     1.0  0.74457  0.78802  0.55673  1.0000
  H   H3955     1.0  0.91040  0.77305  0.85013  1.0000
  H   H3956     1.0  0.83821  0.95010  0.58052  1.0000
  C   C2233     1.0  0.68804  0.83923  0.76288  1.0000
  C   C2234     1.0  0.85444  0.80039  0.59183  1.0000
  H   H3957     1.0  0.89797  0.81608  0.56196  1.0000
  H   H3958     1.0  0.80123  0.81670  0.53320  1.0000
  H   H3959     1.0  0.89826  0.85127  0.64468  1.0000
  H   H3960     1.0  0.89393  0.95134  0.60488  1.0000
  H   H3961     1.0  0.92677  0.78310  0.88544  1.0000
  H   H3962     1.0  0.88512  0.78536  0.62306  1.0000
  C   C2235     1.0  0.95730  0.86327  0.62164  1.0000
  C   C2236     1.0  0.71101  0.77933  0.78317  1.0000
  H   H3963     1.0  0.85905  0.97254  0.56887  1.0000
  C   C2237     1.0  0.90967  0.89726  0.62136  1.0000
  C   C2238     1.0  0.96870  0.87907  0.64196  1.0000
  H   H3964     1.0  0.78048  0.75833  0.69323  1.0000
  H   H3965     1.0  0.74661  0.82047  0.82176  1.0000
  H   H3966     1.0  0.93192  0.88991  0.79569  1.0000
  H   H3967     1.0  0.97215  0.90625  0.76961  1.0000
  H   H3968     1.0  0.90141  0.77798  0.98469  1.0000
  C   C2239     1.0  0.71530  0.81497  0.77377  1.0000
  C   C2240     1.0  0.82916  0.75945  0.92030  1.0000
  C   C2241     1.0  0.67509  0.76577  0.69404  1.0000
  H   H3969     1.0  0.87137  0.91712  0.85364  1.0000
  H   H3970     1.0  0.77296  0.80493  0.55348  1.0000
  C   C2242     1.0  0.69849  0.76034  0.96793  1.0000
  H   H3971     1.0  0.83525  0.81405  0.54831  1.0000
  H   H3972     1.0  0.65762  0.83394  0.93615  1.0000
  C   C2243     1.0  0.68861  0.76682  0.83381  1.0000
  Fe  Fe254     1.0  0.68480  0.80542  0.54461  1.0000
  H   H3973     1.0  0.82234  0.91503  0.53617  1.0000
  H   H3974     1.0  0.87179  0.83018  0.62874  1.0000
  H   H3975     1.0  0.75198  0.77201  0.72719  1.0000
  C   C2244     1.0  0.82330  0.81804  0.60551  1.0000
  C   C2245     1.0  0.89518  0.85582  0.00370  1.0000
  C   C2246     1.0  0.89129  0.84029  0.97268  1.0000
  H   H3976     1.0  0.88927  0.85624  0.59574  1.0000
  H   H3977     1.0  0.95935  0.86975  0.69928  1.0000
  C   C2247     1.0  0.92586  0.98833  0.61059  1.0000
  H   H3978     1.0  0.89552  0.87026  0.98942  1.0000
  H   H3979     1.0  0.72590  0.77094  0.65430  1.0000
  C   C2248     1.0  0.88327  0.00365  0.80631  1.0000
  H   H3980     1.0  0.89350  0.81619  0.63526  1.0000
  H   H3981     1.0  0.76999  0.77641  0.60383  1.0000
  H   H3982     1.0  0.89717  0.96254  0.92807  1.0000
  H   H3983     1.0  0.75154  0.76956  0.52288  1.0000
  H   H3984     1.0  0.64565  0.78711  0.94406  1.0000
  H   H3985     1.0  0.66287  0.99669  0.64854  1.0000
  H   H3986     1.0  0.85262  0.82326  0.99587  1.0000
  H   H3987     1.0  0.84714  0.83124  0.57928  1.0000
  H   H3988     1.0  0.91123  0.84247  0.60266  1.0000
  C   C2249     1.0  0.77207  0.79350  0.53031  1.0000
  H   H3989     1.0  0.69168  0.76330  0.64176  1.0000
  C   C2250     1.0  0.88935  0.98503  0.88361  1.0000
  C   C2251     1.0  0.84048  0.81688  0.57859  1.0000
  H   H3990     1.0  0.86993  0.00027  0.60907  1.0000
  H   H3991     1.0  0.87753  0.84411  0.95823  1.0000
  H   H3992     1.0  0.81962  0.81932  0.97545  1.0000
  H   H3993     1.0  0.88446  0.00247  0.74233  1.0000
  H   H3994     1.0  0.89396  0.94827  0.52247  1.0000
  H   H3995     1.0  0.87748  0.91010  0.80427  1.0000
  H   H3996     1.0  0.68049  0.79720  0.90967  1.0000
  C   C2252     1.0  0.92336  0.96703  0.80174  1.0000
  H   H3997     1.0  0.90561  0.81671  0.00360  1.0000
  C   C2253     1.0  0.82175  0.92673  0.55870  1.0000
  H   H3998     1.0  0.80432  0.75531  0.71254  1.0000
  H   H3999     1.0  0.67611  0.76988  0.81444  1.0000
  H   H4000     1.0  0.84659  0.78673  0.58834  1.0000
  C   C2254     1.0  0.64531  0.79851  0.87090  1.0000
  S   S503      1.0  0.94319  0.97826  0.98321  1.0000
  H   H4001     1.0  0.87639  0.82914  0.55467  1.0000
  H   H4002     1.0  0.89334  0.94091  0.79386  1.0000
  H   H4003     1.0  0.73426  0.80382  0.71229  1.0000
  H   H4004     1.0  0.86583  0.81895  0.92533  1.0000
  H   H4005     1.0  0.93297  0.90321  0.72762  1.0000
  C   C2255     1.0  0.67891  0.76205  0.97301  1.0000
  C   C2256     1.0  0.83104  0.81623  0.95404  1.0000
  C   C2257     1.0  0.75698  0.77948  0.54566  1.0000
  H   H4006     1.0  0.86928  0.94510  0.80821  1.0000
  H   H4007     1.0  0.67334  0.80242  0.95914  1.0000
  C   C2258     1.0  0.93215  0.96336  0.56152  1.0000
  H   H4008     1.0  0.88375  0.97704  0.56247  1.0000
  C   C2259     1.0  0.89682  0.84527  0.61449  1.0000
  C   C2260     1.0  0.88239  0.98150  0.81358  1.0000
  C   C2261     1.0  0.69567  0.81878  0.75387  1.0000
  C   C2262     1.0  0.92789  0.98273  0.57118  1.0000
  C   C2263     1.0  0.89209  0.91032  0.61503  1.0000
  H   H4009     1.0  0.68513  0.80839  0.76426  1.0000
  H   H4010     1.0  0.83275  0.82934  0.93564  1.0000
  H   H4011     1.0  0.91630  0.97356  0.77548  1.0000
  C   C2264     1.0  0.89703  0.78522  0.90201  1.0000
  H   H4012     1.0  0.76626  0.80713  0.87594  1.0000
  H   H4013     1.0  0.71810  0.76479  0.78113  1.0000
  H   H4014     1.0  0.84619  0.76276  0.97286  1.0000
  H   H4015     1.0  0.95823  0.84959  0.63879  1.0000
  H   H4016     1.0  0.74730  0.77800  0.79403  1.0000
  H   H4017     1.0  0.71275  0.79103  0.70929  1.0000
  S   S504      1.0  0.65998  0.81433  0.58184  1.0000
  H   H4018     1.0  0.92385  0.96908  0.86426  1.0000
  H   H4019     1.0  0.97318  0.96462  0.88716  1.0000
  C   C2265     1.0  0.97691  0.97971  0.89481  1.0000
  H   H4020     1.0  0.68411  0.76819  0.86476  1.0000
  C   C2266     1.0  0.68683  0.75597  0.66744  1.0000
  H   H4021     1.0  0.91944  0.91286  0.79026  1.0000
  C   C2267     1.0  0.76430  0.79838  0.84882  1.0000
  Fe  Fe255     1.0  0.96365  0.90665  0.98774  1.0000
  S   S505      1.0  0.94045  0.90001  0.53860  1.0000
  S   S506      1.0  0.65879  0.87201  0.58554  1.0000
  H   H4022     1.0  0.67414  0.84161  0.74769  1.0000
  H   H4023     1.0  0.91215  0.79895  0.85453  1.0000
  H   H4024     1.0  0.77658  0.80069  0.82952  1.0000
  H   H4025     1.0  0.69667  0.81761  0.72151  1.0000
  H   H4026     1.0  0.86159  0.98103  0.63952  1.0000
  H   H4027     1.0  0.65828  0.96918  0.56933  1.0000
  H   H4028     1.0  0.92175  0.95112  0.80147  1.0000
  H   H4029     1.0  0.87951  0.90133  0.61965  1.0000
  H   H4030     1.0  0.94221  0.86795  0.61807  1.0000
  C   C2268     1.0  0.88340  0.81791  0.57373  1.0000
  H   H4031     1.0  0.88325  0.78635  0.88599  1.0000
  H   H4032     1.0  0.69918  0.82751  0.90971  1.0000
  H   H4033     1.0  0.69794  0.85022  0.75213  1.0000
  C   C2269     1.0  0.91535  0.97587  0.84009  1.0000
  C   C2270     1.0  0.87285  0.98513  0.61891  1.0000
  H   H4034     1.0  0.88979  0.90642  0.55271  1.0000
  C   C2271     1.0  0.74314  0.79343  0.78875  1.0000
  H   H4035     1.0  0.78619  0.78584  0.53088  1.0000
  H   H4036     1.0  0.88589  0.97397  0.78565  1.0000
  H   H4037     1.0  0.89915  0.98444  0.98485  1.0000
  C   C2272     1.0  0.88199  0.91875  0.83016  1.0000
  H   H4038     1.0  0.91042  0.88580  0.59837  1.0000
  H   H4039     1.0  0.71608  0.77755  0.84667  1.0000
  H   H4040     1.0  0.91406  0.80183  0.94306  1.0000
  H   H4041     1.0  0.94226  0.91189  0.81420  1.0000
  H   H4042     1.0  0.97455  0.93563  0.74146  1.0000
  H   H4043     1.0  0.69834  0.79581  0.83277  1.0000
  H   H4044     1.0  0.94982  0.96464  0.77014  1.0000
  H   H4045     1.0  0.87760  0.77343  0.97154  1.0000
  N   N124      1.0  0.72385  0.79483  0.76872  1.0000
  H   H4046     1.0  0.96306  0.86028  0.59200  1.0000
  H   H4047     1.0  0.82780  0.82086  0.63640  1.0000
  S   S507      1.0  0.92514  0.98109  0.68980  1.0000
  C   C2273     1.0  0.89150  0.91900  0.57289  1.0000
  H   H4048     1.0  0.70632  0.81106  0.94858  1.0000
  H   H4049     1.0  0.68604  0.84120  0.79498  1.0000
  C   C2274     1.0  0.96070  0.88368  0.68324  1.0000
  C   C2275     1.0  0.89925  0.80243  0.93121  1.0000
  C   C2276     1.0  0.88573  0.82656  0.61560  1.0000
  C   C2277     1.0  0.92757  0.97445  0.64034  1.0000
  C   C2278     1.0  0.87880  0.95046  0.59550  1.0000
  C   C2279     1.0  0.97607  0.95366  0.69091  1.0000
  H   H4050     1.0  0.89789  0.77102  0.91721  1.0000
  C   C2280     1.0  0.66017  0.82201  0.91478  1.0000
  H   H4051     1.0  0.87626  0.98723  0.96112  1.0000
  H   H4052     1.0  0.90223  0.94479  0.86879  1.0000
  H   H4053     1.0  0.72514  0.82582  0.76212  1.0000
  H   H4054     1.0  0.65760  0.93417  0.55703  1.0000
  C   C2281     1.0  0.96275  0.89884  0.74817  1.0000
  H   H4055     1.0  0.90907  0.89018  0.65056  1.0000
  C   C2282     1.0  0.94459  0.97054  0.79850  1.0000
  C   C2283     1.0  0.88996  0.95249  0.85451  1.0000
  N   N125      1.0  0.97150  0.89799  0.70792  1.0000
  N   N126      1.0  0.89444  0.97357  0.84714  1.0000
  H   H4056     1.0  0.94371  0.92474  0.74603  1.0000
  H   H4057     1.0  0.69830  0.77839  0.76356  1.0000
  C   C2284     1.0  0.64878  0.96420  0.54535  1.0000
  H   H4058     1.0  0.76405  0.78282  0.85711  1.0000
  N   N127      1.0  0.87640  0.93453  0.56509  1.0000
  C   C2285     1.0  0.89112  0.81982  0.99137  1.0000
  H   H4059     1.0  0.90572  0.92475  0.56662  1.0000
  H   H4060     1.0  0.66950  0.86077  0.97778  1.0000
  H   H4061     1.0  0.87373  0.98491  0.88806  1.0000
  C   C2286     1.0  0.76498  0.76704  0.57937  1.0000
  S   S508      1.0  0.66831  0.79028  0.68700  1.0000
  C   C2287     1.0  0.94278  0.90885  0.75032  1.0000
  H   H4062     1.0  0.87822  0.95137  0.87591  1.0000
  C   C2288     1.0  0.93364  0.90561  0.79009  1.0000
  H   H4063     1.0  0.75422  0.79917  0.76912  1.0000
  H   H4064     1.0  0.89302  0.00053  0.88033  1.0000
  H   H4065     1.0  0.91914  0.99142  0.84118  1.0000
  C   C2289     1.0  0.87317  0.97154  0.58331  1.0000
  H   H4066     1.0  0.69198  0.83225  0.95985  1.0000
  H   H4067     1.0  0.95258  0.96313  0.82275  1.0000
  N   N128      1.0  0.87313  0.79904  0.57097  1.0000
  S   S509      1.0  0.97693  0.92552  0.84514  1.0000
  H   H4068     1.0  0.82661  0.80401  0.93499  1.0000
  C   C2290     1.0  0.67685  0.80900  0.93063  1.0000
  H   H4069     1.0  0.90269  0.84108  0.95075  1.0000
  S   S510      1.0  0.93560  0.92126  0.00112  1.0000
  H   H4070     1.0  0.86720  0.97846  0.81879  1.0000
  C   C2291     1.0  0.88515  0.78329  0.59056  1.0000
  H   H4071     1.0  0.65491  0.78616  0.87968  1.0000
  C   C2292     1.0  0.91259  0.78513  0.87125  1.0000
  C   C2293     1.0  0.88672  0.78428  0.98622  1.0000
  C   C2294     1.0  0.65792  0.85841  0.99751  1.0000
  Fe  Fe256     1.0  0.96392  0.92103  0.90412  1.0000
  C   C2295     1.0  0.85737  0.92536  0.56883  1.0000
  H   H4072     1.0  0.65385  0.00030  0.57821  1.0000
  H   H4073     1.0  0.83505  0.77168  0.90542  1.0000
  H   H4074     1.0  0.96151  0.88395  0.76019  1.0000
  H   H4075     1.0  0.74789  0.78367  0.65843  1.0000
  C   C2296     1.0  0.87916  0.76212  0.58218  1.0000
  H   H4076     1.0  0.81968  0.92020  0.58808  1.0000
  H   H4077     1.0  0.74783  0.75753  0.66195  1.0000
  C   C2297     1.0  0.83986  0.93838  0.55836  1.0000
  H   H4078     1.0  0.92642  0.99349  0.54820  1.0000
  H   H4079     1.0  0.64920  0.92940  0.69895  1.0000
  C   C2298     1.0  0.97350  0.99371  0.61937  1.0000
  H   H4080     1.0  0.96824  0.97813  0.56584  1.0000
  H   H4081     1.0  0.72989  0.75955  0.72300  1.0000
  C   C2299     1.0  0.65659  0.94441  0.53191  1.0000
  H   H4082     1.0  0.84093  0.94483  0.52873  1.0000
  H   H4083     1.0  0.65962  0.76342  0.74780  1.0000
  C   C2300     1.0  0.87949  0.94224  0.52423  1.0000
  H   H4084     1.0  0.75377  0.75757  0.59036  1.0000
  H   H4085     1.0  0.96065  0.95707  0.68955  1.0000
  S   S511      1.0  0.97609  0.93284  0.95990  1.0000
  H   H4086     1.0  0.67101  0.94596  0.51994  1.0000
  C   C2301     1.0  0.83552  0.75434  0.95828  1.0000
  H   H4087     1.0  0.64759  0.81680  0.98889  1.0000
  H   H4088     1.0  0.96676  0.98190  0.63545  1.0000
  H   H4089     1.0  0.96850  0.98998  0.87598  1.0000
  H   H4090     1.0  0.86102  0.78113  0.52530  1.0000
  H   H4091     1.0  0.86369  0.76049  0.58436  1.0000
  H   H4092     1.0  0.97308  0.98247  0.92585  1.0000
  H   H4093     1.0  0.97735  0.91683  0.65916  1.0000
  C   C2302     1.0  0.66874  0.75595  0.72715  1.0000
  H   H4094     1.0  0.88322  0.75762  0.55204  1.0000
  C   C2303     1.0  0.86952  0.79443  0.52826  1.0000
  C   C2304     1.0  0.64463  0.87760  0.54372  1.0000
  S   S512      1.0  0.80683  0.75481  0.85416  1.0000
  H   H4095     1.0  0.89766  0.78114  0.51500  1.0000
  H   H4096     1.0  0.86968  0.95459  0.51731  1.0000
