data_image0
_chemical_formula_structural       S2FeS2HC6H4CHCH5FeHC2H6CH2C2H3CH2C2HCH4NCHCHSH2CH3CH2CH7CNH2SH2SHFeHSCHSCHSC8H4CH5C3FeH2SC4H6FeHSH3CHCH2C2NHCHNHCFeCHCHFeH2SHC2HC4HCSH2SC2H2CH6C2H2CH2CH3C2H2CH2CH3CNHC2H3C2H2CH3SCH4CFeHCHSCHC2FeCHSHC2H7SCFeHS2H2FeCSH5C6H5CH2CFeH2SH5SH4CHCHC3HC3H6NCH7CFeSC2FeSCSC5H4CHCHC3H4SCHCHC2HCNCH8C2H5C2HCH2NCHCSCH8CH5CFeCH2SH2CH2FeSH2C3HC4H3CHCH3CH5SH5CSHNHCHSCH2CH4CH3C4H5CHFeS2FeS2FeHCS2H5SHC7H5CH2CHFeH2CHCH3CHCH4CH2CH2CH2CHC2NFeCH3CH7S2H3C2H3C2H2CH3FeS2HSFeHC2SH2CH3C4H2C3H6C4H3CNH4SC2H3C3H9SCH2C2H6CHC2H3FeSFeSCSC6H4CHSCHFeC2FeH3CH2SHCHNCHCH2CH5CFeSH3CHCH2CH3C2H4CH4CH2C2HCNH2CH5C2HCH8SHSFeHFeS2H5C7H4NHCHC2HC2H4CH3SFeCH4CHNCH2CHCH4C4SHCH2CHCHFeH5CHC2H3C2H4CSCH7CH3SHNC2H3C4H7C3H3C3SH3CHCH4C2HCH3CH2
_chemical_formula_sum              "S64 Fe32 H512 C288 N16"
_cell_length_a       29.2989
_cell_length_b       29.5276
_cell_length_c       31.5645
_cell_angle_alpha    90.0141
_cell_angle_beta     90.1558
_cell_angle_gamma    89.805

_space_group_name_H-M_alt    "P 1"
_space_group_IT_number       1

loop_
  _space_group_symop_operation_xyz
  'x, y, z'

loop_
  _atom_site_type_symbol
  _atom_site_label
  _atom_site_symmetry_multiplicity
  _atom_site_fract_x
  _atom_site_fract_y
  _atom_site_fract_z
  _atom_site_occupancy
  S   S1        1.0  0.03450  0.33870  0.25995  1.0000
  S   S2        1.0  0.26555  0.46107  0.08544  1.0000
  Fe  Fe1       1.0  0.20093  0.47710  0.12027  1.0000
  S   S3        1.0  0.19585  0.46136  0.19034  1.0000
  S   S4        1.0  0.15537  0.44459  0.07224  1.0000
  H   H1        1.0  0.08448  0.36782  0.04849  1.0000
  C   C1        1.0  0.07911  0.37363  0.24158  1.0000
  C   C2        1.0  0.07624  0.39222  0.20072  1.0000
  C   C3        1.0  0.11180  0.41908  0.18470  1.0000
  C   C4        1.0  0.15075  0.42722  0.20922  1.0000
  C   C5        1.0  0.15358  0.40864  0.25004  1.0000
  C   C6        1.0  0.11778  0.38226  0.26633  1.0000
  H   H2        1.0  0.04630  0.38595  0.18150  1.0000
  H   H3        1.0  0.10885  0.43398  0.15359  1.0000
  H   H4        1.0  0.18376  0.41440  0.26909  1.0000
  H   H5        1.0  0.18750  0.24977  0.27351  1.0000
  C   C7        1.0  0.28288  0.36407  0.15362  1.0000
  H   H6        1.0  0.20969  0.24220  0.19825  1.0000
  C   C8        1.0  0.15524  0.28725  0.17231  1.0000
  H   H7        1.0  0.21496  0.13870  0.10191  1.0000
  H   H8        1.0  0.38565  0.43087  0.08571  1.0000
  H   H9        1.0  0.21243  0.29933  0.21625  1.0000
  H   H10       1.0  0.14085  0.31999  0.18379  1.0000
  H   H11       1.0  0.22064  0.38153  0.12193  1.0000
  Fe  Fe2       1.0  0.22012  0.43288  0.03517  1.0000
  H   H12       1.0  0.02480  0.00456  0.28948  1.0000
  C   C9        1.0  0.16284  0.25872  0.24804  1.0000
  C   C10       1.0  0.02330  0.49060  0.04514  1.0000
  H   H13       1.0  0.07008  0.38632  0.10147  1.0000
  H   H14       1.0  0.16196  0.33500  0.07310  1.0000
  H   H15       1.0  0.05062  0.46630  0.04929  1.0000
  H   H16       1.0  0.03310  0.34802  0.07360  1.0000
  H   H17       1.0  0.13469  0.23705  0.10223  1.0000
  H   H18       1.0  0.24570  0.28407  0.14565  1.0000
  C   C11       1.0  0.14652  0.32778  0.10469  1.0000
  H   H19       1.0  0.36478  0.45927  0.03903  1.0000
  H   H20       1.0  0.29099  0.28252  0.99002  1.0000
  C   C12       1.0  0.43890  0.45244  0.04245  1.0000
  C   C13       1.0  0.39231  0.45904  0.06328  1.0000
  H   H21       1.0  0.39120  0.49151  0.08105  1.0000
  H   H22       1.0  0.12058  0.36787  0.29773  1.0000
  H   H23       1.0  0.43891  0.41841  0.02743  1.0000
  C   C14       1.0  0.22349  0.30772  0.12773  1.0000
  H   H24       1.0  0.28775  0.39908  0.16568  1.0000
  H   H25       1.0  0.18099  0.25488  0.06973  1.0000
  C   C15       1.0  0.17062  0.24885  0.10330  1.0000
  C   C16       1.0  0.06932  0.35728  0.07918  1.0000
  H   H26       1.0  0.23707  0.30723  0.09470  1.0000
  C   C17       1.0  0.19800  0.20765  0.12012  1.0000
  H   H27       1.0  0.16010  0.15784  0.08293  1.0000
  H   H28       1.0  0.21204  0.17782  0.05821  1.0000
  H   H29       1.0  0.23452  0.21557  0.12514  1.0000
  H   H30       1.0  0.14711  0.36033  0.12233  1.0000
  N   N1        1.0  0.17436  0.29244  0.12808  1.0000
  C   C18       1.0  0.09525  0.31668  0.09749  1.0000
  H   H31       1.0  0.29613  0.34004  0.17780  1.0000
  C   C19       1.0  0.23217  0.35592  0.14534  1.0000
  H   H32       1.0  0.21328  0.36182  0.17516  1.0000
  S   S5        1.0  0.23907  0.36283  0.01118  1.0000
  H   H33       1.0  0.07851  0.30695  0.12764  1.0000
  H   H34       1.0  0.30265  0.36018  0.12381  1.0000
  C   C20       1.0  0.18866  0.27158  0.20776  1.0000
  H   H35       1.0  0.14162  0.28753  0.25930  1.0000
  H   H36       1.0  0.14040  0.22913  0.24216  1.0000
  H   H37       1.0  0.18283  0.19555  0.15022  1.0000
  C   C21       1.0  0.19599  0.16819  0.08878  1.0000
  H   H38       1.0  0.09136  0.28871  0.07430  1.0000
  H   H39       1.0  0.12569  0.26362  0.17188  1.0000
  C   C22       1.0  0.44768  0.48968  0.00878  1.0000
  H   H40       1.0  0.46500  0.45270  0.06790  1.0000
  H   H41       1.0  0.50219  0.41715  0.98893  1.0000
  H   H42       1.0  0.03234  0.46985  0.30354  1.0000
  H   H43       1.0  0.02957  0.08684  0.30449  1.0000
  H   H44       1.0  0.10869  0.10679  0.31400  1.0000
  H   H45       1.0  0.16358  0.47862  0.31426  1.0000
  H   H46       1.0  0.00766  0.45353  0.25302  1.0000
  C   C23       1.0  0.29472  0.35544  0.99001  1.0000
  N   N2        1.0  0.49478  0.49012  0.98949  1.0000
  H   H47       1.0  0.07830  0.15772  0.30386  1.0000
  H   H48       1.0  0.16329  0.16757  0.30500  1.0000
  S   S6        1.0  0.21404  0.49863  0.99941  1.0000
  H   H49       1.0  0.30908  0.42664  0.98522  1.0000
  H   H50       1.0  0.34037  0.15394  0.54220  1.0000
  S   S7        1.0  0.29381  0.02069  0.59289  1.0000
  H   H51       1.0  0.04945  0.05869  0.44906  1.0000
  Fe  Fe3       1.0  0.07709  0.28057  0.40830  1.0000
  H   H52       1.0  0.50206  0.15332  0.56950  1.0000
  S   S8        1.0  0.14587  0.24823  0.42401  1.0000
  C   C24       1.0  0.04566  0.09074  0.43101  1.0000
  H   H53       1.0  0.04157  0.02258  0.38123  1.0000
  S   S9        1.0  0.07291  0.35172  0.38154  1.0000
  C   C25       1.0  0.01751  0.48562  0.40354  1.0000
  H   H54       1.0  0.16408  0.15458  0.36072  1.0000
  S   S10       1.0  0.17669  0.07371  0.53996  1.0000
  C   C26       1.0  0.18106  0.02173  0.42470  1.0000
  C   C27       1.0  0.39001  0.15193  0.59341  1.0000
  C   C28       1.0  0.16968  0.12233  0.50756  1.0000
  C   C29       1.0  0.20419  0.13843  0.48104  1.0000
  C   C30       1.0  0.19644  0.17712  0.45574  1.0000
  C   C31       1.0  0.15408  0.19977  0.45636  1.0000
  C   C32       1.0  0.11957  0.18352  0.48272  1.0000
  C   C33       1.0  0.12750  0.14520  0.50836  1.0000
  H   H55       1.0  0.23687  0.12131  0.48025  1.0000
  H   H56       1.0  0.22342  0.18963  0.43559  1.0000
  H   H57       1.0  0.08701  0.20087  0.48382  1.0000
  H   H58       1.0  0.10074  0.13322  0.52903  1.0000
  C   C34       1.0  0.13057  0.03460  0.42623  1.0000
  H   H59       1.0  0.41100  0.05721  0.49751  1.0000
  H   H60       1.0  0.05998  0.11774  0.45169  1.0000
  H   H61       1.0  0.44790  0.10724  0.58624  1.0000
  H   H62       1.0  0.04036  0.45956  0.39199  1.0000
  H   H63       1.0  0.39556  0.13273  0.52708  1.0000
  C   C35       1.0  0.48191  0.07675  0.50468  1.0000
  C   C36       1.0  0.48440  0.17761  0.63373  1.0000
  C   C37       1.0  0.42643  0.11953  0.61270  1.0000
  Fe  Fe4       1.0  0.03066  0.32055  0.32989  1.0000
  H   H64       1.0  0.12157  0.03942  0.46012  1.0000
  H   H65       1.0  0.19202  0.01497  0.39163  1.0000
  S   S11       1.0  0.01466  0.28884  0.44924  1.0000
  C   C38       1.0  0.36963  0.13263  0.55264  1.0000
  C   C39       1.0  0.01607  0.06424  0.32950  1.0000
  C   C40       1.0  0.44401  0.04801  0.51034  1.0000
  C   C41       1.0  0.12126  0.07887  0.40107  1.0000
  H   H66       1.0  0.03529  0.14485  0.36118  1.0000
  H   H67       1.0  0.35720  0.09753  0.55764  1.0000
  H   H68       1.0  0.36136  0.15671  0.61598  1.0000
  H   H69       1.0  0.47768  0.10862  0.48821  1.0000
  H   H70       1.0  0.40778  0.08897  0.62398  1.0000
  H   H71       1.0  0.13586  0.10721  0.41997  1.0000
  Fe  Fe5       1.0  0.23380  0.02132  0.54723  1.0000
  H   H72       1.0  0.14231  0.07697  0.37189  1.0000
  S   S12       1.0  0.03900  0.24945  0.35382  1.0000
  H   H73       1.0  0.10712  0.47337  0.33595  1.0000
  H   H74       1.0  0.11071  0.00571  0.41353  1.0000
  H   H75       1.0  0.13366  0.20370  0.34164  1.0000
  C   C42       1.0  0.05424  0.05129  0.36163  1.0000
  H   H76       1.0  0.20234  0.04917  0.43841  1.0000
  C   C43       1.0  0.07072  0.13482  0.36940  1.0000
  H   H77       1.0  0.08153  0.16135  0.39255  1.0000
  H   H78       1.0  0.46285  0.20686  0.62396  1.0000
  C   C44       1.0  0.14272  0.16798  0.33447  1.0000
  C   C45       1.0  0.44941  0.00657  0.53120  1.0000
  N   N3        1.0  0.07200  0.08866  0.38998  1.0000
  H   H79       1.0  0.40456  0.18548  0.58565  1.0000
  C   C46       1.0  0.09939  0.13994  0.32811  1.0000
  H   H80       1.0  0.08242  0.03641  0.34239  1.0000
  N   N4        1.0  0.45522  0.13858  0.64831  1.0000
  H   H81       1.0  0.47309  0.04024  0.63055  1.0000
  C   C47       1.0  0.50166  0.06352  0.63810  1.0000
  Fe  Fe6       1.0  0.00667  0.35710  0.41712  1.0000
  C   C48       1.0  0.13271  0.49785  0.32396  1.0000
  H   H82       1.0  0.44153  0.07660  0.76744  1.0000
  C   C49       1.0  0.44076  0.06248  0.79993  1.0000
  H   H83       1.0  0.39039  0.15462  0.76602  1.0000
  Fe  Fe7       1.0  0.47778  0.27148  0.91985  1.0000
  H   H84       1.0  0.46932  0.14897  0.73736  1.0000
  H   H85       1.0  0.42132  0.48440  0.98391  1.0000
  S   S13       1.0  0.46174  0.20691  0.88466  1.0000
  H   H86       1.0  0.38567  0.41531  0.95340  1.0000
  C   C50       1.0  0.45816  0.01731  0.95387  1.0000
  C   C51       1.0  0.35564  0.30507  0.96494  1.0000
  H   H87       1.0  0.39831  0.12891  0.69083  1.0000
  C   C52       1.0  0.40943  0.18544  0.75653  1.0000
  C   C53       1.0  0.46102  0.01383  0.80021  1.0000
  C   C54       1.0  0.38255  0.34246  0.95433  1.0000
  C   C55       1.0  0.36538  0.38624  0.96189  1.0000
  H   H88       1.0  0.47346  0.43899  0.94419  1.0000
  C   C56       1.0  0.31178  0.31158  0.98244  1.0000
  S   S14       1.0  0.47631  0.10797  0.96356  1.0000
  H   H89       1.0  0.45739  0.12974  0.82270  1.0000
  H   H90       1.0  0.36837  0.27120  0.95916  1.0000
  S   S15       1.0  0.43725  0.33677  0.93074  1.0000
  C   C57       1.0  0.46846  0.09426  0.82805  1.0000
  C   C58       1.0  0.50230  0.44606  0.96629  1.0000
  H   H91       1.0  0.42642  0.19967  0.78509  1.0000
  H   H92       1.0  0.40219  0.18476  0.66964  1.0000
  C   C59       1.0  0.44545  0.17398  0.72324  1.0000
  H   H93       1.0  0.46264  0.08610  0.86189  1.0000
  H   H94       1.0  0.46567  0.08377  0.69337  1.0000
  H   H95       1.0  0.40504  0.06330  0.81136  1.0000
  H   H96       1.0  0.38507  0.21120  0.74421  1.0000
  H   H97       1.0  0.46457  0.20561  0.71681  1.0000
  H   H98       1.0  0.42923  0.02376  0.97426  1.0000
  C   C60       1.0  0.48461  0.10174  0.66793  1.0000
  C   C61       1.0  0.42298  0.15599  0.68195  1.0000
  H   H99       1.0  0.49518  0.01647  0.78524  1.0000
  H   H100      1.0  0.48106  0.49915  0.89807  1.0000
  C   C62       1.0  0.48731  0.05319  0.94299  1.0000
  H   H101      1.0  0.46825  0.00391  0.83359  1.0000
  H   H102      1.0  0.40836  0.02353  0.72931  1.0000
  C   C63       1.0  0.32191  0.39273  0.97989  1.0000
  H   H103      1.0  0.36405  0.00397  0.78892  1.0000
  H   H104      1.0  0.39662  0.00212  0.86229  1.0000
  H   H105      1.0  0.39073  0.00431  0.65197  1.0000
  C   C64       1.0  0.08980  0.58080  0.21330  1.0000
  C   C65       1.0  0.36777  0.63497  0.00216  1.0000
  H   H106      1.0  0.15803  0.62190  0.17701  1.0000
  H   H107      1.0  0.16231  0.64508  0.27411  1.0000
  C   C66       1.0  0.32879  0.62080  0.02419  1.0000
  H   H108      1.0  0.07698  0.61155  0.19648  1.0000
  H   H109      1.0  0.49390  0.52833  0.07504  1.0000
  C   C67       1.0  0.17030  0.59760  0.20164  1.0000
  H   H110      1.0  0.04717  0.50111  0.14087  1.0000
  H   H111      1.0  0.11141  0.51328  0.19195  1.0000
  H   H112      1.0  0.09902  0.49988  0.26340  1.0000
  C   C68       1.0  0.25378  0.60864  0.18241  1.0000
  N   N5        1.0  0.13442  0.59107  0.23546  1.0000
  H   H113      1.0  0.18980  0.67997  0.03096  1.0000
  C   C69       1.0  0.29958  0.69789  0.02109  1.0000
  C   C70       1.0  0.37189  0.68000  0.98825  1.0000
  H   H114      1.0  0.28696  0.62227  0.19364  1.0000
  H   H115      1.0  0.07635  0.70761  0.29072  1.0000
  H   H116      1.0  0.02271  0.55476  0.15585  1.0000
  C   C71       1.0  0.09009  0.68347  0.31459  1.0000
  C   C72       1.0  0.15021  0.55382  0.26511  1.0000
  H   H117      1.0  0.17276  0.52928  0.24844  1.0000
  H   H118      1.0  0.21519  0.60622  0.99895  1.0000
  C   C73       1.0  0.09439  0.63593  0.29580  1.0000
  H   H119      1.0  0.17242  0.56819  0.29045  1.0000
  H   H120      1.0  0.25864  0.57223  0.17451  1.0000
  H   H121      1.0  0.13558  0.67402  0.00374  1.0000
  S   S16       1.0  0.19643  0.54713  0.09250  1.0000
  C   C74       1.0  0.21777  0.61419  0.21704  1.0000
  H   H122      1.0  0.24356  0.62732  0.15330  1.0000
  H   H123      1.0  0.00492  0.60056  0.01826  1.0000
  H   H124      1.0  0.05997  0.62533  0.28521  1.0000
  H   H125      1.0  0.21625  0.65075  0.22524  1.0000
  C   C75       1.0  0.11295  0.52455  0.28660  1.0000
  Fe  Fe8       1.0  0.15377  0.51334  0.04211  1.0000
  H   H126      1.0  0.06266  0.57240  0.23624  1.0000
  C   C76       1.0  0.03345  0.53505  0.03312  1.0000
  H   H127      1.0  0.10858  0.55477  0.15050  1.0000
  S   S17       1.0  0.09019  0.55264  0.02255  1.0000
  C   C77       1.0  0.04415  0.52604  0.16710  1.0000
  H   H128      1.0  0.27330  0.72235  0.02878  1.0000
  C   C78       1.0  0.09168  0.54242  0.17978  1.0000
  C   C79       1.0  0.16523  0.65540  0.01724  1.0000
  Fe  Fe9       1.0  0.25660  0.52767  0.05221  1.0000
  C   C80       1.0  0.12942  0.63523  0.25913  1.0000
  H   H129      1.0  0.17665  0.56501  0.18486  1.0000
  S   S18       1.0  0.32345  0.56299  0.03738  1.0000
  H   H130      1.0  0.26552  0.64216  0.05228  1.0000
  C   C81       1.0  0.33755  0.71156  0.99727  1.0000
  C   C82       1.0  0.29498  0.65253  0.03423  1.0000
  H   H131      1.0  0.15265  0.63326  0.04311  1.0000
  H   H132      1.0  0.12055  0.66304  0.23660  1.0000
  H   H133      1.0  0.22952  0.59494  0.24525  1.0000
  H   H134      1.0  0.39444  0.61077  0.99489  1.0000
  H   H135      1.0  0.43916  0.52330  0.02280  1.0000
  H   H136      1.0  0.02738  0.50903  0.19418  1.0000
  H   H137      1.0  0.08413  0.54497  0.29872  1.0000
  S   S19       1.0  0.01976  0.85164  0.40435  1.0000
  C   C83       1.0  0.11802  0.77287  0.58102  1.0000
  Fe  Fe10      1.0  0.24091  0.92029  0.52835  1.0000
  H   H138      1.0  0.49636  0.84553  0.49092  1.0000
  S   S20       1.0  0.20896  0.85552  0.50341  1.0000
  S   S21       1.0  0.40462  0.96720  0.53644  1.0000
  H   H139      1.0  0.28912  0.80666  0.55297  1.0000
  H   H140      1.0  0.06641  0.68276  0.34197  1.0000
  Fe  Fe11      1.0  0.32797  0.97747  0.54309  1.0000
  C   C84       1.0  0.49272  0.99410  0.54623  1.0000
  S   S22       1.0  0.30210  0.91226  0.57030  1.0000
  H   H141      1.0  0.11124  0.92300  0.60095  1.0000
  H   H142      1.0  0.12371  0.69573  0.32614  1.0000
  H   H143      1.0  0.33275  0.80863  0.59327  1.0000
  H   H144      1.0  0.26144  0.84403  0.61931  1.0000
  H   H145      1.0  0.22022  0.74884  0.60678  1.0000
  C   C85       1.0  0.07101  0.85201  0.43404  1.0000
  C   C86       1.0  0.09165  0.81193  0.44803  1.0000
  C   C87       1.0  0.13379  0.81351  0.46956  1.0000
  C   C88       1.0  0.15502  0.85514  0.47813  1.0000
  C   C89       1.0  0.13354  0.89527  0.46547  1.0000
  C   C90       1.0  0.09205  0.89365  0.44293  1.0000
  H   H146      1.0  0.07584  0.77967  0.44119  1.0000
  H   H147      1.0  0.15033  0.78230  0.47903  1.0000
  H   H148      1.0  0.14942  0.92741  0.47232  1.0000
  H   H149      1.0  0.07638  0.92476  0.43209  1.0000
  H   H150      1.0  0.08180  0.70850  0.58432  1.0000
  C   C91       1.0  0.29925  0.79363  0.58468  1.0000
  H   H151      1.0  0.14722  0.73446  0.63224  1.0000
  H   H152      1.0  0.30321  0.75625  0.58309  1.0000
  C   C92       1.0  0.12114  0.86792  0.64603  1.0000
  Fe  Fe12      1.0  0.26571  0.95494  0.61746  1.0000
  H   H153      1.0  0.14332  0.75948  0.55803  1.0000
  H   H154      1.0  0.46276  0.89480  0.47796  1.0000
  S   S23       1.0  0.26974  0.98161  0.49567  1.0000
  H   H155      1.0  0.18681  0.99055  0.44351  1.0000
  H   H156      1.0  0.06219  0.74639  0.54332  1.0000
  H   H157      1.0  0.05020  0.53935  0.36893  1.0000
  H   H158      1.0  0.20896  0.79555  0.57373  1.0000
  H   H159      1.0  0.10930  0.80800  0.57153  1.0000
  S   S24       1.0  0.20290  0.95948  0.57712  1.0000
  H   H160      1.0  0.04750  0.75771  0.59771  1.0000
  H   H161      1.0  0.38185  0.94580  0.63877  1.0000
  H   H162      1.0  0.10593  0.61328  0.32180  1.0000
  H   H163      1.0  0.06361  0.93713  0.52126  1.0000
  C   C93       1.0  0.07474  0.74455  0.57656  1.0000
  H   H164      1.0  0.49709  0.96213  0.56249  1.0000
  C   C94       1.0  0.04868  0.97161  0.52415  1.0000
  H   H165      1.0  0.49095  0.86382  0.43626  1.0000
  C   C95       1.0  0.26373  0.80672  0.61791  1.0000
  C   C96       1.0  0.21652  0.78636  0.60719  1.0000
  C   C97       1.0  0.02306  0.53086  0.39055  1.0000
  H   H166      1.0  0.16448  0.85606  0.59125  1.0000
  C   C98       1.0  0.49409  0.87539  0.46962  1.0000
  C   C99       1.0  0.13755  0.77049  0.62685  1.0000
  C   C100      1.0  0.16616  0.84988  0.62605  1.0000
  H   H167      1.0  0.14194  0.52117  0.35022  1.0000
  H   H168      1.0  0.06037  0.99269  0.49721  1.0000
  H   H169      1.0  0.06164  0.98698  0.55398  1.0000
  H   H170      1.0  0.43904  0.96616  0.64604  1.0000
  H   H171      1.0  0.09109  0.84927  0.63379  1.0000
  H   H172      1.0  0.19402  0.87249  0.63733  1.0000
  N   N6        1.0  0.17771  0.80095  0.63548  1.0000
  C   C101      1.0  0.11332  0.91786  0.63577  1.0000
  H   H173      1.0  0.14136  0.93877  0.64916  1.0000
  H   H174      1.0  0.08072  0.92948  0.65003  1.0000
  H   H175      1.0  0.10956  0.77714  0.64981  1.0000
  H   H176      1.0  0.33062  0.87579  0.65134  1.0000
  H   H177      1.0  0.27645  0.79440  0.64896  1.0000
  H   H178      1.0  0.23890  0.71876  0.75197  1.0000
  H   H179      1.0  0.19637  0.56652  0.91190  1.0000
  C   C102      1.0  0.46914  0.52721  0.91866  1.0000
  Fe  Fe13      1.0  0.39822  0.78296  0.93272  1.0000
  S   S25       1.0  0.41287  0.73091  0.88295  1.0000
  C   C103      1.0  0.19478  0.59872  0.89342  1.0000
  C   C104      1.0  0.29778  0.89416  0.70974  1.0000
  Fe  Fe14      1.0  0.41742  0.79019  0.83858  1.0000
  S   S26       1.0  0.39522  0.78984  0.76966  1.0000
  C   C105      1.0  0.18811  0.62641  0.98319  1.0000
  S   S27       1.0  0.39698  0.84194  0.88681  1.0000
  C   C106      1.0  0.35780  0.83075  0.74778  1.0000
  C   C107      1.0  0.35813  0.83779  0.70382  1.0000
  C   C108      1.0  0.29696  0.88669  0.75373  1.0000
  C   C109      1.0  0.32719  0.85545  0.77279  1.0000
  C   C110      1.0  0.34447  0.56416  0.91110  1.0000
  H   H180      1.0  0.27323  0.90555  0.77320  1.0000
  H   H181      1.0  0.32638  0.85000  0.80666  1.0000
  H   H182      1.0  0.16200  0.60266  0.97090  1.0000
  H   H183      1.0  0.40743  0.94235  0.85811  1.0000
  C   C111      1.0  0.19074  0.79745  0.68166  1.0000
  H   H184      1.0  0.18026  0.67935  0.93611  1.0000
  C   C112      1.0  0.42734  0.99102  0.73232  1.0000
  H   H185      1.0  0.17764  0.51587  0.85215  1.0000
  C   C113      1.0  0.45646  0.93296  0.78315  1.0000
  C   C114      1.0  0.22846  0.75307  0.74117  1.0000
  C   C115      1.0  0.46620  0.97313  0.93867  1.0000
  H   H186      1.0  0.49911  0.85252  0.76008  1.0000
  H   H187      1.0  0.16716  0.53973  0.80048  1.0000
  H   H188      1.0  0.30897  0.68912  0.90024  1.0000
  H   H189      1.0  0.31307  0.98816  0.85335  1.0000
  S   S28       1.0  0.26070  0.93509  0.68708  1.0000
  C   C116      1.0  0.32882  0.86980  0.68500  1.0000
  H   H190      1.0  0.38171  0.81886  0.68425  1.0000
  C   C117      1.0  0.16601  0.54674  0.83504  1.0000
  H   H191      1.0  0.33718  0.95830  0.89802  1.0000
  C   C118      1.0  0.24103  0.66725  0.87728  1.0000
  C   C119      1.0  0.33684  0.96059  0.86289  1.0000
  H   H192      1.0  0.20365  0.76723  0.76425  1.0000
  C   C120      1.0  0.20714  0.75013  0.69696  1.0000
  N   N7        1.0  0.43268  0.97818  0.77831  1.0000
  C   C121      1.0  0.28553  0.73681  0.85403  1.0000
  H   H193      1.0  0.20919  0.68482  0.86685  1.0000
  H   H194      1.0  0.16132  0.80642  0.70216  1.0000
  H   H195      1.0  0.26269  0.72511  0.91723  1.0000
  H   H196      1.0  0.36405  0.95795  0.71358  1.0000
  H   H197      1.0  0.33874  0.54357  0.94009  1.0000
  H   H198      1.0  0.23186  0.57808  0.83500  1.0000
  H   H199      1.0  0.25364  0.75371  0.84324  1.0000
  H   H200      1.0  0.25513  0.65146  0.84827  1.0000
  C   C122      1.0  0.19697  0.58680  0.84553  1.0000
  C   C123      1.0  0.27160  0.60771  0.92616  1.0000
  H   H201      1.0  0.12187  0.86476  0.68100  1.0000
  H   H202      1.0  0.15942  0.61194  0.89812  1.0000
  H   H203      1.0  0.30140  0.71853  0.82702  1.0000
  H   H204      1.0  0.32434  0.92785  0.85003  1.0000
  H   H205      1.0  0.36775  0.94461  0.78505  1.0000
  C   C124      1.0  0.47254  0.57105  0.89311  1.0000
  C   C125      1.0  0.27584  0.70432  0.89064  1.0000
  H   H206      1.0  0.18506  0.61622  0.82644  1.0000
  C   C126      1.0  0.29921  0.58097  0.89277  1.0000
  H   H207      1.0  0.46119  0.99728  0.71774  1.0000
  H   H208      1.0  0.36687  0.59326  0.91897  1.0000
  N   N8        1.0  0.22954  0.63205  0.91037  1.0000
  C   C127      1.0  0.40340  0.96932  0.65757  1.0000
  H   H209      1.0  0.21743  0.82297  0.68968  1.0000
  C   C128      1.0  0.50078  0.92633  0.75699  1.0000
  S   S29       1.0  0.34070  0.76778  0.97828  1.0000
  C   C129      1.0  0.20821  0.65661  0.94745  1.0000
  H   H210      1.0  0.27974  0.55058  0.88280  1.0000
  H   H211      1.0  0.25936  0.77487  0.74061  1.0000
  H   H212      1.0  0.30969  0.76341  0.86480  1.0000
  H   H213      1.0  0.45191  0.56818  0.86368  1.0000
  H   H214      1.0  0.26261  0.58259  0.95097  1.0000
  H   H215      1.0  0.30735  0.60191  0.86470  1.0000
  H   H216      1.0  0.13013  0.55433  0.84399  1.0000
  H   H217      1.0  0.29484  0.63180  0.94229  1.0000
  C   C130      1.0  0.40056  0.95700  0.70452  1.0000
  H   H218      1.0  0.36213  0.54274  0.88728  1.0000
  H   H219      1.0  0.48685  0.56167  0.97634  1.0000
  H   H220      1.0  0.44355  0.94582  0.94736  1.0000
  H   H221      1.0  0.23307  0.73509  0.67566  1.0000
  H   H222      1.0  0.43303  0.90448  0.77523  1.0000
  C   C131      1.0  0.38594  0.97463  0.79799  1.0000
  Fe  Fe15      1.0  0.48641  0.74347  0.89993  1.0000
  C   C132      1.0  0.38504  0.97027  0.84701  1.0000
  H   H223      1.0  0.46583  0.92716  0.81686  1.0000
  H   H224      1.0  0.17778  0.72651  0.69857  1.0000
  S   S30       1.0  0.47172  0.79298  0.95215  1.0000
  H   H225      1.0  0.41337  0.92188  0.70818  1.0000
  H   H226      1.0  0.43267  0.52161  0.92583  1.0000
  C   C133      1.0  0.49794  0.53017  0.95989  1.0000
  H   H227      1.0  0.49339  0.92683  0.72250  1.0000
  H   H228      1.0  0.45937  0.60024  0.91175  1.0000
  Fe  Fe16      1.0  0.47200  0.84697  0.90124  1.0000
  S   S31       1.0  0.49236  0.79755  0.85055  1.0000
  H   H229      1.0  0.23351  0.67893  0.96311  1.0000
  H   H230      1.0  0.40171  0.69027  0.97062  1.0000
  C   C134      1.0  0.88580  0.35984  0.14106  1.0000
  C   C135      1.0  0.92897  0.38459  0.15551  1.0000
  C   C136      1.0  0.65412  0.40843  0.02224  1.0000
  H   H231      1.0  0.97011  0.03232  0.28451  1.0000
  C   C137      1.0  0.81173  0.38552  0.04175  1.0000
  C   C138      1.0  0.69049  0.39568  0.99616  1.0000
  C   C139      1.0  0.53128  0.49491  0.02304  1.0000
  C   C140      1.0  0.61544  0.38059  0.02429  1.0000
  H   H232      1.0  0.89467  0.32342  0.13812  1.0000
  H   H233      1.0  0.79555  0.39910  0.13400  1.0000
  H   H234      1.0  0.53544  0.46289  0.04132  1.0000
  C   C141      1.0  0.73766  0.37463  0.10044  1.0000
  H   H235      1.0  0.89635  0.37314  0.07512  1.0000
  C   C142      1.0  0.78774  0.36784  0.11551  1.0000
  H   H236      1.0  0.58308  0.31909  0.00261  1.0000
  H   H237      1.0  0.94123  0.37019  0.18604  1.0000
  H   H238      1.0  0.78819  0.33977  0.13908  1.0000
  C   C143      1.0  0.86830  0.37896  0.09810  1.0000
  H   H239      1.0  0.72612  0.34768  0.07862  1.0000
  H   H240      1.0  0.92184  0.42122  0.16019  1.0000
  H   H241      1.0  0.96994  0.44232  0.05802  1.0000
  H   H242      1.0  0.86530  0.41640  0.10175  1.0000
  H   H243      1.0  0.80848  0.42236  0.04882  1.0000
  S   S32       1.0  0.65557  0.45842  0.05320  1.0000
  H   H244      1.0  0.81449  0.21728  0.06855  1.0000
  H   H245      1.0  0.73454  0.40741  0.08351  1.0000
  H   H246      1.0  0.71987  0.41753  0.99362  1.0000
  H   H247      1.0  0.99702  0.42057  0.30000  1.0000
  H   H248      1.0  0.83732  0.29187  0.10370  1.0000
  C   C144      1.0  0.61310  0.34023  0.00068  1.0000
  S   S33       1.0  0.77505  0.49784  0.10439  1.0000
  H   H249      1.0  0.70526  0.34381  0.15547  1.0000
  N   N9        1.0  0.82371  0.35998  0.08178  1.0000
  H   H250      1.0  0.85991  0.36372  0.16640  1.0000
  C   C145      1.0  0.83020  0.31007  0.07356  1.0000
  H   H251      1.0  0.66938  0.38208  0.12572  1.0000
  S   S34       1.0  0.88446  0.48810  0.04661  1.0000
  C   C146      1.0  0.97749  0.47710  0.05003  1.0000
  H   H252      1.0  0.58711  0.39017  0.04431  1.0000
  H   H253      1.0  0.71347  0.40461  0.15943  1.0000
  C   C147      1.0  0.70462  0.37629  0.13776  1.0000
  H   H254      1.0  0.76108  0.28226  0.07629  1.0000
  H   H255      1.0  0.92969  0.46770  0.28259  1.0000
  H   H256      1.0  0.92517  0.49176  0.21293  1.0000
  H   H257      1.0  0.95658  0.38072  0.13169  1.0000
  C   C148      1.0  0.78933  0.28501  0.05312  1.0000
  H   H258      1.0  0.86104  0.30427  0.05373  1.0000
  H   H259      1.0  0.77790  0.37539  0.02950  1.0000
  H   H260      1.0  0.77668  0.30218  0.02416  1.0000
  C   C149      1.0  0.95970  0.48378  0.29781  1.0000
  C   C150      1.0  0.99731  0.02224  0.30725  1.0000
  C   C151      1.0  0.84505  0.38020  0.00390  1.0000
  C   C152      1.0  0.80256  0.23676  0.04049  1.0000
  H   H261      1.0  0.84587  0.49726  0.18338  1.0000
  H   H262      1.0  0.87942  0.39346  0.01161  1.0000
  H   H263      1.0  0.77234  0.21930  0.02686  1.0000
  H   H264      1.0  0.82990  0.23720  0.01616  1.0000
  H   H265      1.0  0.84825  0.34420  0.99430  1.0000
  C   C153      1.0  0.00189  0.45545  0.28773  1.0000
  H   H266      1.0  0.56317  0.01277  0.55278  1.0000
  Fe  Fe17      1.0  0.74049  0.11596  0.55782  1.0000
  S   S35       1.0  0.75703  0.05398  0.59619  1.0000
  S   S36       1.0  0.79588  0.16960  0.55431  1.0000
  Fe  Fe18      1.0  0.64178  0.08299  0.54086  1.0000
  S   S37       1.0  0.65358  0.01834  0.57632  1.0000
  S   S38       1.0  0.57235  0.10091  0.51291  1.0000
  Fe  Fe19      1.0  0.68694  0.06360  0.62482  1.0000
  H   H267      1.0  0.86618  0.43949  0.33915  1.0000
  C   C154      1.0  0.52530  0.06416  0.51985  1.0000
  S   S39       1.0  0.67314  0.12830  0.59007  1.0000
  S   S40       1.0  0.70757  0.07810  0.50454  1.0000
  H   H268      1.0  0.93494  0.10943  0.46814  1.0000
  H   H269      1.0  0.90878  0.29513  0.56450  1.0000
  H   H270      1.0  0.84401  0.29215  0.41251  1.0000
  H   H271      1.0  0.84605  0.29568  0.50809  1.0000
  H   H272      1.0  0.98720  0.08207  0.34472  1.0000
  S   S41       1.0  0.92142  0.20710  0.39444  1.0000
  H   H273      1.0  0.84394  0.14921  0.40601  1.0000
  C   C155      1.0  0.76401  0.24311  0.41402  1.0000
  C   C156      1.0  0.88998  0.19273  0.44034  1.0000
  C   C157      1.0  0.90106  0.21030  0.48016  1.0000
  C   C158      1.0  0.87289  0.20134  0.51523  1.0000
  C   C159      1.0  0.83387  0.17415  0.51101  1.0000
  C   C160      1.0  0.82440  0.15423  0.47176  1.0000
  C   C161      1.0  0.85238  0.16354  0.43658  1.0000
  H   H274      1.0  0.93088  0.23141  0.48381  1.0000
  H   H275      1.0  0.88085  0.21624  0.54566  1.0000
  H   H276      1.0  0.79455  0.13312  0.46809  1.0000
  H   H277      1.0  0.90836  0.37969  0.50761  1.0000
  H   H278      1.0  0.79555  0.32641  0.40249  1.0000
  C   C162      1.0  0.59672  0.02335  0.42712  1.0000
  H   H279      1.0  0.74465  0.37007  0.43339  1.0000
  H   H280      1.0  0.69436  0.42630  0.46721  1.0000
  C   C163      1.0  0.54375  0.21043  0.58414  1.0000
  H   H281      1.0  0.98588  0.13767  0.48575  1.0000
  Fe  Fe20      1.0  0.97630  0.26155  0.39320  1.0000
  H   H282      1.0  0.88569  0.06977  0.51926  1.0000
  H   H283      1.0  0.70444  0.37898  0.50206  1.0000
  C   C164      1.0  0.87682  0.43170  0.37213  1.0000
  H   H284      1.0  0.54567  0.14367  0.60942  1.0000
  C   C165      1.0  0.92541  0.32357  0.54756  1.0000
  H   H285      1.0  0.73357  0.43222  0.51095  1.0000
  H   H286      1.0  0.95200  0.30989  0.52601  1.0000
  H   H287      1.0  0.89192  0.30195  0.47159  1.0000
  C   C166      1.0  0.86351  0.37945  0.43475  1.0000
  H   H288      1.0  0.98008  0.07702  0.49264  1.0000
  C   C167      1.0  0.86532  0.32107  0.48941  1.0000
  H   H289      1.0  0.75398  0.29044  0.46449  1.0000
  H   H290      1.0  0.94241  0.34569  0.57124  1.0000
  H   H291      1.0  0.51461  0.07704  0.60796  1.0000
  H   H292      1.0  0.80185  0.25291  0.47112  1.0000
  C   C168      1.0  0.79768  0.36923  0.48356  1.0000
  H   H293      1.0  0.81243  0.40122  0.38665  1.0000
  H   H294      1.0  0.77345  0.42345  0.44197  1.0000
  C   C169      1.0  0.89018  0.35109  0.52261  1.0000
  H   H295      1.0  0.98373  0.00357  0.53233  1.0000
  H   H296      1.0  0.56268  0.02526  0.44243  1.0000
  C   C170      1.0  0.98326  0.47442  0.43238  1.0000
  H   H297      1.0  0.74352  0.21600  0.42918  1.0000
  H   H298      1.0  0.85517  0.36272  0.36748  1.0000
  C   C171      1.0  0.84893  0.39198  0.38891  1.0000
  H   H299      1.0  0.91370  0.01207  0.47029  1.0000
  C   C172      1.0  0.78335  0.27446  0.44814  1.0000
  C   C173      1.0  0.81539  0.31049  0.42846  1.0000
  N   N10       1.0  0.83445  0.34558  0.45852  1.0000
  Fe  Fe21      1.0  0.72195  0.01583  0.54373  1.0000
  C   C174      1.0  0.75959  0.39281  0.45761  1.0000
  H   H300      1.0  0.78169  0.34522  0.50630  1.0000
  H   H301      1.0  0.86695  0.41143  0.45324  1.0000
  H   H302      1.0  0.81278  0.39621  0.50378  1.0000
  C   C175      1.0  0.53038  0.02266  0.54057  1.0000
  H   H303      1.0  0.89899  0.36628  0.43130  1.0000
  H   H304      1.0  0.74161  0.26229  0.39191  1.0000
  H   H305      1.0  0.95503  0.48231  0.33267  1.0000
  H   H306      1.0  0.86544  0.36508  0.54578  1.0000
  H   H307      1.0  0.59353  0.03699  0.39447  1.0000
  H   H308      1.0  0.87151  0.46227  0.39207  1.0000
  H   H309      1.0  0.79201  0.22688  0.39578  1.0000
  S   S42       1.0  0.97659  0.41831  0.45117  1.0000
  S   S43       1.0  0.96395  0.32983  0.36384  1.0000
  H   H310      1.0  0.54717  0.00535  0.63852  1.0000
  H   H311      1.0  0.97692  0.06820  0.41369  1.0000
  H   H312      1.0  0.62118  0.04481  0.44501  1.0000
  C   C176      1.0  0.72072  0.40847  0.48637  1.0000
  C   C177      1.0  0.51899  0.16747  0.59797  1.0000
  H   H313      1.0  0.98500  0.12863  0.40824  1.0000
  H   H314      1.0  0.56277  0.22545  0.61118  1.0000
  H   H315      1.0  0.85309  0.05369  0.56479  1.0000
  C   C178      1.0  0.97253  0.10600  0.47132  1.0000
  C   C179      1.0  0.86183  0.04398  0.53183  1.0000
  H   H316      1.0  0.51913  0.23567  0.57134  1.0000
  H   H317      1.0  0.83001  0.04429  0.51254  1.0000
  C   C180      1.0  0.99353  0.09852  0.42760  1.0000
  H   H318      1.0  0.56861  0.20184  0.55881  1.0000
  H   H319      1.0  0.91374  0.42300  0.37214  1.0000
  H   H320      1.0  0.63333  0.24443  0.77531  1.0000
  Fe  Fe22      1.0  0.52902  0.21500  0.85123  1.0000
  S   S44       1.0  0.57087  0.17783  0.89930  1.0000
  S   S45       1.0  0.54070  0.20681  0.78052  1.0000
  H   H321      1.0  0.60345  0.35376  0.82887  1.0000
  S   S46       1.0  0.51659  0.23697  0.97239  1.0000
  Fe  Fe23      1.0  0.57864  0.24575  0.93137  1.0000
  H   H322      1.0  0.54540  0.36828  0.93920  1.0000
  C   C181      1.0  0.64982  0.32686  0.97533  1.0000
  C   C182      1.0  0.61587  0.13589  0.69578  1.0000
  S   S47       1.0  0.54069  0.28300  0.88074  1.0000
  H   H323      1.0  0.67885  0.31668  0.83294  1.0000
  H   H324      1.0  0.74323  0.30957  0.77591  1.0000
  C   C183      1.0  0.67908  0.19926  0.83514  1.0000
  H   H325      1.0  0.62882  0.34979  0.77703  1.0000
  H   H326      1.0  0.78373  0.26537  0.76260  1.0000
  H   H327      1.0  0.55202  0.46984  0.91835  1.0000
  C   C184      1.0  0.62010  0.09445  0.76158  1.0000
  C   C185      1.0  0.59185  0.12707  0.78117  1.0000
  C   C186      1.0  0.57597  0.16444  0.75806  1.0000
  C   C187      1.0  0.58823  0.16863  0.71539  1.0000
  H   H328      1.0  0.63258  0.06588  0.77971  1.0000
  H   H329      1.0  0.58263  0.12344  0.81413  1.0000
  C   C188      1.0  0.61418  0.32990  0.80355  1.0000
  C   C189      1.0  0.54015  0.03578  0.65818  1.0000
  C   C190      1.0  0.76688  0.28374  0.78897  1.0000
  H   H330      1.0  0.73433  0.26679  0.84870  1.0000
  H   H331      1.0  0.58347  0.31149  0.79213  1.0000
  H   H332      1.0  0.82966  0.28479  0.82644  1.0000
  H   H333      1.0  0.57180  0.05625  0.65943  1.0000
  H   H334      1.0  0.64890  0.11690  0.87044  1.0000
  H   H335      1.0  0.70283  0.10079  0.89341  1.0000
  C   C191      1.0  0.63241  0.09877  0.71873  1.0000
  C   C192      1.0  0.74219  0.24964  0.81810  1.0000
  C   C193      1.0  0.55025  0.39734  0.91734  1.0000
  C   C194      1.0  0.64945  0.29661  0.82129  1.0000
  H   H336      1.0  0.67386  0.21971  0.86438  1.0000
  H   H337      1.0  0.67480  0.15177  0.91121  1.0000
  H   H338      1.0  0.76814  0.22352  0.82632  1.0000
  C   C195      1.0  0.68167  0.13007  0.88312  1.0000
  N   N11       1.0  0.69988  0.22766  0.80030  1.0000
  H   H339      1.0  0.54744  0.07179  0.90822  1.0000
  H   H340      1.0  0.57661  0.19764  0.69739  1.0000
  H   H341      1.0  0.82215  0.33247  0.79141  1.0000
  H   H342      1.0  0.64445  0.18764  0.82557  1.0000
  S   S48       1.0  0.66887  0.05787  0.69500  1.0000
  C   C196      1.0  0.80422  0.30898  0.81320  1.0000
  C   C197      1.0  0.66447  0.26215  0.78692  1.0000
  H   H343      1.0  0.67615  0.28254  0.75962  1.0000
  H   H344      1.0  0.63360  0.27926  0.84858  1.0000
  H   H345      1.0  0.57735  0.44288  0.96367  1.0000
  C   C198      1.0  0.71150  0.19658  0.76361  1.0000
  C   C199      1.0  0.70691  0.15679  0.84905  1.0000
  C   C200      1.0  0.71131  0.21720  0.71831  1.0000
  H   H346      1.0  0.85259  0.40320  0.93897  1.0000
  H   H347      1.0  0.74526  0.18005  0.76902  1.0000
  H   H348      1.0  0.68644  0.16834  0.76170  1.0000
  H   H349      1.0  0.79427  0.39367  0.95463  1.0000
  H   H350      1.0  0.71295  0.13331  0.82219  1.0000
  H   H351      1.0  0.67553  0.22347  0.70798  1.0000
  H   H352      1.0  0.72980  0.24970  0.71660  1.0000
  H   H353      1.0  0.78918  0.32921  0.83941  1.0000
  H   H354      1.0  0.74036  0.16673  0.86257  1.0000
  S   S49       1.0  0.64853  0.27511  0.94689  1.0000
  C   C201      1.0  0.53309  0.00023  0.90194  1.0000
  H   H355      1.0  0.76978  0.17952  0.69367  1.0000
  H   H356      1.0  0.62451  0.13975  0.66292  1.0000
  C   C202      1.0  0.68865  0.35465  0.97331  1.0000
  C   C203      1.0  0.52472  0.04449  0.91670  1.0000
  H   H357      1.0  0.71706  0.34469  0.95358  1.0000
  H   H358      1.0  0.50544  0.09178  0.82091  1.0000
  H   H359      1.0  0.82457  0.44330  0.97320  1.0000
  H   H360      1.0  0.58417  0.39371  0.90208  1.0000
  H   H361      1.0  0.71551  0.15159  0.68643  1.0000
  H   H362      1.0  0.52337  0.39611  0.89246  1.0000
  C   C204      1.0  0.54787  0.44205  0.94158  1.0000
  H   H363      1.0  0.51487  0.11680  0.68399  1.0000
  C   C205      1.0  0.82788  0.40671  0.96538  1.0000
  C   C206      1.0  0.73307  0.18485  0.68627  1.0000
  H   H364      1.0  0.53129  0.02474  0.69071  1.0000
  H   H365      1.0  0.73036  0.19933  0.65387  1.0000
  H   H366      1.0  0.50524  0.19061  0.66050  1.0000
  Fe  Fe24      1.0  0.50466  0.17263  0.93475  1.0000
  S   S50       1.0  0.87276  0.75051  0.27369  1.0000
  Fe  Fe25      1.0  0.76219  0.56941  0.12474  1.0000
  S   S51       1.0  0.76026  0.58727  0.19454  1.0000
  C   C207      1.0  0.93329  0.61056  0.27598  1.0000
  S   S52       1.0  0.69928  0.57447  0.08460  1.0000
  C   C208      1.0  0.84156  0.70505  0.25183  1.0000
  C   C209      1.0  0.84419  0.69616  0.20816  1.0000
  C   C210      1.0  0.81974  0.65997  0.19007  1.0000
  C   C211      1.0  0.79187  0.63293  0.21550  1.0000
  C   C212      1.0  0.78842  0.64258  0.25890  1.0000
  C   C213      1.0  0.81330  0.67833  0.27706  1.0000
  H   H367      1.0  0.86564  0.71704  0.18837  1.0000
  H   H368      1.0  0.82242  0.65317  0.15653  1.0000
  H   H369      1.0  0.76624  0.62237  0.27861  1.0000
  H   H370      1.0  0.79216  0.71159  0.06575  1.0000
  C   C214      1.0  0.78454  0.74651  0.07692  1.0000
  H   H371      1.0  0.86511  0.57321  0.23914  1.0000
  S   S53       1.0  0.80845  0.60019  0.07643  1.0000
  C   C215      1.0  0.59654  0.67735  0.10030  1.0000
  H   H372      1.0  0.67629  0.73509  0.21920  1.0000
  Fe  Fe26      1.0  0.81845  0.52874  0.05319  1.0000
  C   C216      1.0  0.88876  0.54515  0.24812  1.0000
  C   C217      1.0  0.67164  0.66957  0.24817  1.0000
  Fe  Fe27      1.0  0.74572  0.60075  0.03428  1.0000
  H   H373      1.0  0.59661  0.54728  0.06618  1.0000
  H   H374      1.0  0.80544  0.75378  0.10555  1.0000
  H   H375      1.0  0.68074  0.63366  0.24166  1.0000
  C   C218      1.0  0.90989  0.52558  0.20681  1.0000
  H   H376      1.0  0.64573  0.85555  0.13172  1.0000
  H   H377      1.0  0.98283  0.53398  0.25286  1.0000
  S   S54       1.0  0.72173  0.66610  0.00316  1.0000
  H   H378      1.0  0.62691  0.67904  0.17651  1.0000
  C   C219      1.0  0.95164  0.55285  0.03322  1.0000
  H   H379      1.0  0.94535  0.69610  0.23869  1.0000
  N   N12       1.0  0.66886  0.71546  0.13153  1.0000
  C   C220      1.0  0.96515  0.53387  0.28373  1.0000
  H   H380      1.0  0.56953  0.85590  0.01415  1.0000
  C   C221      1.0  0.64650  0.69325  0.09372  1.0000
  H   H381      1.0  0.93229  0.62097  0.20735  1.0000
  H   H382      1.0  0.67296  0.78201  0.15986  1.0000
  C   C222      1.0  0.99742  0.56614  0.02761  1.0000
  H   H383      1.0  0.67760  0.64975  0.16139  1.0000
  H   H384      1.0  0.59633  0.64550  0.11907  1.0000
  H   H385      1.0  0.61949  0.89086  0.00787  1.0000
  H   H386      1.0  0.59194  0.64096  0.04033  1.0000
  H   H387      1.0  0.61860  0.75648  0.16446  1.0000
  C   C223      1.0  0.66361  0.68403  0.16906  1.0000
  Fe  Fe28      1.0  0.71652  0.50567  0.05891  1.0000
  S   S55       1.0  0.76003  0.53194  0.00587  1.0000
  H   H388      1.0  0.86612  0.51802  0.26060  1.0000
  H   H389      1.0  0.73436  0.68544  0.11684  1.0000
  H   H390      1.0  0.72368  0.69785  0.20929  1.0000
  C   C224      1.0  0.71941  0.71967  0.12305  1.0000
  H   H391      1.0  0.93708  0.54725  0.19373  1.0000
  C   C225      1.0  0.68601  0.69978  0.21124  1.0000
  H   H392      1.0  0.92425  0.57689  0.02805  1.0000
  H   H393      1.0  0.73771  0.73295  0.15125  1.0000
  C   C226      1.0  0.73367  0.75160  0.08661  1.0000
  H   H394      1.0  0.98684  0.60151  0.22728  1.0000
  H   H395      1.0  0.79432  0.77054  0.05150  1.0000
  H   H396      1.0  0.68970  0.68033  0.27746  1.0000
  C   C227      1.0  0.95708  0.62338  0.23395  1.0000
  C   C228      1.0  0.64779  0.76086  0.14227  1.0000
  H   H397      1.0  0.85878  0.55325  0.16352  1.0000
  H   H398      1.0  0.71476  0.74466  0.05696  1.0000
  H   H399      1.0  0.72771  0.78736  0.09604  1.0000
  H   H400      1.0  0.63430  0.67220  0.25365  1.0000
  C   C229      1.0  0.94144  0.50801  0.04369  1.0000
  H   H401      1.0  0.64735  0.71548  0.06553  1.0000
  H   H402      1.0  0.66639  0.66303  0.08377  1.0000
  H   H403      1.0  0.65345  0.79319  0.07877  1.0000
  H   H404      1.0  0.57617  0.70313  0.11756  1.0000
  C   C230      1.0  0.58985  0.87576  0.99109  1.0000
  H   H405      1.0  0.55927  0.56595  0.10805  1.0000
  H   H406      1.0  0.88931  0.50477  0.14358  1.0000
  C   C231      1.0  0.57277  0.66721  0.05823  1.0000
  C   C232      1.0  0.61536  0.83716  0.11958  1.0000
  H   H407      1.0  0.59753  0.77365  0.09152  1.0000
  C   C233      1.0  0.62867  0.78960  0.10488  1.0000
  N   N13       1.0  0.92149  0.56119  0.28205  1.0000
  H   H408      1.0  0.90214  0.63200  0.27664  1.0000
  H   H409      1.0  0.58912  0.83542  0.14488  1.0000
  C   C234      1.0  0.56555  0.53864  0.08459  1.0000
  H   H410      1.0  0.95494  0.62254  0.30285  1.0000
  H   H411      1.0  0.52010  0.56711  0.03854  1.0000
  H   H412      1.0  0.81016  0.68564  0.31052  1.0000
  H   H413      1.0  0.82865  0.57450  0.30647  1.0000
  H   H414      1.0  0.60090  0.85659  0.09254  1.0000
  C   C235      1.0  0.52440  0.53425  0.05505  1.0000
  C   C236      1.0  0.97429  0.67216  0.23498  1.0000
  H   H415      1.0  0.56993  0.69841  0.03876  1.0000
  C   C237      1.0  0.87364  0.51986  0.17235  1.0000
  H   H416      1.0  0.98977  0.54988  0.30616  1.0000
  H   H417      1.0  0.66122  0.74100  0.98815  1.0000
  H   H418      1.0  0.99191  0.68017  0.20481  1.0000
  H   H419      1.0  0.53779  0.65438  0.06421  1.0000
  H   H420      1.0  0.99857  0.67726  0.26158  1.0000
  H   H421      1.0  0.57168  0.50643  0.10194  1.0000
  H   H422      1.0  0.56519  0.50036  0.00803  1.0000
  H   H423      1.0  0.87332  0.91506  0.36056  1.0000
  S   S56       1.0  0.88356  0.69303  0.38908  1.0000
  H   H424      1.0  0.93219  0.89810  0.35280  1.0000
  S   S57       1.0  0.96389  0.73801  0.44971  1.0000
  Fe  Fe29      1.0  0.95963  0.68533  0.39766  1.0000
  H   H425      1.0  0.69236  0.90981  0.44512  1.0000
  Fe  Fe30      1.0  0.88912  0.75078  0.43618  1.0000
  S   S58       1.0  0.84076  0.76713  0.49067  1.0000
  S   S59       1.0  0.90152  0.80339  0.38660  1.0000
  H   H426      1.0  0.93663  0.58014  0.44566  1.0000
  H   H427      1.0  0.89498  0.82544  0.55573  1.0000
  H   H428      1.0  0.94826  0.79688  0.54601  1.0000
  H   H429      1.0  0.64610  0.97401  0.40760  1.0000
  H   H430      1.0  0.73074  0.84700  0.39780  1.0000
  C   C238      1.0  0.95920  0.55397  0.43386  1.0000
  C   C239      1.0  0.81480  0.82142  0.49311  1.0000
  C   C240      1.0  0.81062  0.84819  0.45686  1.0000
  C   C241      1.0  0.79126  0.89166  0.45935  1.0000
  C   C242      1.0  0.77569  0.90906  0.49806  1.0000
  C   C243      1.0  0.77878  0.88213  0.53443  1.0000
  C   C244      1.0  0.79809  0.83828  0.53185  1.0000
  H   H431      1.0  0.82177  0.83523  0.42666  1.0000
  H   H432      1.0  0.78844  0.91201  0.43094  1.0000
  H   H433      1.0  0.76656  0.89504  0.56442  1.0000
  H   H434      1.0  0.80075  0.81759  0.56004  1.0000
  N   N14       1.0  0.62514  0.90398  0.47326  1.0000
  H   H435      1.0  0.86009  0.62024  0.33082  1.0000
  C   C245      1.0  0.64211  0.89106  0.51687  1.0000
  H   H436      1.0  0.92283  0.56740  0.35035  1.0000
  C   C246      1.0  0.58062  0.88047  0.46296  1.0000
  C   C247      1.0  0.99400  0.56523  0.40555  1.0000
  H   H437      1.0  0.95888  0.96195  0.39620  1.0000
  C   C248      1.0  0.61028  0.90205  0.55456  1.0000
  C   C249      1.0  0.83263  0.57264  0.37434  1.0000
  H   H438      1.0  0.89001  0.52101  0.33138  1.0000
  H   H439      1.0  0.99806  0.92352  0.47123  1.0000
  H   H440      1.0  0.64811  0.85397  0.51915  1.0000
  H   H441      1.0  0.69942  0.83330  0.47088  1.0000
  C   C250      1.0  0.67577  0.83859  0.44369  1.0000
  H   H442      1.0  0.58819  0.95404  0.40767  1.0000
  H   H443      1.0  0.57776  0.87368  0.42832  1.0000
  H   H444      1.0  0.57991  0.84639  0.47808  1.0000
  S   S60       1.0  0.75231  0.96434  0.49793  1.0000
  Fe  Fe31      1.0  0.97579  0.78856  0.39791  1.0000
  C   C251      1.0  0.70131  0.82427  0.40366  1.0000
  H   H445      1.0  0.53625  0.91749  0.50826  1.0000
  H   H446      1.0  0.58003  0.87951  0.55373  1.0000
  H   H447      1.0  0.67817  0.82513  0.37574  1.0000
  H   H448      1.0  0.91162  0.95093  0.33139  1.0000
  C   C252      1.0  0.99656  0.96901  0.52535  1.0000
  H   H449      1.0  0.66514  0.91579  0.59971  1.0000
  N   N15       1.0  0.92694  0.94067  0.48122  1.0000
  C   C253      1.0  0.91465  0.90576  0.51422  1.0000
  H   H450      1.0  0.93877  0.89024  0.43248  1.0000
  H   H451      1.0  0.82340  0.53627  0.37636  1.0000
  C   C254      1.0  0.95411  0.50876  0.44744  1.0000
  H   H452      1.0  0.59869  0.93769  0.55425  1.0000
  C   C255      1.0  0.90907  0.92736  0.35865  1.0000
  H   H453      1.0  0.87741  0.89853  0.51252  1.0000
  H   H454      1.0  0.92002  0.91881  0.54673  1.0000
  H   H455      1.0  0.67582  0.90722  0.52296  1.0000
  H   H456      1.0  0.88115  0.90715  0.43766  1.0000
  C   C256      1.0  0.93204  0.83061  0.55041  1.0000
  C   C257      1.0  0.85385  0.58338  0.33132  1.0000
  C   C258      1.0  0.53583  0.90571  0.47512  1.0000
  C   C259      1.0  0.92271  0.95169  0.39952  1.0000
  S   S61       1.0  0.97710  0.73586  0.34673  1.0000
  H   H457      1.0  0.85815  0.97271  0.54438  1.0000
  C   C260      1.0  0.63455  0.89383  0.59683  1.0000
  H   H458      1.0  0.61104  0.90198  0.62334  1.0000
  H   H459      1.0  0.53059  0.93592  0.45474  1.0000
  C   C261      1.0  0.91670  0.92013  0.43841  1.0000
  H   H460      1.0  0.64868  0.89536  0.40868  1.0000
  C   C262      1.0  0.61351  0.97438  0.42557  1.0000
  H   H461      1.0  0.71454  0.78920  0.40754  1.0000
  Fe  Fe32      1.0  0.90151  0.74548  0.34047  1.0000
  H   H462      1.0  0.80118  0.59324  0.37860  1.0000
  H   H463      1.0  0.92691  0.83995  0.48341  1.0000
  H   H464      1.0  0.64524  0.85782  0.59969  1.0000
  H   H465      1.0  0.85680  0.58109  0.40036  1.0000
  H   H466      1.0  0.64595  0.81592  0.44751  1.0000
  C   C263      1.0  0.66088  0.88907  0.44160  1.0000
  H   H467      1.0  0.94729  0.84699  0.57876  1.0000
  C   C264      1.0  0.93989  0.85950  0.51097  1.0000
  C   C265      1.0  0.62164  0.95497  0.47068  1.0000
  H   H468      1.0  0.59458  0.96829  0.49174  1.0000
  H   H469      1.0  0.65354  0.97089  0.48284  1.0000
  H   H470      1.0  0.97725  0.86377  0.50744  1.0000
  C   C266      1.0  0.89888  0.55681  0.32487  1.0000
  C   C267      1.0  0.97703  0.95261  0.48239  1.0000
  H   H471      1.0  0.86398  0.97782  0.46926  1.0000
  H   H472      1.0  0.90121  0.98255  0.40215  1.0000
  H   H473      1.0  0.98771  0.94606  0.55177  1.0000
  H   H474      1.0  0.98443  0.98016  0.45947  1.0000
  C   C268      1.0  0.89731  0.98253  0.48597  1.0000
  S   S62       1.0  0.00178  0.62109  0.38638  1.0000
  C   C269      1.0  0.88369  0.99687  0.53155  1.0000
  H   H475      1.0  0.91313  0.99736  0.55346  1.0000
  H   H476      1.0  0.98246  0.99849  0.33062  1.0000
  H   H477      1.0  0.92768  0.50043  0.46996  1.0000
  H   H478      1.0  0.58630  0.74753  0.95084  1.0000
  H   H479      1.0  0.57803  0.74234  0.82493  1.0000
  H   H480      1.0  0.58944  0.84064  0.85350  1.0000
  H   H481      1.0  0.53329  0.87925  0.80088  1.0000
  C   C270      1.0  0.59509  0.76578  0.80244  1.0000
  H   H482      1.0  0.65052  0.81265  0.80022  1.0000
  H   H483      1.0  0.65966  0.76418  0.83381  1.0000
  H   H484      1.0  0.78123  0.80707  0.97474  1.0000
  S   S63       1.0  0.53175  0.68089  0.90574  1.0000
  H   H485      1.0  0.52612  0.95307  0.76411  1.0000
  N   N16       1.0  0.65435  0.84373  0.88667  1.0000
  C   C271      1.0  0.63448  0.79039  0.82416  1.0000
  C   C272      1.0  0.66728  0.66901  0.97877  1.0000
  H   H486      1.0  0.60830  0.74545  0.77549  1.0000
  H   H487      1.0  0.66253  0.59777  0.96510  1.0000
  H   H488      1.0  0.55409  0.87615  0.74728  1.0000
  C   C273      1.0  0.67804  0.93778  0.80163  1.0000
  C   C274      1.0  0.58285  0.67696  0.93560  1.0000
  C   C275      1.0  0.60426  0.63457  0.94034  1.0000
  C   C276      1.0  0.64608  0.63050  0.96219  1.0000
  H   H489      1.0  0.56980  0.79045  0.78986  1.0000
  H   H490      1.0  0.70182  0.85614  0.83530  1.0000
  H   H491      1.0  0.58874  0.60482  0.92653  1.0000
  H   H492      1.0  0.62546  0.88849  0.80931  1.0000
  H   H493      1.0  0.70879  0.79470  0.87902  1.0000
  H   H494      1.0  0.70295  0.89742  0.87571  1.0000
  H   H495      1.0  0.70495  0.84059  0.96683  1.0000
  C   C277      1.0  0.61785  0.81773  0.86330  1.0000
  C   C278      1.0  0.60317  0.71514  0.95360  1.0000
  C   C279      1.0  0.67935  0.87544  0.85730  1.0000
  H   H496      1.0  0.60157  0.79260  0.88470  1.0000
  H   H497      1.0  0.50854  0.57781  0.88415  1.0000
  H   H498      1.0  0.62818  0.93044  0.85044  1.0000
  C   C280      1.0  0.64895  0.90769  0.83018  1.0000
  C   C281      1.0  0.63240  0.87160  0.92116  1.0000
  C   C282      1.0  0.52309  0.88071  0.76699  1.0000
  S   S64       1.0  0.51648  0.90944  0.89392  1.0000
  H   H499      1.0  0.70130  0.95919  0.82089  1.0000
  H   H500      1.0  0.65554  0.96050  0.78271  1.0000
  H   H501      1.0  0.60750  0.89574  0.90742  1.0000
  C   C283      1.0  0.68818  0.81021  0.90483  1.0000
  H   H502      1.0  0.77728  0.78105  0.92323  1.0000
  C   C284      1.0  0.64544  0.71125  0.97473  1.0000
  H   H503      1.0  0.67021  0.78123  0.91971  1.0000
  H   H504      1.0  0.56233  0.99378  0.88196  1.0000
  H   H505      1.0  0.69850  0.91686  0.77936  1.0000
  H   H506      1.0  0.74188  0.85813  0.92440  1.0000
  C   C285      1.0  0.60588  0.84473  0.95531  1.0000
  C   C286      1.0  0.72266  0.82916  0.93768  1.0000
  H   H507      1.0  0.65800  0.89359  0.93708  1.0000
  C   C287      1.0  0.75722  0.79287  0.95096  1.0000
  H   H508      1.0  0.53402  0.53656  0.95063  1.0000
  H   H509      1.0  0.57493  0.82921  0.94116  1.0000
  H   H510      1.0  0.56777  0.90334  0.97843  1.0000
  C   C288      1.0  0.50394  0.96441  0.91293  1.0000
  H   H511      1.0  0.62717  0.81767  0.96957  1.0000
  H   H512      1.0  0.73969  0.76336  0.96540  1.0000
