data_image0
_chemical_formula_structural       FeS2FeS2FeSFeS3H2FeSHCHSHCH3C2H2CH4C2H2C2H4C2HCH6C3HNCH2CHCH5SC2H2CNC2H2C4HCH4SH3CHC4H2C4HCH2C3HC7NH2CH3CH6CHC4H9CSNC2HC2H13CH2CH8CH3FeCH2C2SHCH3S2H4C2HCH4CH3FeS2CH3CFeS2FeS2FeSFeS3HC4H4CNCHC2HSC8H5SH3CH5CH2C2H2NHC4H3C2HCH7CHCHCH6CHCH12CHCH3CSC2SHCHNHCH5CH2C4H4C2H4C2H5CH3NH2C3H2C2H2CH4C3H2C3H2C2HCHCH3CHCH5CH3CH3CHCHCHCHNFeH6CHSHCH2C2H2C2NFeH3CHFe2C2FeHFeS3H3CSCHFeSCH3CH5FeS2FeS2FeSCS4HFeH2CHC2HNHC2HCH2C6H2CHCH6FeH4CSH3NC9H2SH18SH8CH3CHC2H4C2H5C2H7CHNC3H2CHC4H3CH4CHCH3CH3CHCHCH2SHC3HNC5H2C4SH5CH4CH3C2H2CHCHC2HCH2C2FeSCFeS2FeS2FeSFeSH2C6H6SHS2FeSHFeS2FeSCSHC6H2C4HCHCHCH2C2H2SH2CH2CH2FeHCH10SHSH2CHC2H3CH2C2HNH2CH3C3H6CH7CHNH4CHC2HFeCH3CH4CH3CH2SC2HCHCH2C2H3C3HCH3CSH8C3FeCHSCHCH3NH3NH4C2H9C2H2CH2SC2HC2HFeHS2H3FeCS2FeH2C2HFeHFeCH2C4HSH4C3HSHCHCH6CH2CNHSHFeH3CHCH2CNC5H4CH15FeHCH3CHCH3C2H4C2SHSH3C3SC3HCH6CH2C3H2C2H7C2H4SHCHFeH5FeSHSHCHSCFeS2FeSFeS2C6H4SHC4HCH5CHC2H2C2H2C3HC2H5NCH5C2H3SHCH6SHCHCFeCH12NC4H2C3HC2HCH14C2H2CH3SH3NC11H19FeH8SH4C2H8C2H4CHCHCH2C2H2C5HC2HCHFeS2FeS2FeSFeS3C2FeSH2CH4CH5CH4C2HC3HCH4CH4CHC3H4C3HCHC3H3CFeCHNCH3C2H6C3H12C2H2C2H2CH2CH3CH3C3H5C3H2SH2CH3CHNC4H3CH2C2HCH4CH2C3H3SC3H5C5H3NCH3CH4CH2CH2C2H2CHCHCHSHCH2CNHC2H2CH2FeCHC3H5CH3NCHCSHFeS2HCHCFe2S2FeS2FeSFeS3C6H4C4HCH2C4H4C2HCH3C3H3CSH8CNHCH2C2NC2H2CH3C2HC2HCHC2H5SC2HCHCHC4H2CH8CH2CH3C2H3C3H3CH2CH3SCH4C2H5C2H3CHC4H2CH4C2H2CH5SH12CH2C2HCH2CNCH3CH8CH3NHSHC2H2CH2CFe2H3CFeHS2CNCFeHSC3SH4C2H3FeS2FeS2FeSHS4HFeNC2H2C3HC2H2CHC6H2C3HC2HCHCH8SHC2HC2HCH2NCH3CHCH2SH3CH6C2HCH5SCH2CHNH6CNH2CH6CHC3FeCH4CH2CFeC5SCHCH2SH2FeCHC2H2CH3CHC3H6SCH4CH4CHCH2SCH2CH7CH3CH4CHCH2CH3CFeSHFeS2FeS2FeSFeSH2C6H5CSHS2FeSCFeS2FeSHS2C6H2CFeHCH4NCHCHC5H2C2SC2H2CH2CH2C3H3FeH2C2H11CNCH2C2HSCH2C2H3CH8CH5C2H7C4HC2H4CH4CH2CH6CHCH2CNCNC5HCHCH8CH5CHCH3C2H6CH4CHSHCH2CH5CH4C2SH9SH4C3H2SFe2SHFeH2CS2H2CFeS3H8C2HNHC3HCH2CHC3H2SCSH5SCHC2HSH2CH2CH3CH2FeH2CH2CHCH2C2SCH3CHCNH4C2H2NHC8HC2SFeH8CH8CHCH5CH2FeCH2CH2CHC3HCHCSH7CHCH3SH10CH2FeS3CHFeSCFeS2FeSCS2C6H4CHC6H9CH5CFeHCNC8HC3H17CH10NC7SH4CH3NH8CHC2H2C2HC2H2C2H9CHC2H2CH2FeHSH4FeH2C2H3CH3NCH2CHSH2C2HCHCH5CH6
_chemical_formula_sum              "Fe96 S192 H1536 C864 N48"
_cell_length_a       42.938
_cell_length_b       42.9652
_cell_length_c       36.5045
_cell_angle_alpha    90.0329
_cell_angle_beta     89.944
_cell_angle_gamma    120.104

_space_group_name_H-M_alt    "P 1"
_space_group_IT_number       1

loop_
  _space_group_symop_operation_xyz
  'x, y, z'

loop_
  _atom_site_type_symbol
  _atom_site_label
  _atom_site_symmetry_multiplicity
  _atom_site_fract_x
  _atom_site_fract_y
  _atom_site_fract_z
  _atom_site_occupancy
  Fe  Fe1       1.0  0.41141  0.09814  0.28122  1.0000
  S   S1        1.0  0.36677  0.11071  0.27463  1.0000
  S   S2        1.0  0.45543  0.10882  0.23852  1.0000
  Fe  Fe2       1.0  0.38993  0.07358  0.36333  1.0000
  S   S3        1.0  0.34487  0.08563  0.36166  1.0000
  S   S4        1.0  0.39717  0.04150  0.40972  1.0000
  Fe  Fe3       1.0  0.33227  0.05962  0.30630  1.0000
  S   S5        1.0  0.27713  0.01210  0.29498  1.0000
  Fe  Fe4       1.0  0.38356  0.13578  0.33066  1.0000
  S   S6        1.0  0.38559  0.18839  0.34326  1.0000
  S   S7        1.0  0.37560  0.04506  0.30889  1.0000
  S   S8        1.0  0.43002  0.12597  0.33619  1.0000
  H   H1        1.0  0.27249  0.27886  0.02198  1.0000
  H   H2        1.0  0.08546  0.02070  0.06170  1.0000
  Fe  Fe5       1.0  0.00638  0.14670  0.03440  1.0000
  S   S9        1.0  0.04713  0.20466  0.04452  1.0000
  H   H3        1.0  0.15297  0.26557  0.99500  1.0000
  C   C1        1.0  0.07498  0.31128  0.06381  1.0000
  H   H4        1.0  0.02347  0.05482  0.26496  1.0000
  S   S10       1.0  0.04763  0.13346  0.01325  1.0000
  H   H5        1.0  0.45300  0.06524  0.35112  1.0000
  C   C2        1.0  0.17714  0.00187  0.42856  1.0000
  H   H6        1.0  0.33160  0.07689  0.45098  1.0000
  H   H7        1.0  0.99069  0.08007  0.29978  1.0000
  H   H8        1.0  0.29451  0.11634  0.38965  1.0000
  C   C3        1.0  0.42577  0.01497  0.16565  1.0000
  C   C4        1.0  0.48068  0.04233  0.12412  1.0000
  H   H9        1.0  0.01937  0.08811  0.33808  1.0000
  H   H10       1.0  0.01451  0.15720  0.12968  1.0000
  C   C5        1.0  0.48320  0.06212  0.46017  1.0000
  H   H11       1.0  0.40464  0.08770  0.11301  1.0000
  H   H12       1.0  0.01224  0.26817  0.16041  1.0000
  H   H13       1.0  0.45285  0.29451  0.16678  1.0000
  H   H14       1.0  0.00219  0.27433  0.05640  1.0000
  C   C6        1.0  0.45718  0.11362  0.18972  1.0000
  C   C7        1.0  0.46751  0.26979  0.21159  1.0000
  H   H15       1.0  0.99091  0.02245  0.02811  1.0000
  H   H16       1.0  0.18398  0.01169  0.45714  1.0000
  C   C8        1.0  0.42892  0.10034  0.12936  1.0000
  C   C9        1.0  0.42614  0.09894  0.16803  1.0000
  H   H17       1.0  0.41142  0.02433  0.14741  1.0000
  H   H18       1.0  0.45275  0.18364  0.21590  1.0000
  H   H19       1.0  0.21069  0.07691  0.28026  1.0000
  H   H20       1.0  0.39993  0.08528  0.18098  1.0000
  C   C10       1.0  0.42522  0.22935  0.33322  1.0000
  C   C11       1.0  0.42438  0.26159  0.33380  1.0000
  H   H21       1.0  0.41565  0.17918  0.13934  1.0000
  C   C12       1.0  0.21846  0.07156  0.38829  1.0000
  H   H22       1.0  0.06195  0.15509  0.09829  1.0000
  H   H23       1.0  0.10852  0.17329  0.11025  1.0000
  H   H24       1.0  0.21054  0.07202  0.45877  1.0000
  H   H25       1.0  0.39969  0.26109  0.34099  1.0000
  H   H26       1.0  0.23085  0.11760  0.35238  1.0000
  H   H27       1.0  0.21356  0.05488  0.36326  1.0000
  C   C13       1.0  0.23865  0.01671  0.29632  1.0000
  C   C14       1.0  0.44402  0.29574  0.04795  1.0000
  C   C15       1.0  0.07436  0.11721  0.12484  1.0000
  H   H28       1.0  0.17544  0.10632  0.39012  1.0000
  N   N1        1.0  0.47986  0.03429  0.29768  1.0000
  C   C16       1.0  0.24065  0.04944  0.28808  1.0000
  H   H29       1.0  0.98706  0.31370  0.23600  1.0000
  H   H30       1.0  0.01552  0.03900  0.09631  1.0000
  C   C17       1.0  0.38394  0.03826  0.45660  1.0000
  H   H31       1.0  0.09637  0.11986  0.14271  1.0000
  C   C18       1.0  0.24265  0.11151  0.37649  1.0000
  H   H32       1.0  0.07669  0.10752  0.09736  1.0000
  H   H33       1.0  0.44467  0.17155  0.08671  1.0000
  H   H34       1.0  0.20177  0.00575  0.41449  1.0000
  H   H35       1.0  0.05393  0.06600  0.30342  1.0000
  H   H36       1.0  0.02128  0.29208  0.29055  1.0000
  S   S11       1.0  0.46433  0.11469  0.06279  1.0000
  C   C19       1.0  0.46267  0.11727  0.11168  1.0000
  C   C20       1.0  0.30444  0.06768  0.46270  1.0000
  H   H37       1.0  0.45206  0.21656  0.08446  1.0000
  H   H38       1.0  0.00853  0.00328  0.12531  1.0000
  C   C21       1.0  0.17557  0.02140  0.29516  1.0000
  N   N2        1.0  0.02870  0.05469  0.15294  1.0000
  C   C22       1.0  0.05602  0.05855  0.18131  1.0000
  C   C23       1.0  0.03662  0.09174  0.14124  1.0000
  H   H39       1.0  0.04009  0.05412  0.47112  1.0000
  H   H40       1.0  0.45822  0.20560  0.32330  1.0000
  C   C24       1.0  0.40871  0.27527  0.06920  1.0000
  C   C25       1.0  0.18110  0.24305  0.02321  1.0000
  C   C26       1.0  0.44020  0.01971  0.29146  1.0000
  C   C27       1.0  0.02733  0.03247  0.12018  1.0000
  H   H41       1.0  0.14226  0.03952  0.47365  1.0000
  C   C28       1.0  0.08046  0.15513  0.11952  1.0000
  H   H42       1.0  0.05824  0.07775  0.20309  1.0000
  H   H43       1.0  0.08334  0.07048  0.16933  1.0000
  H   H44       1.0  0.01743  0.08990  0.11974  1.0000
  H   H45       1.0  0.03263  0.10581  0.16494  1.0000
  S   S12       1.0  0.13667  0.02520  0.29384  1.0000
  H   H46       1.0  0.29738  0.08892  0.45785  1.0000
  H   H47       1.0  0.12239  0.12505  0.01671  1.0000
  H   H48       1.0  0.02560  0.01413  0.22024  1.0000
  C   C29       1.0  0.24418  0.30081  0.99306  1.0000
  H   H49       1.0  0.08605  0.06317  0.10743  1.0000
  C   C30       1.0  0.99215  0.03644  0.17130  1.0000
  C   C31       1.0  0.45723  0.23023  0.32378  1.0000
  C   C32       1.0  0.05992  0.01969  0.06932  1.0000
  C   C33       1.0  0.08091  0.02835  0.22252  1.0000
  H   H50       1.0  0.21688  0.22783  0.04845  1.0000
  H   H51       1.0  0.45503  0.17841  0.15473  1.0000
  C   C34       1.0  0.06328  0.03527  0.10773  1.0000
  C   C35       1.0  0.03553  0.07290  0.28888  1.0000
  C   C36       1.0  0.98889  0.14189  0.14328  1.0000
  C   C37       1.0  0.24649  0.27590  0.01588  1.0000
  H   H52       1.0  0.46881  0.03926  0.44085  1.0000
  C   C38       1.0  0.45929  0.23194  0.15797  1.0000
  H   H53       1.0  0.23509  0.06489  0.40649  1.0000
  H   H54       1.0  0.04143  0.00171  0.18042  1.0000
  C   C39       1.0  0.41117  0.21062  0.20383  1.0000
  C   C40       1.0  0.45839  0.19831  0.10023  1.0000
  C   C41       1.0  0.17890  0.26822  0.00078  1.0000
  H   H55       1.0  0.01089  0.16011  0.19741  1.0000
  C   C42       1.0  0.36714  0.00446  0.47412  1.0000
  C   C43       1.0  0.39788  0.21047  0.24336  1.0000
  C   C44       1.0  0.46789  0.21336  0.22002  1.0000
  C   C45       1.0  0.44992  0.29131  0.19694  1.0000
  C   C46       1.0  0.45520  0.29446  0.32468  1.0000
  C   C47       1.0  0.04837  0.02329  0.20068  1.0000
  C   C48       1.0  0.35680  0.19129  0.24493  1.0000
  N   N3        1.0  0.45142  0.23142  0.19831  1.0000
  H   H56       1.0  0.40022  0.18178  0.19669  1.0000
  H   H57       1.0  0.39763  0.22034  0.18480  1.0000
  C   C49       1.0  0.00653  0.29253  0.31439  1.0000
  H   H58       1.0  0.38767  0.25472  0.05103  1.0000
  H   H59       1.0  0.28492  0.04266  0.44822  1.0000
  H   H60       1.0  0.46728  0.27076  0.24204  1.0000
  C   C50       1.0  0.47655  0.01287  0.06559  1.0000
  H   H61       1.0  0.07431  0.00262  0.23609  1.0000
  H   H62       1.0  0.42089  0.27791  0.20387  1.0000
  H   H63       1.0  0.99902  0.02570  0.34818  1.0000
  H   H64       1.0  0.40669  0.19592  0.26188  1.0000
  H   H65       1.0  0.40823  0.23804  0.25414  1.0000
  H   H66       1.0  0.44664  0.24489  0.14236  1.0000
  C   C51       1.0  0.04948  0.03718  0.48283  1.0000
  H   H67       1.0  0.99165  0.20903  0.20763  1.0000
  C   C52       1.0  0.01049  0.26924  0.08350  1.0000
  C   C53       1.0  0.21499  0.24710  0.03091  1.0000
  C   C54       1.0  0.39461  0.06903  0.47801  1.0000
  C   C55       1.0  0.20911  0.05170  0.28726  1.0000
  H   H68       1.0  0.05771  0.29733  0.11958  1.0000
  H   H69       1.0  0.99063  0.31826  0.06854  1.0000
  H   H70       1.0  0.99844  0.30921  0.13792  1.0000
  H   H71       1.0  0.34654  0.20553  0.22774  1.0000
  H   H72       1.0  0.34486  0.16301  0.23543  1.0000
  H   H73       1.0  0.34803  0.19096  0.27364  1.0000
  H   H74       1.0  0.46537  0.21689  0.24983  1.0000
  H   H75       1.0  0.05442  0.03548  0.04889  1.0000
  H   H76       1.0  0.24583  0.13043  0.39870  1.0000
  C   C56       1.0  0.19177  0.07868  0.44439  1.0000
  S   S13       1.0  0.14201  0.20557  0.04091  1.0000
  N   N4        1.0  0.18313  0.06211  0.40660  1.0000
  C   C57       1.0  0.16055  0.02159  0.40785  1.0000
  C   C58       1.0  0.16454  0.07734  0.38363  1.0000
  H   H77       1.0  0.07070  0.01978  0.12657  1.0000
  C   C59       1.0  0.12273  0.05785  0.38539  1.0000
  C   C60       1.0  0.10832  0.07999  0.36691  1.0000
  H   H78       1.0  0.29651  0.14755  0.35560  1.0000
  H   H79       1.0  0.41199  0.26140  0.09327  1.0000
  H   H80       1.0  0.13385  0.01269  0.42045  1.0000
  H   H81       1.0  0.17048  0.07649  0.35401  1.0000
  H   H82       1.0  0.40824  0.09527  0.46520  1.0000
  H   H83       1.0  0.14353  0.08077  0.46019  1.0000
  H   H84       1.0  0.27899  0.10109  0.34357  1.0000
  H   H85       1.0  0.43604  0.03978  0.27616  1.0000
  H   H86       1.0  0.11112  0.03179  0.37065  1.0000
  H   H87       1.0  0.11214  0.05194  0.41362  1.0000
  H   H88       1.0  0.07845  0.06514  0.36845  1.0000
  H   H89       1.0  0.11853  0.10626  0.38098  1.0000
  H   H90       1.0  0.11644  0.08455  0.33760  1.0000
  C   C61       1.0  0.28037  0.11945  0.36570  1.0000
  H   H91       1.0  0.98854  0.24727  0.22347  1.0000
  H   H92       1.0  0.07646  0.16600  0.14561  1.0000
  C   C62       1.0  0.00602  0.06971  0.31462  1.0000
  H   H93       1.0  0.45181  0.27592  0.03900  1.0000
  H   H94       1.0  0.08825  0.04918  0.24405  1.0000
  H   H95       1.0  0.26636  0.07267  0.28131  1.0000
  H   H96       1.0  0.42565  0.01586  0.31766  1.0000
  H   H97       1.0  0.06602  0.31778  0.03781  1.0000
  H   H98       1.0  0.01596  0.24689  0.07844  1.0000
  H   H99       1.0  0.20665  0.10851  0.44246  1.0000
  H   H100      1.0  0.15458  0.01074  0.37932  1.0000
  C   C63       1.0  0.04657  0.00808  0.46225  1.0000
  H   H101      1.0  0.39946  0.29395  0.07849  1.0000
  H   H102      1.0  0.05156  0.10100  0.27878  1.0000
  H   H103      1.0  0.44054  0.03569  0.18698  1.0000
  Fe  Fe6       1.0  0.08750  0.19238  0.01893  1.0000
  C   C64       1.0  0.45164  0.00767  0.14351  1.0000
  H   H104      1.0  0.07934  0.28820  0.05900  1.0000
  H   H105      1.0  0.10442  0.03621  0.20428  1.0000
  C   C65       1.0  0.99047  0.24492  0.14527  1.0000
  C   C66       1.0  0.48217  0.07454  0.35219  1.0000
  S   S14       1.0  0.36488  0.32352  0.01530  1.0000
  H   H106      1.0  0.43829  0.30737  0.02351  1.0000
  C   C67       1.0  0.44553  0.19456  0.13987  1.0000
  H   H107      1.0  0.00238  0.22781  0.13827  1.0000
  H   H108      1.0  0.44842  0.00292  0.36583  1.0000
  H   H109      1.0  0.46642  0.07468  0.46523  1.0000
  S   S15       1.0  0.02522  0.99834  0.41848  1.0000
  S   S16       1.0  0.04164  0.99371  0.31790  1.0000
  H   H110      1.0  0.99285  0.05127  0.19670  1.0000
  H   H111      1.0  0.46701  0.05615  0.11209  1.0000
  H   H112      1.0  0.45255  0.01642  0.06413  1.0000
  H   H113      1.0  0.47422  0.31290  0.09796  1.0000
  C   C68       1.0  0.15968  0.06900  0.47037  1.0000
  C   C69       1.0  0.98665  0.14370  0.18176  1.0000
  H   H114      1.0  0.45410  0.31900  0.32486  1.0000
  C   C70       1.0  0.04707  0.30247  0.09400  1.0000
  H   H115      1.0  0.99859  0.06524  0.39632  1.0000
  H   H116      1.0  0.99892  0.11008  0.43918  1.0000
  H   H117      1.0  0.46475  0.99781  0.16283  1.0000
  H   H118      1.0  0.99755  0.12296  0.39251  1.0000
  C   C71       1.0  0.11658  0.10937  0.99088  1.0000
  H   H119      1.0  0.03788  0.99117  0.06847  1.0000
  H   H120      1.0  0.08736  0.08923  0.99017  1.0000
  H   H121      1.0  0.13189  0.09484  0.99057  1.0000
  Fe  Fe7       1.0  0.03829  0.14755  0.95626  1.0000
  S   S17       1.0  0.07970  0.20599  0.96183  1.0000
  S   S18       1.0  0.04482  0.11278  0.91205  1.0000
  C   C72       1.0  0.30490  0.23473  0.70572  1.0000
  H   H122      1.0  0.24835  0.21467  0.70398  1.0000
  H   H123      1.0  0.01921  0.99328  0.78386  1.0000
  H   H124      1.0  0.30011  0.22764  0.96697  1.0000
  C   C73       1.0  0.28348  0.23507  0.94980  1.0000
  Fe  Fe8       1.0  0.10316  0.10233  0.70052  1.0000
  S   S19       1.0  0.16273  0.13250  0.71056  1.0000
  S   S20       1.0  0.06471  0.10949  0.73909  1.0000
  Fe  Fe9       1.0  0.11114  0.06938  0.62716  1.0000
  S   S21       1.0  0.17134  0.09805  0.63343  1.0000
  S   S22       1.0  0.08943  0.02650  0.58136  1.0000
  Fe  Fe10      1.0  0.16132  0.08182  0.69228  1.0000
  S   S23       1.0  0.19671  0.06534  0.72263  1.0000
  Fe  Fe11      1.0  0.16768  0.14632  0.65081  1.0000
  S   S24       1.0  0.21323  0.19989  0.63072  1.0000
  S   S25       1.0  0.10115  0.05013  0.68618  1.0000
  S   S26       1.0  0.10793  0.11918  0.64069  1.0000
  H   H125      1.0  0.43606  0.02790  0.51411  1.0000
  C   C74       1.0  0.18560  0.27657  0.64871  1.0000
  C   C75       1.0  0.18407  0.24307  0.64699  1.0000
  C   C76       1.0  0.21341  0.24100  0.63328  1.0000
  C   C77       1.0  0.24421  0.27255  0.62155  1.0000
  H   H126      1.0  0.14981  0.07735  0.52697  1.0000
  H   H127      1.0  0.16273  0.27800  0.65906  1.0000
  H   H128      1.0  0.16013  0.21887  0.65585  1.0000
  H   H129      1.0  0.26693  0.27108  0.61079  1.0000
  C   C78       1.0  0.27124  0.25372  0.74930  1.0000
  N   N5        1.0  0.44000  0.15851  0.86023  1.0000
  C   C79       1.0  0.16687  0.16329  0.95799  1.0000
  H   H130      1.0  0.31889  0.05934  0.57329  1.0000
  C   C80       1.0  0.20241  0.03072  0.70364  1.0000
  C   C81       1.0  0.23233  0.02775  0.71385  1.0000
  H   H131      1.0  0.39856  0.16751  0.83800  1.0000
  S   S27       1.0  0.03130  0.26234  0.97345  1.0000
  C   C82       1.0  0.21032  0.29692  0.98569  1.0000
  C   C83       1.0  0.06517  0.11672  0.78739  1.0000
  C   C84       1.0  0.04314  0.12935  0.80186  1.0000
  C   C85       1.0  0.03930  0.13160  0.84008  1.0000
  C   C86       1.0  0.05636  0.11986  0.86450  1.0000
  C   C87       1.0  0.07918  0.10816  0.85001  1.0000
  C   C88       1.0  0.08451  0.10770  0.81184  1.0000
  C   C89       1.0  0.26782  0.04912  0.52184  1.0000
  H   H132      1.0  0.47542  0.06178  0.66938  1.0000
  H   H133      1.0  0.09191  0.09821  0.86838  1.0000
  H   H134      1.0  0.10178  0.09820  0.80127  1.0000
  H   H135      1.0  0.29319  0.23833  0.92108  1.0000
  H   H136      1.0  0.18207  0.14903  0.96222  1.0000
  S   S28       1.0  0.37204  0.03097  0.58281  1.0000
  H   H137      1.0  0.44747  0.11139  0.90902  1.0000
  H   H138      1.0  0.20478  0.22540  0.71701  1.0000
  H   H139      1.0  0.26525  0.07365  0.52358  1.0000
  C   C90       1.0  0.32526  0.07217  0.64469  1.0000
  H   H140      1.0  0.01030  0.07552  0.52370  1.0000
  H   H141      1.0  0.02817  0.13663  0.78333  1.0000
  H   H142      1.0  0.24483  0.28672  0.70266  1.0000
  H   H143      1.0  0.46395  0.20638  0.98180  1.0000
  H   H144      1.0  0.24654  0.03116  0.50240  1.0000
  C   C91       1.0  0.07503  0.02186  0.53473  1.0000
  H   H145      1.0  0.42001  0.25669  0.87659  1.0000
  H   H146      1.0  0.37205  0.06250  0.77744  1.0000
  C   C92       1.0  0.38988  0.06612  0.51640  1.0000
  C   C93       1.0  0.45866  0.28915  0.94749  1.0000
  H   H147      1.0  0.16795  0.03648  0.57413  1.0000
  H   H148      1.0  0.39965  0.09029  0.53268  1.0000
  N   N6        1.0  0.18053  0.18786  0.92505  1.0000
  H   H149      1.0  0.47976  0.01373  0.81046  1.0000
  C   C94       1.0  0.24576  0.30598  0.62334  1.0000
  C   C95       1.0  0.15841  0.20622  0.92185  1.0000
  C   C96       1.0  0.17576  0.16749  0.88987  1.0000
  C   C97       1.0  0.19303  0.14345  0.88792  1.0000
  H   H150      1.0  0.40600  0.06162  0.80554  1.0000
  H   H151      1.0  0.23170  0.05546  0.58080  1.0000
  H   H152      1.0  0.17248  0.24172  0.78506  1.0000
  C   C98       1.0  0.18184  0.12098  0.85277  1.0000
  C   C99       1.0  0.42952  0.22877  0.97206  1.0000
  H   H153      1.0  0.31259  0.03983  0.50733  1.0000
  C   C100      1.0  0.17704  0.00546  0.67950  1.0000
  H   H154      1.0  0.34745  0.06856  0.63396  1.0000
  H   H155      1.0  0.15629  0.21673  0.94902  1.0000
  H   H156      1.0  0.13021  0.18659  0.91367  1.0000
  H   H157      1.0  0.14672  0.15058  0.88328  1.0000
  H   H158      1.0  0.18724  0.18642  0.86644  1.0000
  H   H159      1.0  0.18478  0.12445  0.91124  1.0000
  H   H160      1.0  0.22277  0.16049  0.88730  1.0000
  C   C101      1.0  0.02250  0.00858  0.87645  1.0000
  H   H161      1.0  0.11921  0.11743  0.93273  1.0000
  C   C102      1.0  0.27907  0.29154  0.81677  1.0000
  H   H162      1.0  0.33271  0.10082  0.64180  1.0000
  C   C103      1.0  0.12639  0.13430  0.95772  1.0000
  H   H163      1.0  0.11956  0.23236  0.88421  1.0000
  H   H164      1.0  0.18955  0.13856  0.82818  1.0000
  H   H165      1.0  0.19548  0.10484  0.85125  1.0000
  H   H166      1.0  0.15229  0.10216  0.85240  1.0000
  H   H167      1.0  0.29852  0.27639  0.75541  1.0000
  H   H168      1.0  0.40910  0.10802  0.96248  1.0000
  C   C104      1.0  0.36129  0.00145  0.51242  1.0000
  H   H169      1.0  0.42350  0.15538  0.91680  1.0000
  C   C105      1.0  0.13842  0.19841  0.74938  1.0000
  H   H170      1.0  0.99451  0.00981  0.63864  1.0000
  H   H171      1.0  0.18905  0.11480  0.50713  1.0000
  H   H172      1.0  0.22329  0.01527  0.60343  1.0000
  H   H173      1.0  0.06547  0.06641  0.53430  1.0000
  H   H174      1.0  0.44872  0.99791  0.75920  1.0000
  H   H175      1.0  0.20379  0.20706  0.76100  1.0000
  H   H176      1.0  0.39056  0.12402  0.79732  1.0000
  H   H177      1.0  0.22507  0.24802  0.81231  1.0000
  H   H178      1.0  0.00119  0.99966  0.96982  1.0000
  H   H179      1.0  0.15680  0.99713  0.60107  1.0000
  H   H180      1.0  0.14578  0.26434  0.91978  1.0000
  H   H181      1.0  0.43403  0.02485  0.62016  1.0000
  C   C106      1.0  0.09007  0.01915  0.78169  1.0000
  H   H182      1.0  0.23631  0.20242  0.98185  1.0000
  C   C107      1.0  0.42754  0.25883  0.96027  1.0000
  H   H183      1.0  0.25196  0.04712  0.73264  1.0000
  H   H184      1.0  0.43612  0.25167  0.83264  1.0000
  H   H185      1.0  0.19441  0.01435  0.52619  1.0000
  C   C108      1.0  0.23706  0.99989  0.69980  1.0000
  S   S29       1.0  0.38591  0.25771  0.96179  1.0000
  C   C109      1.0  0.27644  0.30749  0.85329  1.0000
  C   C110      1.0  0.99756  0.99685  0.91060  1.0000
  S   S30       1.0  0.99257  0.15522  0.97672  1.0000
  H   H186      1.0  0.10956  0.14714  0.95922  1.0000
  C   C111      1.0  0.37364  0.03242  0.53396  1.0000
  H   H187      1.0  0.27587  0.26073  0.68909  1.0000
  N   N7        1.0  0.26213  0.03192  0.55916  1.0000
  H   H188      1.0  0.15735  0.27563  0.87234  1.0000
  C   C112      1.0  0.29018  0.04777  0.62436  1.0000
  H   H189      1.0  0.41261  0.19921  0.89773  1.0000
  H   H190      1.0  0.37921  0.09451  0.83598  1.0000
  H   H191      1.0  0.22600  0.30087  0.73695  1.0000
  H   H192      1.0  0.02158  0.14061  0.85044  1.0000
  H   H193      1.0  0.48023  0.08917  0.63001  1.0000
  C   C113      1.0  0.21647  0.30813  0.63695  1.0000
  H   H194      1.0  0.28337  0.01942  0.62820  1.0000
  H   H195      1.0  0.28732  0.26117  0.95987  1.0000
  C   C114      1.0  0.41921  0.10422  0.90444  1.0000
  C   C115      1.0  0.46257  0.22931  0.97178  1.0000
  C   C116      1.0  0.27291  0.24075  0.71002  1.0000
  C   C117      1.0  0.14709  0.25338  0.89261  1.0000
  H   H196      1.0  0.32610  0.08590  0.51649  1.0000
  H   H197      1.0  0.32170  0.06517  0.67428  1.0000
  H   H198      1.0  0.26908  0.05165  0.63760  1.0000
  H   H199      1.0  0.30289  0.21416  0.72552  1.0000
  C   C118      1.0  0.24388  0.20582  0.95237  1.0000
  C   C119      1.0  0.21953  0.21651  0.93065  1.0000
  H   H200      1.0  0.40789  0.08280  0.88330  1.0000
  H   H201      1.0  0.29762  0.08523  0.58115  1.0000
  H   H202      1.0  0.38782  0.12824  0.88682  1.0000
  H   H203      1.0  0.04006  0.03833  0.87768  1.0000
  C   C120      1.0  0.29340  0.05746  0.58306  1.0000
  C   C121      1.0  0.30480  0.06064  0.50372  1.0000
  H   H204      1.0  0.11449  0.20089  0.75596  1.0000
  H   H205      1.0  0.33065  0.26027  0.71001  1.0000
  H   H206      1.0  0.30490  0.22490  0.67755  1.0000
  H   H207      1.0  0.01240  0.29419  0.86618  1.0000
  H   H208      1.0  0.43453  0.99168  0.69430  1.0000
  C   C122      1.0  0.41668  0.13755  0.89236  1.0000
  H   H209      1.0  0.13648  0.19018  0.72022  1.0000
  H   H210      1.0  0.19917  0.26028  0.90215  1.0000
  H   H211      1.0  0.22122  0.23949  0.94648  1.0000
  N   N8        1.0  0.24271  0.26385  0.75613  1.0000
  H   H212      1.0  0.30089  0.31355  0.80082  1.0000
  H   H213      1.0  0.28829  0.99971  0.56075  1.0000
  C   C123      1.0  0.24234  0.27292  0.79621  1.0000
  C   C124      1.0  0.48444  0.06725  0.64037  1.0000
  C   C125      1.0  0.17227  0.23792  0.89413  1.0000
  H   H214      1.0  0.47097  0.07556  0.81991  1.0000
  H   H215      1.0  0.17400  0.22911  0.86605  1.0000
  C   C126      1.0  0.43769  0.13373  0.82969  1.0000
  C   C127      1.0  0.43024  0.21217  0.87366  1.0000
  H   H216      1.0  0.11625  0.02106  0.78815  1.0000
  H   H217      1.0  0.26715  0.23176  0.76845  1.0000
  C   C128      1.0  0.39925  0.07942  0.78949  1.0000
  H   H218      1.0  0.48573  0.06973  0.75615  1.0000
  H   H219      1.0  0.23265  0.22800  0.90385  1.0000
  H   H220      1.0  0.99986  0.04589  0.84189  1.0000
  H   H221      1.0  0.44990  0.11737  0.83844  1.0000
  C   C129      1.0  0.20668  0.23140  0.74688  1.0000
  C   C130      1.0  0.45632  0.01897  0.51374  1.0000
  C   C131      1.0  0.24777  0.29453  0.73202  1.0000
  H   H222      1.0  0.03446  0.03998  0.94691  1.0000
  H   H223      1.0  0.08386  0.03342  0.83632  1.0000
  C   C132      1.0  0.06391  0.04427  0.51870  1.0000
  C   C133      1.0  0.47445  0.03985  0.57663  1.0000
  C   C134      1.0  0.17283  0.23427  0.75604  1.0000
  H   H224      1.0  0.24146  0.18035  0.94262  1.0000
  H   H225      1.0  0.17151  0.25453  0.73826  1.0000
  C   C135      1.0  0.42739  0.18329  0.84611  1.0000
  C   C136      1.0  0.39945  0.10835  0.81413  1.0000
  H   H226      1.0  0.13251  0.31299  0.55520  1.0000
  C   C137      1.0  0.48495  0.01377  0.88642  1.0000
  H   H227      1.0  0.25675  0.28617  0.87169  1.0000
  C   C138      1.0  0.46298  0.03314  0.61757  1.0000
  H   H228      1.0  0.03945  0.03789  0.80017  1.0000
  H   H229      1.0  0.28759  0.27150  0.82262  1.0000
  H   H230      1.0  0.44206  0.19699  0.82058  1.0000
  C   C139      1.0  0.39827  0.08802  0.93988  1.0000
  H   H231      1.0  0.36928  0.07887  0.93599  1.0000
  C   C140      1.0  0.99128  0.26326  0.98177  1.0000
  H   H232      1.0  0.13777  0.17704  0.76702  1.0000
  H   H233      1.0  0.46532  0.05862  0.56692  1.0000
  H   H234      1.0  0.46675  0.01184  0.62998  1.0000
  H   H235      1.0  0.41895  0.09187  0.76677  1.0000
  H   H236      1.0  0.40093  0.06453  0.94797  1.0000
  C   C141      1.0  0.17310  0.08496  0.50848  1.0000
  H   H237      1.0  0.15373  0.00737  0.67175  1.0000
  H   H238      1.0  0.26022  0.99789  0.70781  1.0000
  H   H239      1.0  0.22971  0.28998  0.79946  1.0000
  C   C142      1.0  0.47860  0.17959  0.87307  1.0000
  H   H240      1.0  0.44615  0.99625  0.49401  1.0000
  H   H241      1.0  0.47419  0.03070  0.87567  1.0000
  H   H242      1.0  0.45819  0.22946  0.88356  1.0000
  C   C143      1.0  0.03146  0.01005  0.80878  1.0000
  H   H243      1.0  0.45408  0.14935  0.80580  1.0000
  C   C144      1.0  0.41834  0.23678  0.85608  1.0000
  H   H244      1.0  0.39002  0.22096  0.84651  1.0000
  C   C145      1.0  0.07264  0.99314  0.51384  1.0000
  H   H245      1.0  0.13681  0.99238  0.55678  1.0000
  C   C146      1.0  0.22827  0.02825  0.57605  1.0000
  H   H246      1.0  0.45730  0.31216  0.93771  1.0000
  N   N9        1.0  0.46030  0.00727  0.55166  1.0000
  Fe  Fe12      1.0  0.38627  0.31063  0.96460  1.0000
  H   H247      1.0  0.04078  0.99770  0.88066  1.0000
  H   H248      1.0  0.99679  0.04150  0.58226  1.0000
  H   H249      1.0  0.19000  0.07472  0.52041  1.0000
  H   H250      1.0  0.09561  0.04508  0.76939  1.0000
  H   H251      1.0  0.03891  0.00015  0.94788  1.0000
  H   H252      1.0  0.17173  0.17966  0.98327  1.0000
  C   C147      1.0  0.19261  0.00546  0.55494  1.0000
  H   H253      1.0  0.20840  0.31623  0.96823  1.0000
  S   S31       1.0  0.32296  0.99171  0.67539  1.0000
  H   H254      1.0  0.07575  0.99727  0.76134  1.0000
  C   C148      1.0  0.06767  0.01140  0.81661  1.0000
  H   H255      1.0  0.40554  0.20523  0.98203  1.0000
  H   H256      1.0  0.36638  0.99212  0.96470  1.0000
  C   C149      1.0  0.01957  0.01010  0.94587  1.0000
  C   C150      1.0  0.26074  0.99601  0.55807  1.0000
  H   H257      1.0  0.01331  0.99639  0.58075  1.0000
  H   H258      1.0  0.48084  0.19415  0.89908  1.0000
  C   C151      1.0  0.48313  0.99157  0.82169  1.0000
  C   C152      1.0  0.16185  0.00815  0.57287  1.0000
  N   N10       1.0  0.00408  0.99781  0.83955  1.0000
  Fe  Fe13      1.0  0.03524  0.21283  0.98643  1.0000
  H   H259      1.0  0.01871  0.32120  0.98345  1.0000
  H   H260      1.0  0.47311  0.99452  0.97160  1.0000
  H   H261      1.0  0.30310  0.32078  0.86702  1.0000
  C   C153      1.0  0.99296  0.29662  0.98538  1.0000
  H   H262      1.0  0.98640  0.02477  0.77486  1.0000
  Fe  Fe14      1.0  0.09458  0.49940  0.30992  1.0000
  Fe  Fe15      1.0  0.04978  0.41861  0.32167  1.0000
  C   C154      1.0  0.08858  0.57528  0.48330  1.0000
  C   C155      1.0  0.01654  0.36477  0.20926  1.0000
  Fe  Fe16      1.0  0.01439  0.45925  0.29282  1.0000
  H   H263      1.0  0.11922  0.63290  0.30978  1.0000
  Fe  Fe17      1.0  0.04273  0.47124  0.37372  1.0000
  S   S32       1.0  0.03348  0.47584  0.43512  1.0000
  S   S33       1.0  0.06029  0.45362  0.27226  1.0000
  S   S34       1.0  0.08922  0.46399  0.35743  1.0000
  H   H264      1.0  0.08849  0.56497  0.16376  1.0000
  H   H265      1.0  0.34252  0.32952  0.29500  1.0000
  H   H266      1.0  0.46436  0.34492  0.07903  1.0000
  C   C156      1.0  0.05619  0.51157  0.46733  1.0000
  S   S35       1.0  0.45605  0.40939  0.05478  1.0000
  C   C157      1.0  0.45546  0.41927  0.18118  1.0000
  H   H267      1.0  0.03274  0.57267  0.40275  1.0000
  Fe  Fe18      1.0  0.38276  0.63733  0.31467  1.0000
  S   S36       1.0  0.45561  0.42744  0.22919  1.0000
  C   C158      1.0  0.45429  0.41124  0.10359  1.0000
  H   H268      1.0  0.42386  0.48443  0.16205  1.0000
  H   H269      1.0  0.30793  0.47389  0.31680  1.0000
  H   H270      1.0  0.03352  0.37936  0.23322  1.0000
  C   C159      1.0  0.42319  0.40608  0.16123  1.0000
  H   H271      1.0  0.43429  0.46659  0.07611  1.0000
  H   H272      1.0  0.44299  0.52139  0.10610  1.0000
  H   H273      1.0  0.08584  0.56061  0.23128  1.0000
  H   H274      1.0  0.20080  0.47010  0.28307  1.0000
  H   H275      1.0  0.14991  0.48156  0.28983  1.0000
  Fe  Fe19      1.0  0.41134  0.60394  0.26007  1.0000
  S   S37       1.0  0.36480  0.61414  0.25836  1.0000
  S   S38       1.0  0.45619  0.62441  0.21673  1.0000
  Fe  Fe20      1.0  0.39381  0.57573  0.34108  1.0000
  S   S39       1.0  0.34736  0.58548  0.34477  1.0000
  S   S40       1.0  0.41267  0.55130  0.38560  1.0000
  Fe  Fe21      1.0  0.33372  0.56162  0.28843  1.0000
  S   S41       1.0  0.27702  0.51696  0.27765  1.0000
  C   C160      1.0  0.00997  0.57701  0.40930  1.0000
  S   S42       1.0  0.37873  0.54906  0.28564  1.0000
  S   S43       1.0  0.43083  0.62983  0.31553  1.0000
  S   S44       1.0  0.04944  0.50863  0.32723  1.0000
  S   S45       1.0  0.14802  0.54789  0.29561  1.0000
  H   H276      1.0  0.43600  0.42338  0.43532  1.0000
  Fe  Fe22      1.0  0.41342  0.37901  0.01017  1.0000
  H   H277      1.0  0.47072  0.48540  0.13524  1.0000
  H   H278      1.0  0.03971  0.61567  0.45269  1.0000
  C   C161      1.0  0.40322  0.50714  0.20039  1.0000
  H   H279      1.0  0.47529  0.55636  0.20099  1.0000
  C   C162      1.0  0.30564  0.63085  0.39127  1.0000
  C   C163      1.0  0.45583  0.62010  0.16822  1.0000
  H   H280      1.0  0.17988  0.44560  0.40226  1.0000
  N   N11       1.0  0.01111  0.59756  0.34210  1.0000
  H   H281      1.0  0.47842  0.56640  0.47253  1.0000
  C   C164      1.0  0.42867  0.58870  0.11118  1.0000
  C   C165      1.0  0.42583  0.59413  0.14896  1.0000
  H   H282      1.0  0.20800  0.59591  0.45642  1.0000
  C   C166      1.0  0.42245  0.40151  0.12278  1.0000
  H   H283      1.0  0.14487  0.58074  0.42533  1.0000
  H   H284      1.0  0.40096  0.57718  0.16345  1.0000
  C   C167      1.0  0.24166  0.52618  0.28337  1.0000
  C   C168      1.0  0.20608  0.49747  0.28491  1.0000
  C   C169      1.0  0.17724  0.50394  0.28864  1.0000
  C   C170      1.0  0.18379  0.53924  0.29023  1.0000
  C   C171      1.0  0.21937  0.56801  0.28887  1.0000
  C   C172      1.0  0.24830  0.56151  0.28580  1.0000
  H   H285      1.0  0.22461  0.59537  0.29026  1.0000
  H   H286      1.0  0.27568  0.58379  0.28461  1.0000
  C   C173      1.0  0.39707  0.52732  0.42785  1.0000
  H   H287      1.0  0.01455  0.56956  0.46740  1.0000
  C   C174      1.0  0.41417  0.50875  0.43987  1.0000
  H   H288      1.0  0.03081  0.63129  0.39052  1.0000
  H   H289      1.0  0.43505  0.50877  0.42323  1.0000
  H   H290      1.0  0.07499  0.55428  0.42804  1.0000
  H   H291      1.0  0.10879  0.62207  0.26212  1.0000
  H   H292      1.0  0.14238  0.53643  0.45577  1.0000
  H   H293      1.0  0.39763  0.38003  0.44590  1.0000
  Fe  Fe23      1.0  0.99960  0.64123  0.03401  1.0000
  H   H294      1.0  0.25289  0.56547  0.40814  1.0000
  H   H295      1.0  0.02696  0.54244  0.01480  1.0000
  H   H296      1.0  0.02475  0.57231  0.06956  1.0000
  H   H297      1.0  0.40578  0.56749  0.09688  1.0000
  C   C175      1.0  0.45508  0.49326  0.06548  1.0000
  S   S46       1.0  0.04680  0.36580  0.30871  1.0000
  H   H298      1.0  0.10139  0.60309  0.47469  1.0000
  H   H299      1.0  0.01726  0.50636  0.11207  1.0000
  H   H300      1.0  0.39742  0.39147  0.10792  1.0000
  N   N12       1.0  0.39376  0.43677  0.33598  1.0000
  C   C176      1.0  0.37161  0.40117  0.31664  1.0000
  C   C177      1.0  0.36877  0.44908  0.35032  1.0000
  C   C178      1.0  0.42060  0.46340  0.30895  1.0000
  C   C179      1.0  0.41428  0.43340  0.36779  1.0000
  C   C180      1.0  0.39103  0.40600  0.39790  1.0000
  C   C181      1.0  0.39125  0.37999  0.30826  1.0000
  C   C182      1.0  0.44061  0.50345  0.32112  1.0000
  C   C183      1.0  0.34633  0.45520  0.32095  1.0000
  C   C184      1.0  0.32371  0.46967  0.33834  1.0000
  H   H301      1.0  0.22433  0.56572  0.46088  1.0000
  H   H302      1.0  0.14334  0.59903  0.34446  1.0000
  S   S47       1.0  0.46450  0.60039  0.04516  1.0000
  H   H303      1.0  0.36159  0.40533  0.28999  1.0000
  H   H304      1.0  0.34681  0.38308  0.33244  1.0000
  H   H305      1.0  0.34887  0.42886  0.36964  1.0000
  H   H306      1.0  0.38386  0.47399  0.36693  1.0000
  H   H307      1.0  0.40753  0.46193  0.28216  1.0000
  H   H308      1.0  0.44163  0.45632  0.30245  1.0000
  H   H309      1.0  0.43495  0.42692  0.35795  1.0000
  H   H310      1.0  0.43005  0.45959  0.38212  1.0000
  H   H311      1.0  0.37001  0.38007  0.38634  1.0000
  H   H312      1.0  0.37757  0.41732  0.41488  1.0000
  H   H313      1.0  0.41743  0.39749  0.29492  1.0000
  H   H314      1.0  0.39623  0.36921  0.33385  1.0000
  H   H315      1.0  0.01598  0.44081  0.13380  1.0000
  H   H316      1.0  0.42152  0.51356  0.32377  1.0000
  H   H317      1.0  0.36378  0.47458  0.29978  1.0000
  H   H318      1.0  0.32749  0.42952  0.30711  1.0000
  H   H319      1.0  0.30462  0.45029  0.35873  1.0000
  H   H320      1.0  0.34122  0.49584  0.35209  1.0000
  S   S48       1.0  0.48172  0.39684  0.32011  1.0000
  H   H321      1.0  0.14376  0.45391  0.41346  1.0000
  H   H322      1.0  0.99965  0.35142  0.37146  1.0000
  H   H323      1.0  0.38221  0.62641  0.01668  1.0000
  H   H324      1.0  0.38378  0.33330  0.27803  1.0000
  H   H325      1.0  0.06834  0.62230  0.35333  1.0000
  H   H326      1.0  0.45848  0.59985  0.43995  1.0000
  H   H327      1.0  0.39856  0.39950  0.17556  1.0000
  H   H328      1.0  0.41853  0.47598  0.48152  1.0000
  C   C185      1.0  0.26698  0.62061  0.40074  1.0000
  H   H329      1.0  0.42676  0.38459  0.40809  1.0000
  H   H330      1.0  0.35706  0.54173  0.44161  1.0000
  H   H331      1.0  0.20419  0.61629  0.39871  1.0000
  C   C186      1.0  0.06332  0.61403  0.29524  1.0000
  H   H332      1.0  0.99904  0.54290  0.28513  1.0000
  C   C187      1.0  0.46780  0.32903  0.21370  1.0000
  C   C188      1.0  0.37035  0.52727  0.45034  1.0000
  H   H333      1.0  0.44153  0.48957  0.20768  1.0000
  H   H334      1.0  0.09431  0.58632  0.29517  1.0000
  H   H335      1.0  0.10945  0.59113  0.37796  1.0000
  H   H336      1.0  0.04451  0.32668  0.09802  1.0000
  C   C189      1.0  0.38995  0.63038  0.04607  1.0000
  C   C190      1.0  0.00853  0.60423  0.38242  1.0000
  H   H337      1.0  0.10333  0.53372  0.21250  1.0000
  H   H338      1.0  0.48236  0.55580  0.30218  1.0000
  H   H339      1.0  0.44326  0.50083  0.04251  1.0000
  H   H340      1.0  0.04440  0.59664  0.27382  1.0000
  H   H341      1.0  0.04750  0.57649  0.34066  1.0000
  C   C191      1.0  0.20209  0.56842  0.44850  1.0000
  C   C192      1.0  0.04776  0.60199  0.33449  1.0000
  H   H342      1.0  0.45541  0.34431  0.20239  1.0000
  H   H343      1.0  0.08614  0.61498  0.16048  1.0000
  H   H344      1.0  0.01178  0.38364  0.19267  1.0000
  H   H345      1.0  0.10105  0.33493  0.07196  1.0000
  H   H346      1.0  0.01957  0.44921  0.20127  1.0000
  H   H347      1.0  0.00896  0.65330  0.12735  1.0000
  H   H348      1.0  0.15435  0.62892  0.38327  1.0000
  C   C193      1.0  0.46107  0.60999  0.09199  1.0000
  H   H349      1.0  0.06314  0.51681  0.15983  1.0000
  N   N13       1.0  0.20231  0.56542  0.40718  1.0000
  C   C194      1.0  0.18039  0.52715  0.39372  1.0000
  C   C195      1.0  0.18863  0.58793  0.38921  1.0000
  C   C196      1.0  0.24067  0.57987  0.39430  1.0000
  H   H350      1.0  0.31484  0.61570  0.40847  1.0000
  H   H351      1.0  0.30763  0.62529  0.36188  1.0000
  C   C197      1.0  0.19567  0.50215  0.40308  1.0000
  H   H352      1.0  0.38112  0.48078  0.21023  1.0000
  C   C198      1.0  0.14883  0.57676  0.39609  1.0000
  C   C199      1.0  0.13846  0.60048  0.37409  1.0000
  C   C200      1.0  0.46710  0.53982  0.17557  1.0000
  C   C201      1.0  0.16794  0.46269  0.39596  1.0000
  H   H353      1.0  0.99110  0.59348  0.45701  1.0000
  H   H354      1.0  0.17776  0.52679  0.36340  1.0000
  H   H355      1.0  0.15231  0.51418  0.40381  1.0000
  C   C202      1.0  0.16733  0.54061  0.46901  1.0000
  H   H356      1.0  0.19281  0.58859  0.35898  1.0000
  H   H357      1.0  0.24118  0.57466  0.36441  1.0000
  H   H358      1.0  0.36537  0.35788  0.25578  1.0000
  H   H359      1.0  0.05750  0.51230  0.22869  1.0000
  C   C203      1.0  0.36918  0.34821  0.28272  1.0000
  H   H360      1.0  0.20432  0.50517  0.43212  1.0000
  C   C204      1.0  0.36144  0.50901  0.48471  1.0000
  H   H361      1.0  0.21934  0.50888  0.38541  1.0000
  H   H362      1.0  0.41224  0.52658  0.22348  1.0000
  H   H363      1.0  0.26627  0.62802  0.42973  1.0000
  C   C205      1.0  0.41432  0.39801  0.42334  1.0000
  H   H364      1.0  0.13023  0.54846  0.38799  1.0000
  H   H365      1.0  0.26010  0.63711  0.38275  1.0000
  H   H366      1.0  0.99439  0.36200  0.11503  1.0000
  C   C206      1.0  0.46896  0.52732  0.29298  1.0000
  H   H367      1.0  0.06945  0.64197  0.28988  1.0000
  C   C207      1.0  0.43424  0.50279  0.18595  1.0000
  H   H368      1.0  0.45619  0.52546  0.26608  1.0000
  C   C208      1.0  0.40489  0.49018  0.47328  1.0000
  H   H369      1.0  0.36533  0.61467  0.06289  1.0000
  H   H370      1.0  0.15973  0.45865  0.36666  1.0000
  S   S49       1.0  0.03678  0.62592  0.00671  1.0000
  H   H371      1.0  0.06331  0.54859  0.04364  1.0000
  C   C209      1.0  0.01641  0.54352  0.07260  1.0000
  C   C210      1.0  0.46734  0.52158  0.09566  1.0000
  C   C211      1.0  0.07380  0.54768  0.45670  1.0000
  H   H372      1.0  0.45767  0.55376  0.15695  1.0000
  N   N14       1.0  0.01734  0.54909  0.14344  1.0000
  C   C212      1.0  0.02826  0.53598  0.11011  1.0000
  C   C213      1.0  0.03055  0.54010  0.17816  1.0000
  C   C214      1.0  0.00438  0.62367  0.32077  1.0000
  C   C215      1.0  0.03029  0.58884  0.14154  1.0000
  C   C216      1.0  0.07115  0.61416  0.13544  1.0000
  H   H373      1.0  0.45448  0.50723  0.34772  1.0000
  H   H374      1.0  0.47824  0.49121  0.05494  1.0000
  C   C217      1.0  0.06669  0.54014  0.17633  1.0000
  C   C218      1.0  0.07898  0.53645  0.21457  1.0000
  C   C219      1.0  0.09851  0.61372  0.29045  1.0000
  C   C220      1.0  0.03352  0.53404  0.04100  1.0000
  S   S50       1.0  0.00261  0.42260  0.34132  1.0000
  H   H375      1.0  0.00806  0.62172  0.29099  1.0000
  H   H376      1.0  0.05784  0.54779  0.10873  1.0000
  H   H377      1.0  0.03236  0.55824  0.20092  1.0000
  H   H378      1.0  0.01069  0.51250  0.18762  1.0000
  H   H379      1.0  0.02312  0.50457  0.04030  1.0000
  C   C221      1.0  0.99255  0.43695  0.14879  1.0000
  H   H380      1.0  0.01554  0.59441  0.11985  1.0000
  H   H381      1.0  0.02354  0.59808  0.16725  1.0000
  H   H382      1.0  0.08138  0.60576  0.11178  1.0000
  H   H383      1.0  0.40864  0.62008  0.05077  1.0000
  C   C222      1.0  0.01409  0.58988  0.44897  1.0000
  H   H384      1.0  0.39249  0.51683  0.17824  1.0000
  H   H385      1.0  0.06620  0.65354  0.10205  1.0000
  H   H386      1.0  0.16576  0.51403  0.46985  1.0000
  C   C223      1.0  0.01341  0.32562  0.32902  1.0000
  C   C224      1.0  0.47941  0.62633  0.45081  1.0000
  H   H387      1.0  0.46567  0.63229  0.47332  1.0000
  H   H388      1.0  0.43252  0.63106  0.40180  1.0000
  C   C225      1.0  0.99437  0.32605  0.35991  1.0000
  H   H389      1.0  0.46418  0.32741  0.24394  1.0000
  C   C226      1.0  0.99470  0.44184  0.18716  1.0000
  H   H390      1.0  0.03151  0.35520  0.19223  1.0000
  C   C227      1.0  0.07969  0.65261  0.12767  1.0000
  C   C228      1.0  0.47381  0.32575  0.07182  1.0000
  H   H391      1.0  0.48524  0.54810  0.08280  1.0000
  C   C229      1.0  0.45488  0.65756  0.41102  1.0000
  H   H392      1.0  0.98675  0.52714  0.06942  1.0000
  H   H393      1.0  0.00251  0.52310  0.90539  1.0000
  C   C230      1.0  0.04894  0.64869  0.80049  1.0000
  C   C231      1.0  0.24392  0.52298  0.53973  1.0000
  Fe  Fe24      1.0  0.40258  0.38036  0.92515  1.0000
  S   S51       1.0  0.42611  0.41299  0.87255  1.0000
  C   C232      1.0  0.42493  0.43211  0.65114  1.0000
  Fe  Fe25      1.0  0.33637  0.45668  0.59077  1.0000
  S   S52       1.0  0.27946  0.44556  0.59354  1.0000
  S   S53       1.0  0.37073  0.46698  0.53910  1.0000
  Fe  Fe26      1.0  0.33993  0.44888  0.67561  1.0000
  S   S54       1.0  0.28406  0.43981  0.68387  1.0000
  S   S55       1.0  0.37908  0.45047  0.71951  1.0000
  Fe  Fe27      1.0  0.26988  0.40282  0.63510  1.0000
  S   S56       1.0  0.21739  0.34964  0.63944  1.0000
  Fe  Fe28      1.0  0.29844  0.48322  0.64178  1.0000
  S   S57       1.0  0.32514  0.41023  0.62832  1.0000
  H   H394      1.0  0.17996  0.48766  0.71671  1.0000
  H   H395      1.0  0.23596  0.48860  0.69681  1.0000
  C   C233      1.0  0.40905  0.41915  0.83012  1.0000
  C   C234      1.0  0.37261  0.40797  0.82324  1.0000
  C   C235      1.0  0.36221  0.41665  0.78937  1.0000
  C   C236      1.0  0.38829  0.43685  0.76256  1.0000
  C   C237      1.0  0.42425  0.44736  0.76972  1.0000
  C   C238      1.0  0.43442  0.43837  0.80277  1.0000
  H   H396      1.0  0.35267  0.39330  0.84413  1.0000
  H   H397      1.0  0.33432  0.40843  0.78437  1.0000
  H   H398      1.0  0.46252  0.44725  0.80755  1.0000
  H   H399      1.0  0.06677  0.52442  0.56043  1.0000
  H   H400      1.0  0.43600  0.44547  0.67791  1.0000
  H   H401      1.0  0.98831  0.60992  0.74860  1.0000
  S   S58       1.0  0.02606  0.60923  0.90544  1.0000
  H   H402      1.0  0.12629  0.46450  0.61175  1.0000
  S   S59       1.0  0.28830  0.53027  0.63968  1.0000
  S   S60       1.0  0.35604  0.49602  0.63746  1.0000
  Fe  Fe29      1.0  0.09367  0.61060  0.69611  1.0000
  S   S61       1.0  0.14437  0.61472  0.71722  1.0000
  H   H403      1.0  0.08261  0.60839  0.96477  1.0000
  Fe  Fe30      1.0  0.11463  0.60490  0.61515  1.0000
  S   S62       1.0  0.16821  0.61189  0.63232  1.0000
  S   S63       1.0  0.10316  0.60330  0.55335  1.0000
  Fe  Fe31      1.0  0.13593  0.57223  0.67624  1.0000
  S   S64       1.0  0.14554  0.52670  0.69246  1.0000
  C   C239      1.0  0.06926  0.53109  0.53161  1.0000
  S   S65       1.0  0.08177  0.56376  0.65831  1.0000
  H   H404      1.0  0.38270  0.34537  0.68839  1.0000
  C   C240      1.0  0.24862  0.52863  0.65519  1.0000
  C   C241      1.0  0.23813  0.55142  0.63874  1.0000
  C   C242      1.0  0.20614  0.55028  0.64933  1.0000
  C   C243      1.0  0.18515  0.52755  0.67764  1.0000
  C   C244      1.0  0.19597  0.50520  0.69462  1.0000
  C   C245      1.0  0.22760  0.50565  0.68338  1.0000
  H   H405      1.0  0.25439  0.56941  0.61705  1.0000
  H   H406      1.0  0.19764  0.56682  0.63538  1.0000
  C   C246      1.0  0.05617  0.62403  0.78233  1.0000
  C   C247      1.0  0.05671  0.59687  0.80298  1.0000
  C   C248      1.0  0.04863  0.59357  0.84081  1.0000
  C   C249      1.0  0.04072  0.61779  0.85884  1.0000
  H   H407      1.0  0.20020  0.40950  0.57128  1.0000
  C   C250      1.0  0.14407  0.36668  0.57015  1.0000
  H   H408      1.0  0.06169  0.57735  0.78947  1.0000
  C   C251      1.0  0.13563  0.43406  0.56840  1.0000
  H   H409      1.0  0.44836  0.58666  0.51417  1.0000
  C   C252      1.0  0.45040  0.48932  0.61900  1.0000
  H   H410      1.0  0.44458  0.46299  0.74953  1.0000
  H   H411      1.0  0.39712  0.38712  0.71227  1.0000
  C   C253      1.0  0.08631  0.56726  0.52098  1.0000
  C   C254      1.0  0.16699  0.55224  0.50853  1.0000
  H   H412      1.0  0.45994  0.56240  0.95538  1.0000
  H   H413      1.0  0.09694  0.46267  0.53436  1.0000
  S   S66       1.0  0.35493  0.32472  0.92532  1.0000
  H   H414      1.0  0.44332  0.54825  0.87281  1.0000
  H   H415      1.0  0.14225  0.53160  0.52259  1.0000
  C   C255      1.0  0.46793  0.54956  0.64872  1.0000
  H   H416      1.0  0.21642  0.44410  0.64533  1.0000
  H   H417      1.0  0.15179  0.49159  0.57341  1.0000
  C   C256      1.0  0.43412  0.43475  0.58439  1.0000
  H   H418      1.0  0.14020  0.35921  0.59955  1.0000
  H   H419      1.0  0.43384  0.40886  0.58295  1.0000
  Fe  Fe32      1.0  0.33814  0.34292  0.97547  1.0000
  H   H420      1.0  0.18871  0.48620  0.52676  1.0000
  C   C257      1.0  0.47444  0.58947  0.52288  1.0000
  H   H421      1.0  0.29406  0.61234  0.68380  1.0000
  H   H422      1.0  0.20177  0.55550  0.75688  1.0000
  H   H423      1.0  0.28917  0.34874  0.68066  1.0000
  H   H424      1.0  0.23791  0.54188  0.55466  1.0000
  H   H425      1.0  0.40526  0.42732  0.58220  1.0000
  H   H426      1.0  0.24500  0.62620  0.65137  1.0000
  H   H427      1.0  0.15281  0.38040  0.68441  1.0000
  H   H428      1.0  0.22942  0.63454  0.71618  1.0000
  H   H429      1.0  0.26944  0.32999  0.61374  1.0000
  H   H430      1.0  0.26293  0.36168  0.70908  1.0000
  S   S67       1.0  0.12169  0.65115  0.65099  1.0000
  H   H431      1.0  0.31273  0.42594  0.94544  1.0000
  S   S68       1.0  0.38513  0.39976  0.97396  1.0000
  H   H432      1.0  0.00791  0.35584  0.90953  1.0000
  H   H433      1.0  0.13679  0.43475  0.53792  1.0000
  C   C258      1.0  0.04177  0.64595  0.83855  1.0000
  H   H434      1.0  0.37675  0.46222  0.96217  1.0000
  C   C259      1.0  0.38812  0.37337  0.68537  1.0000
  C   C260      1.0  0.10669  0.60610  0.95879  1.0000
  H   H435      1.0  0.10433  0.61451  0.90130  1.0000
  H   H436      1.0  0.39863  0.43108  0.64801  1.0000
  H   H437      1.0  0.42333  0.48505  0.61142  1.0000
  C   C261      1.0  0.45627  0.53521  0.88786  1.0000
  H   H438      1.0  0.14670  0.62107  0.91701  1.0000
  H   H439      1.0  0.17490  0.41125  0.53418  1.0000
  C   C262      1.0  0.17825  0.40674  0.68404  1.0000
  C   C263      1.0  0.33345  0.43724  0.92349  1.0000
  H   H440      1.0  0.19967  0.49085  0.59703  1.0000
  N   N15       1.0  0.44971  0.45375  0.62019  1.0000
  H   H441      1.0  0.19939  0.40333  0.69785  1.0000
  H   H442      1.0  0.12564  0.61706  0.98228  1.0000
  C   C264      1.0  0.45002  0.49579  0.94082  1.0000
  H   H443      1.0  0.16141  0.44826  0.63959  1.0000
  H   H444      1.0  0.44848  0.55575  0.57008  1.0000
  H   H445      1.0  0.22543  0.46986  0.59079  1.0000
  C   C265      1.0  0.40457  0.58060  0.96127  1.0000
  C   C266      1.0  0.46242  0.51195  0.65475  1.0000
  C   C267      1.0  0.23798  0.61284  0.76569  1.0000
  H   H446      1.0  0.11797  0.36160  0.55878  1.0000
  H   H447      1.0  0.19080  0.55546  0.52377  1.0000
  H   H448      1.0  0.26841  0.32810  0.84894  1.0000
  H   H449      1.0  0.39787  0.46450  0.89419  1.0000
  H   H450      1.0  0.25795  0.60775  0.77930  1.0000
  H   H451      1.0  0.19474  0.57257  0.79925  1.0000
  C   C268      1.0  0.21122  0.48501  0.54021  1.0000
  H   H452      1.0  0.31885  0.62241  0.76403  1.0000
  H   H453      1.0  0.26749  0.52327  0.55273  1.0000
  H   H454      1.0  0.43561  0.49234  0.84682  1.0000
  H   H455      1.0  0.43527  0.48413  0.96685  1.0000
  H   H456      1.0  0.41526  0.41783  0.51076  1.0000
  H   H457      1.0  0.33967  0.41606  0.91513  1.0000
  H   H458      1.0  0.17440  0.42677  0.69959  1.0000
  C   C269      1.0  0.17361  0.40656  0.56425  1.0000
  H   H459      1.0  0.07108  0.43518  0.57286  1.0000
  N   N16       1.0  0.43391  0.51512  0.92076  1.0000
  H   H460      1.0  0.04760  0.57147  0.85602  1.0000
  H   H461      1.0  0.40730  0.37713  0.63068  1.0000
  H   H462      1.0  0.21814  0.46771  0.52353  1.0000
  H   H463      1.0  0.44164  0.49912  0.67636  1.0000
  C   C270      1.0  0.45341  0.45671  0.54959  1.0000
  H   H464      1.0  0.45434  0.41317  0.51970  1.0000
  C   C271      1.0  0.44473  0.43262  0.51601  1.0000
  C   C272      1.0  0.16166  0.42579  0.62469  1.0000
  H   H465      1.0  0.39006  0.54549  0.91503  1.0000
  Fe  Fe33      1.0  0.17198  0.65394  0.67162  1.0000
  C   C273      1.0  0.24724  0.62389  0.72478  1.0000
  H   H466      1.0  0.16681  0.57802  0.50915  1.0000
  H   H467      1.0  0.45158  0.53208  0.53100  1.0000
  H   H468      1.0  0.00753  0.53940  0.53024  1.0000
  C   C274      1.0  0.09494  0.46111  0.56473  1.0000
  H   H469      1.0  0.15409  0.64818  0.86085  1.0000
  H   H470      1.0  0.99996  0.41774  0.94160  1.0000
  H   H471      1.0  0.32494  0.57775  0.70163  1.0000
  H   H472      1.0  0.34128  0.50944  0.50212  1.0000
  C   C275      1.0  0.20156  0.47047  0.57996  1.0000
  H   H473      1.0  0.44647  0.47216  0.92482  1.0000
  H   H474      1.0  0.02790  0.54415  0.94644  1.0000
  H   H475      1.0  0.44428  0.47617  0.54383  1.0000
  C   C276      1.0  0.18974  0.41922  0.64463  1.0000
  H   H476      1.0  0.33416  0.57574  0.74933  1.0000
  H   H477      1.0  0.32219  0.44440  0.89968  1.0000
  S   S69       1.0  0.28260  0.33663  0.97243  1.0000
  C   C277      1.0  0.41712  0.39308  0.65620  1.0000
  C   C278      1.0  0.33401  0.59356  0.72739  1.0000
  H   H478      1.0  0.25106  0.53243  0.51101  1.0000
  C   C279      1.0  0.12465  0.62634  0.92356  1.0000
  H   H479      1.0  0.28166  0.58348  0.74248  1.0000
  C   C280      1.0  0.28326  0.33060  0.73701  1.0000
  H   H480      1.0  0.48295  0.55797  0.89632  1.0000
  H   H481      1.0  0.13446  0.40205  0.62946  1.0000
  C   C281      1.0  0.28667  0.35787  0.70834  1.0000
  C   C282      1.0  0.37885  0.49031  0.49635  1.0000
  H   H482      1.0  0.43407  0.58445  0.91226  1.0000
  H   H483      1.0  0.35938  0.49014  0.94707  1.0000
  H   H484      1.0  0.01573  0.49845  0.93535  1.0000
  C   C283      1.0  0.36726  0.47043  0.93786  1.0000
  C   C284      1.0  0.20136  0.57871  0.76978  1.0000
  C   C285      1.0  0.01561  0.40472  0.93315  1.0000
  H   H485      1.0  0.03996  0.47566  0.51368  1.0000
  C   C286      1.0  0.12923  0.46483  0.58153  1.0000
  H   H486      1.0  0.41843  0.52818  0.97253  1.0000
  H   H487      1.0  0.19306  0.39822  0.63090  1.0000
  H   H488      1.0  0.98615  0.58687  0.69226  1.0000
  C   C287      1.0  0.46605  0.55728  0.54701  1.0000
  S   S70       1.0  0.43576  0.36495  0.96082  1.0000
  H   H489      1.0  0.02976  0.40254  0.95762  1.0000
  H   H490      1.0  0.23783  0.59891  0.70837  1.0000
  H   H491      1.0  0.31112  0.38414  0.71383  1.0000
  H   H492      1.0  0.44293  0.54790  0.63802  1.0000
  H   H493      1.0  0.36264  0.37235  0.67744  1.0000
  H   H494      1.0  0.11076  0.40832  0.57515  1.0000
  H   H495      1.0  0.28343  0.34238  0.76412  1.0000
  H   H496      1.0  0.38685  0.49816  0.88604  1.0000
  C   C288      1.0  0.05398  0.50348  0.50498  1.0000
  C   C289      1.0  0.00659  0.51847  0.93448  1.0000
  C   C290      1.0  0.39678  0.48718  0.90782  1.0000
  Fe  Fe34      1.0  0.02649  0.64475  0.95294  1.0000
  C   C291      1.0  0.43236  0.54172  0.94661  1.0000
  H   H497      1.0  0.44171  0.39332  0.66586  1.0000
  S   S71       1.0  0.05999  0.62566  0.73350  1.0000
  C   C292      1.0  0.41479  0.56288  0.93087  1.0000
  H   H498      1.0  0.03606  0.42196  0.91252  1.0000
  C   C293      1.0  0.30868  0.60744  0.73801  1.0000
  H   H499      1.0  0.46916  0.50687  0.59732  1.0000
  H   H500      1.0  0.42862  0.59941  0.97738  1.0000
  H   H501      1.0  0.28989  0.64000  0.63543  1.0000
  N   N17       1.0  0.16812  0.43418  0.58430  1.0000
  H   H502      1.0  0.47466  0.56424  0.67522  1.0000
  H   H503      1.0  0.17952  0.34447  0.56251  1.0000
  H   H504      1.0  0.39284  0.59611  0.94911  1.0000
  N   N18       1.0  0.28620  0.65043  0.71583  1.0000
  H   H505      1.0  0.17992  0.58211  0.75679  1.0000
  H   H506      1.0  0.38440  0.55995  0.98002  1.0000
  H   H507      1.0  0.09103  0.48332  0.57475  1.0000
  H   H508      1.0  0.36193  0.61628  0.72365  1.0000
  C   C294      1.0  0.30660  0.63111  0.70724  1.0000
  C   C295      1.0  0.46184  0.51177  0.85921  1.0000
  H   H509      1.0  0.47393  0.49676  0.87165  1.0000
  H   H510      1.0  0.17127  0.65051  0.79628  1.0000
  H   H511      1.0  0.47588  0.55051  0.81475  1.0000
  H   H512      1.0  0.09797  0.57717  0.95556  1.0000
  H   H513      1.0  0.48304  0.47224  0.55302  1.0000
  H   H514      1.0  0.47779  0.40543  0.61940  1.0000
  H   H515      1.0  0.33460  0.65089  0.69847  1.0000
  H   H516      1.0  0.25757  0.65626  0.59114  1.0000
  H   H517      1.0  0.15757  0.34677  0.52103  1.0000
  C   C296      1.0  0.15414  0.34132  0.55094  1.0000
  C   C297      1.0  0.99069  0.36720  0.91753  1.0000
  H   H518      1.0  0.45863  0.44967  0.49186  1.0000
  H   H519      1.0  0.99086  0.38493  0.86338  1.0000
  C   C298      1.0  0.27206  0.64961  0.64637  1.0000
  H   H520      1.0  0.23699  0.63456  0.78118  1.0000
  H   H521      1.0  0.30725  0.32747  0.73432  1.0000
  S   S72       1.0  0.38344  0.68893  0.32915  1.0000
  C   C299      1.0  0.99116  0.93220  0.18436  1.0000
  C   C300      1.0  0.48558  0.76035  0.29798  1.0000
  H   H522      1.0  0.43542  0.68068  0.23310  1.0000
  C   C301      1.0  0.46822  0.92840  0.18448  1.0000
  C   C302      1.0  0.40822  0.67038  0.05544  1.0000
  H   H523      1.0  0.40189  0.71040  0.15237  1.0000
  Fe  Fe35      1.0  0.02957  0.96477  0.37183  1.0000
  H   H524      1.0  0.44294  0.84947  0.19074  1.0000
  S   S73       1.0  0.04606  0.92739  0.27968  1.0000
  S   S74       1.0  0.07316  0.95078  0.36579  1.0000
  H   H525      1.0  0.99759  0.68247  0.29920  1.0000
  H   H526      1.0  0.03655  0.68577  0.27648  1.0000
  H   H527      1.0  0.10918  0.67037  0.12393  1.0000
  Fe  Fe36      1.0  0.41396  0.87791  0.01971  1.0000
  C   C303      1.0  0.46265  0.98948  0.00009  1.0000
  S   S75       1.0  0.36871  0.82415  0.03747  1.0000
  S   S76       1.0  0.04409  0.69730  0.04643  1.0000
  Fe  Fe37      1.0  0.03135  0.90134  0.33551  1.0000
  H   H528      1.0  0.32393  0.66007  0.39606  1.0000
  H   H529      1.0  0.35921  0.98049  0.45801  1.0000
  C   C304      1.0  0.20815  0.79209  0.02124  1.0000
  C   C305      1.0  0.43633  0.69196  0.17510  1.0000
  H   H530      1.0  0.48566  0.95780  0.36768  1.0000
  Fe  Fe38      1.0  0.08037  0.68308  0.01485  1.0000
  H   H531      1.0  0.04823  0.80488  0.22934  1.0000
  Fe  Fe39      1.0  0.00325  0.94140  0.29104  1.0000
  C   C306      1.0  0.45918  0.81924  0.22573  1.0000
  H   H532      1.0  0.39739  0.72690  0.09127  1.0000
  H   H533      1.0  0.43718  0.99025  0.00061  1.0000
  C   C307      1.0  0.32493  0.72714  0.27173  1.0000
  C   C308      1.0  0.43691  0.92204  0.16577  1.0000
  C   C309      1.0  0.43272  0.91411  0.12790  1.0000
  C   C310      1.0  0.99551  0.82151  0.20631  1.0000
  H   H534      1.0  0.38274  0.80647  0.14737  1.0000
  S   S77       1.0  0.47380  0.94147  0.23141  1.0000
  H   H535      1.0  0.36683  0.94053  0.25695  1.0000
  H   H536      1.0  0.40911  0.91066  0.11363  1.0000
  H   H537      1.0  0.31780  0.71003  0.24682  1.0000
  H   H538      1.0  0.99867  0.80081  0.19100  1.0000
  C   C311      1.0  0.37978  0.96604  0.27278  1.0000
  C   C312      1.0  0.42374  0.72912  0.31944  1.0000
  C   C313      1.0  0.37819  0.77894  0.24012  1.0000
  H   H539      1.0  0.32319  0.77056  0.24485  1.0000
  S   S78       1.0  0.28082  0.83288  0.01053  1.0000
  H   H540      1.0  0.20536  0.70078  0.01571  1.0000
  C   C314      1.0  0.45341  0.72823  0.30496  1.0000
  H   H541      1.0  0.05618  0.67150  0.33587  1.0000
  C   C315      1.0  0.47484  0.97386  0.38047  1.0000
  H   H542      1.0  0.37127  0.95980  0.30188  1.0000
  H   H543      1.0  0.45172  0.70278  0.29935  1.0000
  H   H544      1.0  0.42747  0.98934  0.23995  1.0000
  H   H545      1.0  0.05671  0.96390  0.46249  1.0000
  H   H546      1.0  0.41712  0.66325  0.16883  1.0000
  H   H547      1.0  0.07076  0.66314  0.15075  1.0000
  C   C316      1.0  0.43384  0.79996  0.07493  1.0000
  H   H548      1.0  0.34465  0.77257  0.17285  1.0000
  H   H549      1.0  0.44721  0.74475  0.16040  1.0000
  C   C317      1.0  0.24017  0.79160  0.01504  1.0000
  N   N19       1.0  0.43908  0.71614  0.10911  1.0000
  H   H550      1.0  0.42125  0.80231  0.18203  1.0000
  S   S79       1.0  0.02702  0.84676  0.34244  1.0000
  H   H551      1.0  0.01118  0.77393  0.33518  1.0000
  Fe  Fe40      1.0  0.33426  0.83595  0.99996  1.0000
  H   H552      1.0  0.37252  0.75971  0.21722  1.0000
  H   H553      1.0  0.41614  0.92420  0.18041  1.0000
  H   H554      1.0  0.38901  0.67954  0.04799  1.0000
  C   C318      1.0  0.23903  0.75856  0.01253  1.0000
  H   H555      1.0  0.35054  0.83970  0.13568  1.0000
  C   C319      1.0  0.43065  0.69865  0.21504  1.0000
  H   H556      1.0  0.15063  0.76061  0.02968  1.0000
  H   H557      1.0  0.29988  0.71916  0.28746  1.0000
  C   C320      1.0  0.17513  0.75989  0.02473  1.0000
  N   N20       1.0  0.39767  0.81721  0.22632  1.0000
  C   C321      1.0  0.37442  0.82495  0.20116  1.0000
  C   C322      1.0  0.41140  0.84360  0.25806  1.0000
  C   C323      1.0  0.38723  0.85880  0.27142  1.0000
  C   C324      1.0  0.40214  0.88114  0.30631  1.0000
  C   C325      1.0  0.33569  0.81099  0.14422  1.0000
  H   H558      1.0  0.38974  0.85356  0.19217  1.0000
  H   H559      1.0  0.35046  0.82212  0.21572  1.0000
  H   H560      1.0  0.34317  0.72208  0.28914  1.0000
  H   H561      1.0  0.43745  0.86791  0.25084  1.0000
  C   C326      1.0  0.42979  0.82254  0.20430  1.0000
  H   H562      1.0  0.34851  0.78229  0.28729  1.0000
  H   H563      1.0  0.38628  0.87687  0.25020  1.0000
  H   H564      1.0  0.35932  0.83721  0.27707  1.0000
  H   H565      1.0  0.38411  0.89128  0.31528  1.0000
  H   H566      1.0  0.40390  0.86461  0.32873  1.0000
  H   H567      1.0  0.42924  0.90469  0.30111  1.0000
  H   H568      1.0  0.39565  0.77438  0.25926  1.0000
  H   H569      1.0  0.32606  0.79412  0.11912  1.0000
  H   H570      1.0  0.31185  0.80587  0.16077  1.0000
  H   H571      1.0  0.01749  0.85148  0.25751  1.0000
  H   H572      1.0  0.48251  0.80921  0.17712  1.0000
  H   H573      1.0  0.01298  0.84737  0.19169  1.0000
  H   H574      1.0  0.01591  0.93411  0.13219  1.0000
  H   H575      1.0  0.06297  0.83420  0.26868  1.0000
  H   H576      1.0  0.43667  0.78125  0.12802  1.0000
  Fe  Fe41      1.0  0.08346  0.97768  0.31091  1.0000
  H   H577      1.0  0.45357  0.95650  0.40036  1.0000
  C   C327      1.0  0.05892  0.98650  0.47778  1.0000
  H   H578      1.0  0.26359  0.75790  0.00793  1.0000
  H   H579      1.0  0.46066  0.82039  0.32531  1.0000
  H   H580      1.0  0.43242  0.66269  0.10422  1.0000
  C   C328      1.0  0.41800  0.67728  0.09665  1.0000
  H   H581      1.0  0.47489  0.79210  0.09903  1.0000
  C   C329      1.0  0.05062  0.82986  0.24104  1.0000
  H   H582      1.0  0.01463  0.93750  0.20015  1.0000
  H   H583      1.0  0.41771  0.83171  0.28208  1.0000
  H   H584      1.0  0.43232  0.68460  0.03802  1.0000
  C   C330      1.0  0.01358  0.82647  0.24438  1.0000
  C   C331      1.0  0.34281  0.76694  0.26135  1.0000
  H   H585      1.0  0.43566  0.96381  0.33912  1.0000
  H   H586      1.0  0.12563  0.95565  0.44460  1.0000
  H   H587      1.0  0.40405  0.78705  0.07402  1.0000
  H   H588      1.0  0.44987  0.72689  0.22303  1.0000
  C   C332      1.0  0.17404  0.72689  0.02302  1.0000
  C   C333      1.0  0.46020  0.91315  0.10813  1.0000
  S   S80       1.0  0.46028  0.91170  0.05940  1.0000
  H   H589      1.0  0.43147  0.73839  0.05847  1.0000
  S   S81       1.0  0.98661  0.91303  0.34570  1.0000
  H   H590      1.0  0.04208  0.71715  0.31224  1.0000
  H   H591      1.0  0.14787  0.96539  0.31014  1.0000
  H   H592      1.0  0.46401  0.69648  0.17288  1.0000
  C   C334      1.0  0.42631  0.76249  0.32642  1.0000
  C   C335      1.0  0.36030  0.80161  0.16599  1.0000
  C   C336      1.0  0.99179  0.93018  0.14578  1.0000
  S   S82       1.0  0.13323  0.68606  0.02878  1.0000
  C   C337      1.0  0.02581  0.68873  0.30315  1.0000
  C   C338      1.0  0.44511  0.77890  0.09999  1.0000
  C   C339      1.0  0.45859  0.79476  0.31935  1.0000
  H   H593      1.0  0.44409  0.80124  0.04675  1.0000
  C   C340      1.0  0.42065  0.98395  0.26943  1.0000
  H   H594      1.0  0.20342  0.96103  0.31037  1.0000
  H   H595      1.0  0.01738  0.66867  0.35808  1.0000
  H   H596      1.0  0.44860  0.79146  0.23611  1.0000
  H   H597      1.0  0.46956  0.83808  0.24928  1.0000
  H   H598      1.0  0.99725  0.80396  0.26316  1.0000
  H   H599      1.0  0.16313  0.94778  0.44486  1.0000
  C   C341      1.0  0.47915  0.73074  0.10596  1.0000
  H   H600      1.0  0.40345  0.76331  0.33778  1.0000
  H   H601      1.0  0.06861  0.85317  0.22348  1.0000
  C   C342      1.0  0.42709  0.73877  0.08840  1.0000
  C   C343      1.0  0.43048  0.71720  0.14913  1.0000
  C   C344      1.0  0.20606  0.72628  0.01692  1.0000
  H   H602      1.0  0.44581  0.66671  0.43514  1.0000
  H   H603      1.0  0.42887  0.96451  0.27842  1.0000
  C   C345      1.0  0.15070  0.96139  0.43003  1.0000
  C   C346      1.0  0.02758  0.66382  0.33194  1.0000
  H   H604      1.0  0.40266  0.69291  0.21957  1.0000
  H   H605      1.0  0.14376  0.95006  0.40187  1.0000
  H   H606      1.0  0.46141  0.67732  0.38852  1.0000
  H   H607      1.0  0.44515  0.82795  0.08514  1.0000
  H   H608      1.0  0.19642  0.86572  0.00505  1.0000
  H   H609      1.0  0.20891  0.81750  0.02403  1.0000
  H   H610      1.0  0.37034  0.98392  0.26156  1.0000
  C   C347      1.0  0.20510  0.98648  0.30430  1.0000
  C   C348      1.0  0.45911  0.98761  0.35144  1.0000
  H   H611      1.0  0.43533  0.98591  0.12374  1.0000
  H   H612      1.0  0.39160  0.66287  0.11119  1.0000
  H   H613      1.0  0.45701  0.96227  0.00830  1.0000
  H   H614      1.0  0.46570  0.98403  0.07279  1.0000
  S   S83       1.0  0.38618  0.75226  0.98841  1.0000
  H   H615      1.0  0.40531  0.98979  0.17919  1.0000
  C   C349      1.0  0.17364  0.98887  0.30411  1.0000
  H   H616      1.0  0.98632  0.71240  0.44943  1.0000
  Fe  Fe42      1.0  0.03043  0.71050  0.99089  1.0000
  H   H617      1.0  0.02076  0.82416  0.99050  1.0000
  H   H618      1.0  0.00607  0.65776  0.19504  1.0000
  H   H619      1.0  0.27759  0.92703  0.79895  1.0000
  H   H620      1.0  0.45551  0.97031  0.82946  1.0000
  H   H621      1.0  0.33449  0.69435  0.73952  1.0000
  Fe  Fe43      1.0  0.38852  0.86456  0.93772  1.0000
  S   S84       1.0  0.39179  0.87434  0.87561  1.0000
  H   H622      1.0  0.25725  0.88600  0.98117  1.0000
  S   S85       1.0  0.07115  0.70143  0.96059  1.0000
  H   H623      1.0  0.01070  0.67282  0.72750  1.0000
  C   C350      1.0  0.27299  0.93112  0.85829  1.0000
  H   H624      1.0  0.04449  0.67106  0.67523  1.0000
  S   S86       1.0  0.29028  0.93607  0.60645  1.0000
  C   C351      1.0  0.21447  0.67836  0.90631  1.0000
  Fe  Fe44      1.0  0.33751  0.95278  0.70108  1.0000
  S   S87       1.0  0.28295  0.90425  0.69012  1.0000
  S   S88       1.0  0.36331  0.96777  0.75823  1.0000
  Fe  Fe45      1.0  0.30765  0.90194  0.63663  1.0000
  S   S89       1.0  0.29535  0.85107  0.60667  1.0000
  Fe  Fe46      1.0  0.27062  0.94294  0.66092  1.0000
  S   S90       1.0  0.36323  0.94839  0.64862  1.0000
  S   S91       1.0  0.21977  0.70415  0.69435  1.0000
  C   C352      1.0  0.27412  0.81036  0.63116  1.0000
  C   C353      1.0  0.25123  0.77812  0.61272  1.0000
  C   C354      1.0  0.23373  0.74532  0.63191  1.0000
  C   C355      1.0  0.24037  0.74455  0.66927  1.0000
  C   C356      1.0  0.26414  0.77664  0.68738  1.0000
  C   C357      1.0  0.28030  0.80958  0.66861  1.0000
  H   H625      1.0  0.24659  0.77863  0.58365  1.0000
  H   H626      1.0  0.21564  0.72065  0.61768  1.0000
  H   H627      1.0  0.27009  0.77610  0.71607  1.0000
  H   H628      1.0  0.29835  0.83427  0.68285  1.0000
  S   S92       1.0  0.21601  0.93861  0.65846  1.0000
  H   H629      1.0  0.16119  0.95715  0.64818  1.0000
  C   C358      1.0  0.38058  0.89935  0.84483  1.0000
  C   C359      1.0  0.36984  0.88625  0.80897  1.0000
  C   C360      1.0  0.36339  0.90629  0.78250  1.0000
  C   C361      1.0  0.36867  0.94029  0.79124  1.0000
  H   H630      1.0  0.17928  0.86276  0.95942  1.0000
  C   C362      1.0  0.38501  0.93298  0.85388  1.0000
  H   H631      1.0  0.36679  0.86049  0.80150  1.0000
  H   H632      1.0  0.35527  0.89582  0.75505  1.0000
  H   H633      1.0  0.48086  0.94927  0.74126  1.0000
  H   H634      1.0  0.26926  0.71612  0.88801  1.0000
  H   H635      1.0  0.40409  0.69658  0.97933  1.0000
  C   C363      1.0  0.16396  0.67173  0.79263  1.0000
  H   H636      1.0  0.39623  0.95036  0.51295  1.0000
  C   C364      1.0  0.40457  0.94421  0.53948  1.0000
  C   C365      1.0  0.42877  0.72211  0.97674  1.0000
  H   H637      1.0  0.33277  0.96204  0.90875  1.0000
  H   H638      1.0  0.17417  0.74303  0.87355  1.0000
  C   C366      1.0  0.16393  0.74629  0.93022  1.0000
  C   C367      1.0  0.99164  0.76695  0.98085  1.0000
  H   H639      1.0  0.21190  0.90606  0.97840  1.0000
  H   H640      1.0  0.14769  0.72922  0.95333  1.0000
  C   C368      1.0  0.25536  0.69745  0.91118  1.0000
  C   C369      1.0  0.47278  0.91812  0.82980  1.0000
  C   C370      1.0  0.20121  0.70580  0.90648  1.0000
  H   H641      1.0  0.05045  0.70681  0.64493  1.0000
  C   C371      1.0  0.15639  0.72367  0.89471  1.0000
  C   C372      1.0  0.48160  0.88939  0.84206  1.0000
  H   H642      1.0  0.46212  0.69794  0.96940  1.0000
  H   H643      1.0  0.29319  0.74052  0.79585  1.0000
  H   H644      1.0  0.21881  0.72828  0.88792  1.0000
  H   H645      1.0  0.29167  0.70071  0.81382  1.0000
  H   H646      1.0  0.17916  0.68857  0.76876  1.0000
  N   N21       1.0  0.16215  0.69177  0.89721  1.0000
  C   C373      1.0  0.45975  0.78701  0.97508  1.0000
  H   H647      1.0  0.28443  0.95307  0.87876  1.0000
  H   H648      1.0  0.01128  0.93547  0.81820  1.0000
  H   H649      1.0  0.07363  0.68214  0.63617  1.0000
  H   H650      1.0  0.12814  0.71452  0.88602  1.0000
  H   H651      1.0  0.01161  0.94044  0.86746  1.0000
  C   C374      1.0  0.06421  0.69360  0.65790  1.0000
  C   C375      1.0  0.15483  0.77617  0.92520  1.0000
  H   H652      1.0  0.26595  0.93683  0.53114  1.0000
  H   H653      1.0  0.10557  0.70505  0.69727  1.0000
  H   H654      1.0  0.30312  0.95120  0.94797  1.0000
  S   S93       1.0  0.34299  0.80932  0.95154  1.0000
  H   H655      1.0  0.06363  0.98589  0.82832  1.0000
  C   C376      1.0  0.28690  0.94797  0.82065  1.0000
  H   H656      1.0  0.21797  0.96941  0.51584  1.0000
  H   H657      1.0  0.11268  0.66855  0.92915  1.0000
  H   H658      1.0  0.35690  0.89102  0.53936  1.0000
  H   H659      1.0  0.20732  0.71769  0.93447  1.0000
  H   H660      1.0  0.18486  0.97666  0.55579  1.0000
  H   H661      1.0  0.19278  0.75952  0.93797  1.0000
  S   S94       1.0  0.37864  0.89182  0.98537  1.0000
  H   H662      1.0  0.99686  0.94915  0.62460  1.0000
  C   C377      1.0  0.37043  0.91477  0.55773  1.0000
  H   H663      1.0  0.22450  0.84305  0.96218  1.0000
  C   C378      1.0  0.42338  0.97835  0.56390  1.0000
  Fe  Fe47      1.0  0.38261  0.80337  0.98693  1.0000
  C   C379      1.0  0.30296  0.72123  0.79172  1.0000
  H   H664      1.0  0.44539  0.94060  0.77173  1.0000
  H   H665      1.0  0.22235  0.92146  0.55230  1.0000
  H   H666      1.0  0.31619  0.69280  0.67614  1.0000
  H   H667      1.0  0.20792  0.66302  0.88032  1.0000
  H   H668      1.0  0.04811  0.66965  0.78488  1.0000
  H   H669      1.0  0.26429  0.67726  0.91206  1.0000
  H   H670      1.0  0.44805  0.90467  0.81289  1.0000
  H   H671      1.0  0.03536  0.66458  0.85181  1.0000
  H   H672      1.0  0.29501  0.69639  0.61017  1.0000
  H   H673      1.0  0.18998  0.76966  0.78206  1.0000
  H   H674      1.0  0.03184  0.94555  0.57323  1.0000
  H   H675      1.0  0.17238  0.79562  0.90403  1.0000
  N   N22       1.0  0.27625  0.88666  0.90543  1.0000
  C   C380      1.0  0.24485  0.88782  0.92274  1.0000
  C   C381      1.0  0.28239  0.90129  0.86665  1.0000
  C   C382      1.0  0.26654  0.84766  0.90349  1.0000
  C   C383      1.0  0.31014  0.90659  0.92794  1.0000
  H   H676      1.0  0.16659  0.71640  0.82082  1.0000
  H   H677      1.0  0.27295  0.68610  0.68674  1.0000
  C   C384      1.0  0.29411  0.84016  0.88361  1.0000
  C   C385      1.0  0.28786  0.67158  0.68204  1.0000
  C   C386      1.0  0.29090  0.70342  0.75415  1.0000
  H   H678      1.0  0.46297  0.95074  0.59141  1.0000
  C   C387      1.0  0.37962  0.95353  0.82707  1.0000
  C   C388      1.0  0.27922  0.79987  0.87858  1.0000
  H   H679      1.0  0.22051  0.87290  0.90518  1.0000
  C   C389      1.0  0.00279  0.92529  0.57565  1.0000
  H   H680      1.0  0.31080  0.91145  0.85824  1.0000
  H   H681      1.0  0.26595  0.87942  0.84674  1.0000
  H   H682      1.0  0.23991  0.83138  0.88989  1.0000
  H   H683      1.0  0.26373  0.83619  0.93143  1.0000
  H   H684      1.0  0.21693  0.76080  0.75045  1.0000
  H   H685      1.0  0.33278  0.90555  0.91434  1.0000
  H   H686      1.0  0.20247  0.65957  0.92972  1.0000
  H   H687      1.0  0.42245  0.93303  0.53406  1.0000
  H   H688      1.0  0.24327  0.91929  0.85824  1.0000
  H   H689      1.0  0.26243  0.98499  0.49927  1.0000
  H   H690      1.0  0.31894  0.85054  0.90023  1.0000
  H   H691      1.0  0.30149  0.85278  0.85613  1.0000
  H   H692      1.0  0.15110  0.67634  0.95442  1.0000
  H   H693      1.0  0.24953  0.68167  0.62527  1.0000
  C   C390      1.0  0.46162  0.72282  0.97104  1.0000
  C   C391      1.0  0.23939  0.93506  0.52798  1.0000
  H   H694      1.0  0.30482  0.66381  0.77213  1.0000
  H   H695      1.0  0.30140  0.72523  0.73329  1.0000
  C   C392      1.0  0.30531  0.67733  0.74615  1.0000
  H   H696      1.0  0.35131  0.92450  0.56336  1.0000
  H   H697      1.0  0.42404  0.96924  0.59213  1.0000
  H   H698      1.0  0.41546  0.94771  0.71465  1.0000
  S   S95       1.0  0.03105  0.76337  0.98336  1.0000
  H   H699      1.0  0.25534  0.78829  0.86032  1.0000
  H   H700      1.0  0.30021  0.79541  0.86589  1.0000
  H   H701      1.0  0.27184  0.78601  0.90556  1.0000
  N   N23       1.0  0.15507  0.78234  0.67718  1.0000
  C   C393      1.0  0.18479  0.80391  0.65010  1.0000
  C   C394      1.0  0.16969  0.76946  0.70760  1.0000
  C   C395      1.0  0.12667  0.74929  0.65736  1.0000
  C   C396      1.0  0.13798  0.80306  0.69247  1.0000
  C   C397      1.0  0.16211  0.84474  0.69502  1.0000
  C   C398      1.0  0.17246  0.81330  0.61379  1.0000
  C   C399      1.0  0.09576  0.72053  0.68144  1.0000
  C   C400      1.0  0.20091  0.79880  0.73054  1.0000
  C   C401      1.0  0.21174  0.78193  0.76128  1.0000
  C   C402      1.0  0.14402  0.86115  0.71775  1.0000
  C   C403      1.0  0.20346  0.84537  0.59440  1.0000
  H   H702      1.0  0.46221  0.98781  0.89628  1.0000
  H   H703      1.0  0.19860  0.78881  0.64240  1.0000
  H   H704      1.0  0.20640  0.82913  0.66249  1.0000
  H   H705      1.0  0.14813  0.75299  0.72767  1.0000
  H   H706      1.0  0.17898  0.75136  0.69620  1.0000
  H   H707      1.0  0.13928  0.73546  0.64288  1.0000
  H   H708      1.0  0.11372  0.75708  0.63561  1.0000
  H   H709      1.0  0.11434  0.79832  0.67565  1.0000
  H   H710      1.0  0.12661  0.79273  0.72018  1.0000
  H   H711      1.0  0.16701  0.85698  0.66736  1.0000
  H   H712      1.0  0.18879  0.85347  0.70724  1.0000
  H   H713      1.0  0.16185  0.78989  0.59486  1.0000
  H   H714      1.0  0.15067  0.81957  0.61846  1.0000
  H   H715      1.0  0.08548  0.73304  0.70101  1.0000
  H   H716      1.0  0.37696  0.90602  0.58382  1.0000
  H   H717      1.0  0.22500  0.81519  0.71328  1.0000
  H   H718      1.0  0.19251  0.81647  0.74405  1.0000
  H   H719      1.0  0.23661  0.80300  0.77481  1.0000
  H   H720      1.0  0.12622  0.76483  0.91709  1.0000
  Fe  Fe48      1.0  0.34346  0.98277  0.62178  1.0000
  H   H721      1.0  0.11769  0.85450  0.70558  1.0000
  H   H722      1.0  0.13994  0.85121  0.74642  1.0000
  H   H723      1.0  0.16145  0.89092  0.71818  1.0000
  H   H724      1.0  0.19366  0.85111  0.56857  1.0000
  H   H725      1.0  0.21459  0.86970  0.61204  1.0000
  H   H726      1.0  0.22509  0.83938  0.58753  1.0000
  H   H727      1.0  0.00028  0.90139  0.59007  1.0000
  H   H728      1.0  0.08085  0.97540  0.52583  1.0000
  S   S96       1.0  0.42887  0.85661  0.97004  1.0000
  H   H729      1.0  0.20273  0.70781  0.83125  1.0000
  H   H730      1.0  0.27696  0.96670  0.81397  1.0000
  H   H731      1.0  0.30698  0.89302  0.95478  1.0000
  H   H732      1.0  0.15903  0.79076  0.95152  1.0000
  C   C404      1.0  0.42769  0.75419  0.97907  1.0000
  C   C405      1.0  0.17330  0.69516  0.82688  1.0000
  H   H733      1.0  0.26109  0.68940  0.75304  1.0000
  H   H734      1.0  0.26350  0.71289  0.93728  1.0000
  H   H735      1.0  0.33282  0.73623  0.79363  1.0000
  H   H736      1.0  0.34862  0.97529  0.52536  1.0000
  H   H737      1.0  0.48050  0.97552  0.52562  1.0000
  H   H738      1.0  0.22606  0.91850  0.50336  1.0000
  H   H739      1.0  0.45598  0.96525  0.68702  1.0000
  H   H740      1.0  0.39405  0.94383  0.88104  1.0000
  C   C406      1.0  0.24436  0.97260  0.52315  1.0000
  C   C407      1.0  0.21143  0.97436  0.67606  1.0000
  H   H741      1.0  0.38424  0.98000  0.83404  1.0000
  H   H742      1.0  0.24580  0.97951  0.58238  1.0000
  H   H743      1.0  0.24986  0.91572  0.92425  1.0000
  H   H744      1.0  0.99099  0.91698  0.54783  1.0000
  C   C408      1.0  0.32398  0.94694  0.93491  1.0000
  H   H745      1.0  0.40509  0.98961  0.56550  1.0000
  C   C409      1.0  0.47191  0.96240  0.76170  1.0000
  H   H746      1.0  0.46699  0.92893  0.85487  1.0000
  C   C410      1.0  0.99477  0.93338  0.84249  1.0000
  H   H747      1.0  0.37901  0.96051  0.94803  1.0000
  H   H748      1.0  0.45953  0.81193  0.97692  1.0000
  C   C411      1.0  0.20359  0.87708  0.97695  1.0000
  C   C412      1.0  0.44111  0.97228  0.70720  1.0000
  H   H749      1.0  0.34953  0.94938  0.98736  1.0000
  H   H750      1.0  0.12267  0.66283  0.85515  1.0000
  C   C413      1.0  0.35672  0.96310  0.96030  1.0000
  C   C414      1.0  0.18128  0.97704  0.66624  1.0000
  C   C415      1.0  0.23422  0.87229  0.96202  1.0000
  C   C416      1.0  0.15173  0.67271  0.86064  1.0000
  C   C417      1.0  0.99470  0.80094  0.98488  1.0000
  H   H751      1.0  0.31676  0.96359  0.82066  1.0000
  C   C418      1.0  0.26842  0.67251  0.61648  1.0000
  C   C419      1.0  0.13788  0.66715  0.92722  1.0000
  H   H752      1.0  0.45855  0.86818  0.85782  1.0000
  C   C420      1.0  0.46402  0.98941  0.74127  1.0000
  H   H753      1.0  0.13476  0.65885  0.78646  1.0000
  Fe  Fe49      1.0  0.91241  0.12065  0.29357  1.0000
  S   S97       1.0  0.89503  0.16201  0.29767  1.0000
  S   S98       1.0  0.95314  0.12558  0.24927  1.0000
  Fe  Fe50      1.0  0.87634  0.08547  0.36830  1.0000
  S   S99       1.0  0.85713  0.12470  0.37668  1.0000
  S   S100      1.0  0.85628  0.03637  0.40665  1.0000
  Fe  Fe51      1.0  0.84200  0.11662  0.31741  1.0000
  S   S101      1.0  0.79128  0.11814  0.30496  1.0000
  Fe  Fe52      1.0  0.91127  0.16732  0.35652  1.0000
  S   S102      1.0  0.93409  0.22045  0.38638  1.0000
  S   S103      1.0  0.85756  0.07427  0.30915  1.0000
  S   S104      1.0  0.93241  0.12893  0.35237  1.0000
  C   C421      1.0  0.97356  0.22040  0.21025  1.0000
  C   C422      1.0  0.91672  0.00839  0.31834  1.0000
  Fe  Fe53      1.0  0.50923  0.14512  0.02005  1.0000
  S   S105      1.0  0.55545  0.20140  0.02788  1.0000
  H   H754      1.0  0.93352  0.26415  0.22797  1.0000
  H   H755      1.0  0.71698  0.21177  0.01057  1.0000
  C   C423      1.0  0.67789  0.26362  0.01450  1.0000
  H   H756      1.0  0.86203  0.01085  0.28047  1.0000
  H   H757      1.0  0.51281  0.26366  0.30774  1.0000
  H   H758      1.0  0.77747  0.04716  0.28347  1.0000
  H   H759      1.0  0.95715  0.10325  0.42037  1.0000
  C   C424      1.0  0.49687  0.03828  0.26039  1.0000
  H   H760      1.0  0.64258  0.05722  0.33647  1.0000
  H   H761      1.0  0.71754  0.99580  0.39365  1.0000
  H   H762      1.0  0.92316  0.06038  0.30028  1.0000
  H   H763      1.0  0.54279  0.06226  0.19989  1.0000
  H   H764      1.0  0.92300  0.22112  0.11307  1.0000
  C   C425      1.0  0.98217  0.10269  0.41403  1.0000
  H   H765      1.0  0.93958  0.23852  0.06907  1.0000
  H   H766      1.0  0.50883  0.08246  0.44722  1.0000
  H   H767      1.0  0.48885  0.11546  0.39132  1.0000
  H   H768      1.0  0.56452  0.04263  0.40260  1.0000
  C   C426      1.0  0.95347  0.12453  0.20026  1.0000
  C   C427      1.0  0.57319  0.00646  0.10939  1.0000
  H   H769      1.0  0.51564  0.01681  0.02357  1.0000
  C   C428      1.0  0.52561  0.32193  0.04511  1.0000
  C   C429      1.0  0.92495  0.10041  0.14107  1.0000
  C   C430      1.0  0.92246  0.10330  0.17948  1.0000
  H   H770      1.0  0.54624  0.26060  0.08499  1.0000
  C   C431      1.0  0.67683  0.07333  0.38511  1.0000
  H   H771      1.0  0.90095  0.08291  0.12558  1.0000
  H   H772      1.0  0.89674  0.08809  0.19313  1.0000
  H   H773      1.0  0.93768  0.29371  0.29725  1.0000
  H   H774      1.0  0.89665  0.17217  0.05180  1.0000
  C   C432      1.0  0.85877  0.09183  0.99490  1.0000
  H   H775      1.0  0.53042  0.12255  0.37150  1.0000
  H   H776      1.0  0.55276  0.22213  0.23400  1.0000
  H   H777      1.0  0.93473  0.06330  0.00509  1.0000
  H   H778      1.0  0.88328  0.20173  0.23027  1.0000
  C   C433      1.0  0.94622  0.22864  0.09437  1.0000
  H   H779      1.0  0.97699  0.01160  0.30548  1.0000
  C   C434      1.0  0.76634  0.04386  0.38060  1.0000
  C   C435      1.0  0.75165  0.07829  0.29324  1.0000
  C   C436      1.0  0.71896  0.07824  0.29267  1.0000
  H   H780      1.0  0.88899  0.07433  0.02710  1.0000
  H   H781      1.0  0.77218  0.27161  0.01731  1.0000
  H   H782      1.0  0.90997  0.13986  0.06412  1.0000
  H   H783      1.0  0.73198  0.07049  0.41859  1.0000
  C   C437      1.0  0.68058  0.23258  0.01172  1.0000
  C   C438      1.0  0.81930  0.09076  0.47686  1.0000
  C   C439      1.0  0.86062  0.03170  0.45479  1.0000
  H   H784      1.0  0.72122  0.99276  0.26337  1.0000
  C   C440      1.0  0.97036  0.03055  0.03232  1.0000
  H   H785      1.0  0.90581  0.08475  0.46344  1.0000
  C   C441      1.0  0.97307  0.06517  0.40138  1.0000
  C   C442      1.0  0.92480  0.01234  0.16903  1.0000
  C   C443      1.0  0.71474  0.23569  0.01261  1.0000
  H   H786      1.0  0.58952  0.99998  0.09063  1.0000
  H   H787      1.0  0.66624  0.10486  0.34584  1.0000
  H   H788      1.0  0.77628  0.07257  0.37402  1.0000
  C   C444      1.0  0.52850  0.07386  0.07944  1.0000
  Fe  Fe54      1.0  0.88602  0.31966  0.00209  1.0000
  C   C445      1.0  0.50173  0.11350  0.36567  1.0000
  H   H789      1.0  0.94325  0.04171  0.27011  1.0000
  N   N24       1.0  0.67810  0.02685  0.42989  1.0000
  C   C446      1.0  0.55831  0.10070  0.10578  1.0000
  H   H790      1.0  0.79136  0.08064  0.46719  1.0000
  H   H791      1.0  0.59175  0.03043  0.12588  1.0000
  H   H792      1.0  0.50214  0.99245  0.12271  1.0000
  C   C447      1.0  0.48739  0.00981  0.32127  1.0000
  C   C448      1.0  0.58299  0.13629  0.08641  1.0000
  H   H793      1.0  0.51422  0.02561  0.33461  1.0000
  H   H794      1.0  0.51327  0.08680  0.06919  1.0000
  H   H795      1.0  0.54298  0.07208  0.05512  1.0000
  H   H796      1.0  0.73041  0.03549  0.44548  1.0000
  H   H797      1.0  0.84360  0.02082  0.99864  1.0000
  H   H798      1.0  0.90519  0.02447  0.03028  1.0000
  C   C449      1.0  0.88666  0.01897  0.26393  1.0000
  C   C450      1.0  0.96163  0.29836  0.99224  1.0000
  C   C451      1.0  0.97524  0.28896  0.12152  1.0000
  H   H799      1.0  0.56739  0.14878  0.07635  1.0000
  H   H800      1.0  0.51949  0.25337  0.04437  1.0000
  H   H801      1.0  0.54686  0.10700  0.12994  1.0000
  H   H802      1.0  0.57548  0.08983  0.11538  1.0000
  H   H803      1.0  0.87044  0.28853  0.22696  1.0000
  H   H804      1.0  0.48705  0.01144  0.24775  1.0000
  H   H805      1.0  0.88918  0.03924  0.24345  1.0000
  H   H806      1.0  0.87639  0.32111  0.27860  1.0000
  H   H807      1.0  0.52215  0.22110  0.26844  1.0000
  H   H808      1.0  0.69304  0.07650  0.45921  1.0000
  H   H809      1.0  0.62785  0.07473  0.37329  1.0000
  H   H810      1.0  0.92613  0.02842  0.19343  1.0000
  C   C452      1.0  0.52398  0.21217  0.24037  1.0000
  C   C453      1.0  0.88747  0.05919  0.47602  1.0000
  H   H811      1.0  0.86486  0.23100  0.22672  1.0000
  H   H812      1.0  0.59677  0.13194  0.06284  1.0000
  C   C454      1.0  0.57125  0.99920  0.47720  1.0000
  C   C455      1.0  0.55209  0.05183  0.22269  1.0000
  H   H813      1.0  0.60390  0.15531  0.10567  1.0000
  H   H814      1.0  0.54219  0.02274  0.21821  1.0000
  C   C456      1.0  0.65956  0.03380  0.39843  1.0000
  H   H815      1.0  0.68236  0.09251  0.40777  1.0000
  H   H816      1.0  0.89069  0.27211  0.29105  1.0000
  C   C457      1.0  0.96330  0.26046  0.36279  1.0000
  H   H817      1.0  0.63105  0.02426  0.40592  1.0000
  H   H818      1.0  0.95754  0.07674  0.34882  1.0000
  H   H819      1.0  0.83351  0.12059  0.47864  1.0000
  C   C458      1.0  0.53858  0.05773  0.25937  1.0000
  H   H820      1.0  0.95761  0.18437  0.10452  1.0000
  H   H821      1.0  0.51988  0.14662  0.12041  1.0000
  H   H822      1.0  0.66221  0.04785  0.28002  1.0000
  C   C459      1.0  0.90876  0.16373  0.07374  1.0000
  C   C460      1.0  0.49635  0.07146  0.31421  1.0000
  C   C461      1.0  0.65181  0.07771  0.35851  1.0000
  H   H823      1.0  0.93175  0.24397  0.27046  1.0000
  H   H824      1.0  0.52582  0.08315  0.31798  1.0000
  H   H825      1.0  0.96335  0.32406  0.99639  1.0000
  H   H826      1.0  0.48744  0.05894  0.37290  1.0000
  H   H827      1.0  0.53671  0.03492  0.13705  1.0000
  C   C462      1.0  0.91662  0.28515  0.27563  1.0000
  C   C463      1.0  0.74330  0.30050  0.01999  1.0000
  C   C464      1.0  0.59733  0.25782  0.46803  1.0000
  H   H828      1.0  0.52471  0.25661  0.21355  1.0000
  H   H829      1.0  0.56614  0.28863  0.04542  1.0000
  S   S106      1.0  0.88810  0.26786  0.00135  1.0000
  H   H830      1.0  0.54921  0.04807  0.28154  1.0000
  H   H831      1.0  0.55003  0.08720  0.26270  1.0000
  C   C465      1.0  0.68783  0.01652  0.27130  1.0000
  H   H832      1.0  0.71240  0.02620  0.36311  1.0000
  H   H833      1.0  0.94163  0.19540  0.16243  1.0000
  H   H834      1.0  0.89137  0.15588  0.09850  1.0000
  C   C466      1.0  0.49095  0.13091  0.17205  1.0000
  H   H835      1.0  0.86491  0.21106  0.27025  1.0000
  N   N25       1.0  0.94652  0.02159  0.34641  1.0000
  C   C467      1.0  0.49372  0.13329  0.13340  1.0000
  C   C468      1.0  0.52184  0.01968  0.11225  1.0000
  C   C469      1.0  0.96008  0.03174  0.14761  1.0000
  C   C470      1.0  0.94667  0.19411  0.08278  1.0000
  H   H836      1.0  0.58198  0.06637  0.22260  1.0000
  H   H837      1.0  0.83306  0.07438  0.00952  1.0000
  H   H838      1.0  0.70258  0.08127  0.37074  1.0000
  C   C471      1.0  0.67576  0.04697  0.46288  1.0000
  H   H839      1.0  0.77194  0.03136  0.35674  1.0000
  H   H840      1.0  0.49671  0.99672  0.39573  1.0000
  C   C472      1.0  0.94860  0.05309  0.36689  1.0000
  C   C473      1.0  0.68704  0.04731  0.28195  1.0000
  H   H841      1.0  0.95154  0.27958  0.13988  1.0000
  C   C474      1.0  0.56868  0.03775  0.43073  1.0000
  H   H842      1.0  0.92127  0.04657  0.37612  1.0000
  H   H843      1.0  0.51168  0.21799  0.18477  1.0000
  H   H844      1.0  0.57706  0.08896  0.45028  1.0000
  H   H845      1.0  0.90661  0.29030  0.20240  1.0000
  C   C475      1.0  0.88374  0.07616  0.99756  1.0000
  H   H846      1.0  0.94238  0.23562  0.17678  1.0000
  H   H847      1.0  0.56475  0.03805  0.06997  1.0000
  C   C476      1.0  0.72045  0.01643  0.27207  1.0000
  C   C477      1.0  0.70916  0.29743  0.01895  1.0000
  C   C478      1.0  0.92822  0.26680  0.99423  1.0000
  H   H848      1.0  0.71853  0.10247  0.29975  1.0000
  H   H849      1.0  0.95720  0.01569  0.12271  1.0000
  H   H850      1.0  0.87188  0.11895  0.00757  1.0000
  S   S107      1.0  0.96059  0.11240  0.07467  1.0000
  C   C479      1.0  0.91783  0.25477  0.25347  1.0000
  C   C480      1.0  0.95823  0.11944  0.12269  1.0000
  C   C481      1.0  0.89945  0.30657  0.22025  1.0000
  H   H851      1.0  0.65806  0.01804  0.37374  1.0000
  H   H852      1.0  0.58214  0.26624  0.48625  1.0000
  H   H853      1.0  0.84912  0.30727  0.17105  1.0000
  H   H854      1.0  0.95580  0.29399  0.40154  1.0000
  H   H855      1.0  0.61653  0.28114  0.45112  1.0000
  C   C482      1.0  0.56560  0.00475  0.44033  1.0000
  C   C483      1.0  0.75229  0.04718  0.28339  1.0000
  C   C484      1.0  0.54769  0.01416  0.08704  1.0000
  C   C485      1.0  0.71737  0.04069  0.42188  1.0000
  C   C486      1.0  0.92011  0.03530  0.28832  1.0000
  H   H856      1.0  0.89035  0.99867  0.33249  1.0000
  H   H857      1.0  0.83348  0.08326  0.45629  1.0000
  H   H858      1.0  0.49647  0.28574  0.20410  1.0000
  N   N26       1.0  0.50256  0.03708  0.09485  1.0000
  C   C487      1.0  0.57600  0.06411  0.45788  1.0000
  H   H859      1.0  0.88430  0.30498  0.14598  1.0000
  H   H860      1.0  0.50943  0.18239  0.23962  1.0000
  H   H861      1.0  0.78136  0.04213  0.40454  1.0000
  C   C488      1.0  0.72588  0.02433  0.38823  1.0000
  H   H862      1.0  0.95882  0.04626  0.42430  1.0000
  H   H863      1.0  0.49803  0.06014  0.14640  1.0000
  H   H864      1.0  0.95392  0.01593  0.05659  1.0000
  H   H865      1.0  0.90226  0.00903  0.15141  1.0000
  C   C489      1.0  0.54104  0.27419  0.06190  1.0000
  H   H866      1.0  0.96341  0.05799  0.13930  1.0000
  H   H867      1.0  0.49599  0.04463  0.01503  1.0000
  C   C490      1.0  0.83692  0.99876  0.47200  1.0000
  H   H868      1.0  0.64772  0.04182  0.46609  1.0000
  H   H869      1.0  0.55117  0.31887  0.09567  1.0000
  C   C491      1.0  0.88042  0.22296  0.24465  1.0000
  C   C492      1.0  0.52969  0.30033  0.07666  1.0000
  H   H870      1.0  0.50416  0.28438  0.09187  1.0000
  H   H871      1.0  0.51523  0.14237  0.18836  1.0000
  C   C493      1.0  0.74603  0.26955  0.01639  1.0000
  H   H872      1.0  0.57785  0.23646  0.44940  1.0000
  C   C494      1.0  0.96963  0.29354  0.37694  1.0000
  H   H873      1.0  0.88378  0.99506  0.24914  1.0000
  C   C495      1.0  0.87780  0.32272  0.16246  1.0000
  H   H874      1.0  0.96509  0.31996  0.19665  1.0000
  S   S108      1.0  0.64194  0.18941  0.00835  1.0000
  H   H875      1.0  0.94284  0.29107  0.07574  1.0000
  C   C496      1.0  0.50829  0.22690  0.21231  1.0000
  H   H876      1.0  0.70689  0.32128  0.02176  1.0000
  H   H877      1.0  0.95816  0.99907  0.39411  1.0000
  C   C497      1.0  0.96899  0.30889  0.08936  1.0000
  N   N27       1.0  0.92128  0.31786  0.25513  1.0000
  H   H878      1.0  0.50043  0.13171  0.34493  1.0000
  C   C498      1.0  0.91841  0.03358  0.00299  1.0000
  C   C499      1.0  0.98133  0.25999  0.33105  1.0000
  H   H879      1.0  0.63074  0.23397  0.47101  1.0000
  H   H880      1.0  0.98462  0.00872  0.18011  1.0000
  C   C500      1.0  0.94639  0.02099  0.99845  1.0000
  H   H881      1.0  0.50909  0.30277  0.02320  1.0000
  H   H882      1.0  0.65170  0.26149  0.01395  1.0000
  Fe  Fe55      1.0  0.58760  0.18289  0.99485  1.0000
  C   C501      1.0  0.95930  0.22319  0.17275  1.0000
  H   H883      1.0  0.97674  0.23463  0.32009  1.0000
  C   C502      1.0  0.98188  0.03044  0.32865  1.0000
  C   C503      1.0  0.48721  0.29533  0.31522  1.0000
  C   C504      1.0  0.48811  0.26312  0.31494  1.0000
  H   H884      1.0  0.95073  0.20232  0.22833  1.0000
  H   H885      1.0  0.49296  0.08983  0.29512  1.0000
  H   H886      1.0  0.90393  0.31530  0.33463  1.0000
  H   H887      1.0  0.48853  0.05315  0.24140  1.0000
  H   H888      1.0  0.96354  0.19942  0.05790  1.0000
  C   C505      1.0  0.92653  0.23343  0.99072  1.0000
  H   H889      1.0  0.90075  0.20888  0.99247  1.0000
  H   H890      1.0  0.48870  0.24887  0.15264  1.0000
  H   H891      1.0  0.48778  0.20852  0.09949  1.0000
  N   N28       1.0  0.98059  0.25791  0.11112  1.0000
  C   C506      1.0  0.49059  0.01811  0.02557  1.0000
  H   H892      1.0  0.98430  0.05995  0.03770  1.0000
  C   C507      1.0  0.93612  0.99159  0.37388  1.0000
  S   S109      1.0  0.54224  0.12538  0.99017  1.0000
  H   H893      1.0  0.93363  0.99158  0.99464  1.0000
  Fe  Fe56      1.0  0.53000  0.14368  0.93683  1.0000
  S   S110      1.0  0.57670  0.19992  0.94046  1.0000
  S   S111      1.0  0.51143  0.11089  0.88302  1.0000
  H   H894      1.0  0.97923  0.00801  0.91014  1.0000
  C   C508      1.0  0.83319  0.06996  0.63706  1.0000
  H   H895      1.0  0.96912  0.10494  0.88546  1.0000
  C   C509      1.0  0.72988  0.17303  0.74483  1.0000
  Fe  Fe57      1.0  0.53968  0.21264  0.97274  1.0000
  Fe  Fe58      1.0  0.59235  0.09816  0.67375  1.0000
  S   S112      1.0  0.64713  0.10623  0.68714  1.0000
  S   S113      1.0  0.55033  0.09239  0.71679  1.0000
  Fe  Fe59      1.0  0.60393  0.09444  0.58897  1.0000
  S   S114      1.0  0.65960  0.10424  0.59822  1.0000
  S   S115      1.0  0.58554  0.09034  0.52896  1.0000
  Fe  Fe60      1.0  0.63533  0.06436  0.64378  1.0000
  S   S116      1.0  0.64286  0.01611  0.63990  1.0000
  Fe  Fe61      1.0  0.66571  0.14525  0.64003  1.0000
  S   S117      1.0  0.71820  0.19827  0.64157  1.0000
  S   S118      1.0  0.57889  0.05288  0.63345  1.0000
  S   S119      1.0  0.61167  0.13908  0.62780  1.0000
  C   C510      1.0  0.71624  0.30231  0.66349  1.0000
  C   C511      1.0  0.68556  0.26882  0.67054  1.0000
  C   C512      1.0  0.68590  0.23668  0.66419  1.0000
  C   C513      1.0  0.71697  0.23792  0.65067  1.0000
  C   C514      1.0  0.74780  0.27138  0.64415  1.0000
  C   C515      1.0  0.74741  0.30347  0.65041  1.0000
  H   H896      1.0  0.66136  0.26772  0.68077  1.0000
  H   H897      1.0  0.66215  0.21099  0.66972  1.0000
  H   H898      1.0  0.77196  0.27250  0.63380  1.0000
  H   H899      1.0  0.73626  0.11063  0.62811  1.0000
  C   C516      1.0  0.89095  0.05347  0.51357  1.0000
  C   C517      1.0  0.73140  0.03941  0.70043  1.0000
  C   C518      1.0  0.70246  0.04139  0.68485  1.0000
  C   C519      1.0  0.68028  0.01575  0.65908  1.0000
  H   H900      1.0  0.67066  0.00948  0.50748  1.0000
  C   C520      1.0  0.58089  0.05819  0.49492  1.0000
  H   H901      1.0  0.74836  0.05908  0.72061  1.0000
  H   H902      1.0  0.69700  0.06235  0.69318  1.0000
  C   C521      1.0  0.54314  0.10097  0.76333  1.0000
  C   C522      1.0  0.57067  0.12122  0.78884  1.0000
  C   C523      1.0  0.56204  0.12574  0.82555  1.0000
  C   C524      1.0  0.52586  0.10927  0.83718  1.0000
  H   H903      1.0  0.81538  0.12877  0.62596  1.0000
  H   H904      1.0  0.70037  0.19101  0.51275  1.0000
  H   H905      1.0  0.59848  0.13335  0.78035  1.0000
  H   H906      1.0  0.58330  0.14125  0.84497  1.0000
  C   C525      1.0  0.95796  0.31183  0.85460  1.0000
  C   C526      1.0  0.60459  0.21946  0.58065  1.0000
  H   H907      1.0  0.72115  0.01379  0.56719  1.0000
  C   C527      1.0  0.95966  0.28526  0.88246  1.0000
  H   H908      1.0  0.60571  0.20666  0.63840  1.0000
  H   H909      1.0  0.72285  0.20998  0.80133  1.0000
  H   H910      1.0  0.95429  0.03510  0.64492  1.0000
  C   C528      1.0  0.64306  0.25246  0.58039  1.0000
  C   C529      1.0  0.87188  0.08522  0.65038  1.0000
  C   C530      1.0  0.76803  0.29000  0.75500  1.0000
  H   H911      1.0  0.63566  0.25046  0.77703  1.0000
  H   H912      1.0  0.96596  0.06163  0.88850  1.0000
  H   H913      1.0  0.56135  0.18797  0.61905  1.0000
  C   C531      1.0  0.79946  0.08404  0.54334  1.0000
  S   S120      1.0  0.49208  0.15761  0.96617  1.0000
  H   H914      1.0  0.80557  0.31490  0.81802  1.0000
  H   H915      1.0  0.71820  0.29683  0.52693  1.0000
  H   H916      1.0  0.64034  0.27563  0.58974  1.0000
  H   H917      1.0  0.76353  0.11140  0.66632  1.0000
  H   H918      1.0  0.58366  0.02109  0.53221  1.0000
  H   H919      1.0  0.53057  0.03335  0.85047  1.0000
  H   H920      1.0  0.65867  0.24860  0.60222  1.0000
  H   H921      1.0  0.79110  0.13245  0.58752  1.0000
  C   C532      1.0  0.74142  0.00779  0.55556  1.0000
  N   N29       1.0  0.66338  0.26112  0.54468  1.0000
  H   H922      1.0  0.50444  0.05581  0.57550  1.0000
  C   C533      1.0  0.68545  0.21560  0.55668  1.0000
  H   H923      1.0  0.96709  0.06570  0.80063  1.0000
  H   H924      1.0  0.98425  0.25218  0.88917  1.0000
  C   C534      1.0  0.87781  0.27980  0.88101  1.0000
  C   C535      1.0  0.98077  0.06023  0.51897  1.0000
  N   N30       1.0  0.79533  0.06703  0.58047  1.0000
  C   C536      1.0  0.57932  0.02584  0.50413  1.0000
  C   C537      1.0  0.96468  0.02159  0.53273  1.0000
  H   H925      1.0  0.56350  0.24435  0.84024  1.0000
  H   H926      1.0  0.67070  0.20643  0.58301  1.0000
  C   C538      1.0  0.72966  0.20842  0.74236  1.0000
  H   H927      1.0  0.95971  0.00580  0.85491  1.0000
  H   H928      1.0  0.76122  0.28043  0.72621  1.0000
  H   H929      1.0  0.81506  0.11387  0.54566  1.0000
  C   C539      1.0  0.74669  0.27734  0.81981  1.0000
  C   C540      1.0  0.77254  0.07657  0.60425  1.0000
  H   H930      1.0  0.87164  0.07709  0.67931  1.0000
  C   C541      1.0  0.49121  0.04936  0.49616  1.0000
  C   C542      1.0  0.58878  0.21201  0.61936  1.0000
  H   H931      1.0  0.76782  0.23384  0.78590  1.0000
  C   C543      1.0  0.96584  0.01439  0.79690  1.0000
  H   H932      1.0  0.91944  0.08656  0.92839  1.0000
  C   C544      1.0  0.76414  0.12309  0.63904  1.0000
  C   C545      1.0  0.50603  0.20749  0.84557  1.0000
  H   H933      1.0  0.93567  0.00725  0.52532  1.0000
  H   H934      1.0  0.79292  0.27027  0.83331  1.0000
  H   H935      1.0  0.93451  0.03410  0.76885  1.0000
  H   H936      1.0  0.50526  0.19513  0.81873  1.0000
  H   H937      1.0  0.54728  0.23713  0.88673  1.0000
  S   S121      1.0  0.85102  0.99366  0.67968  1.0000
  C   C546      1.0  0.53413  0.00835  0.78035  1.0000
  C   C547      1.0  0.70101  0.29217  0.55156  1.0000
  H   H938      1.0  0.81736  0.31501  0.88346  1.0000
  C   C548      1.0  0.98261  0.01674  0.83526  1.0000
  H   H939      1.0  0.91984  0.01490  0.92944  1.0000
  C   C549      1.0  0.64582  0.27284  0.51604  1.0000
  H   H940      1.0  0.70918  0.15447  0.76459  1.0000
  C   C550      1.0  0.98430  0.27156  0.86895  1.0000
  C   C551      1.0  0.66688  0.22990  0.53068  1.0000
  C   C552      1.0  0.78557  0.29159  0.83430  1.0000
  C   C553      1.0  0.49162  0.28961  0.94699  1.0000
  H   H941      1.0  0.91199  0.07492  0.52951  1.0000
  H   H942      1.0  0.76588  0.06160  0.63057  1.0000
  C   C554      1.0  0.54450  0.22385  0.85986  1.0000
  H   H943      1.0  0.95640  0.20578  0.98225  1.0000
  H   H944      1.0  0.71408  0.28587  0.57443  1.0000
  H   H945      1.0  0.70117  0.17494  0.55805  1.0000
  H   H946      1.0  0.77019  0.01459  0.60572  1.0000
  H   H947      1.0  0.68216  0.23754  0.50438  1.0000
  H   H948      1.0  0.90965  0.09554  0.98471  1.0000
  H   H949      1.0  0.84793  0.08538  0.52202  1.0000
  H   H950      1.0  0.88606  0.07454  0.63360  1.0000
  C   C555      1.0  0.58959  0.03025  0.74027  1.0000
  H   H951      1.0  0.77460  0.15237  0.64259  1.0000
  H   H952      1.0  0.72365  0.15988  0.71749  1.0000
  C   C556      1.0  0.86734  0.02051  0.53074  1.0000
  H   H953      1.0  0.85302  0.09460  0.96579  1.0000
  H   H954      1.0  0.58658  0.22475  0.56331  1.0000
  H   H955      1.0  0.84868  0.11058  0.59456  1.0000
  C   C557      1.0  0.50735  0.08539  0.77519  1.0000
  C   C558      1.0  0.49889  0.08896  0.81156  1.0000
  H   H956      1.0  0.97845  0.00941  0.51793  1.0000
  H   H957      1.0  0.92588  0.02740  0.81714  1.0000
  H   H958      1.0  0.70229  0.20181  0.73360  1.0000
  C   C559      1.0  0.90641  0.03077  0.93564  1.0000
  C   C560      1.0  0.93344  0.07081  0.92810  1.0000
  C   C561      1.0  0.81941  0.07438  0.51400  1.0000
  H   H959      1.0  0.83135  0.23015  0.89940  1.0000
  H   H960      1.0  0.51434  0.01647  0.54427  1.0000
  H   H961      1.0  0.69998  0.08896  0.52705  1.0000
  C   C562      1.0  0.95042  0.07586  0.89026  1.0000
  H   H962      1.0  0.63329  0.28731  0.52927  1.0000
  H   H963      1.0  0.88489  0.26537  0.86042  1.0000
  C   C563      1.0  0.94725  0.03681  0.79597  1.0000
  H   H964      1.0  0.66650  0.29271  0.49688  1.0000
  H   H965      1.0  0.79558  0.01802  0.56625  1.0000
  H   H966      1.0  0.51362  0.07624  0.63953  1.0000
  S   S122      1.0  0.53601  0.26229  0.95976  1.0000
  C   C564      1.0  0.78919  0.30423  0.87404  1.0000
  H   H967      1.0  0.92944  0.06573  0.86863  1.0000
  H   H968      1.0  0.85329  0.03887  0.95367  1.0000
  H   H969      1.0  0.95555  0.08189  0.94842  1.0000
  H   H970      1.0  0.65858  0.16057  0.53587  1.0000
  C   C565      1.0  0.86628  0.03816  0.97984  1.0000
  C   C566      1.0  0.78853  0.11715  0.61290  1.0000
  H   H971      1.0  0.74617  0.01639  0.52652  1.0000
  H   H972      1.0  0.84742  0.07059  0.58065  1.0000
  H   H973      1.0  0.81953  0.04030  0.63985  1.0000
  H   H974      1.0  0.97560  0.02230  0.70263  1.0000
  H   H975      1.0  0.68932  0.05213  0.55793  1.0000
  C   C567      1.0  0.94380  0.00649  0.65240  1.0000
  C   C568      1.0  0.55048  0.00083  0.74584  1.0000
  H   H976      1.0  0.65388  0.05315  0.53293  1.0000
  H   H977      1.0  0.63211  0.21657  0.74500  1.0000
  H   H978      1.0  0.86001  0.28820  0.86745  1.0000
  C   C569      1.0  0.95799  0.23161  0.98492  1.0000
  H   H979      1.0  0.74601  0.06759  0.59120  1.0000
  C   C570      1.0  0.85607  0.25306  0.91118  1.0000
  C   C571      1.0  0.74035  0.22879  0.77955  1.0000
  C   C572      1.0  0.94708  0.00535  0.69398  1.0000
  C   C573      1.0  0.77699  0.02657  0.57783  1.0000
  H   H980      1.0  0.50950  0.03896  0.48978  1.0000
  H   H981      1.0  0.97574  0.06003  0.48915  1.0000
  C   C574      1.0  0.70362  0.25808  0.76902  1.0000
  H   H982      1.0  0.53230  0.03281  0.77486  1.0000
  H   H983      1.0  0.88677  0.11506  0.64892  1.0000
  H   H984      1.0  0.60669  0.03006  0.76297  1.0000
  H   H985      1.0  0.96825  0.07409  0.53316  1.0000
  C   C575      1.0  0.67033  0.22817  0.78948  1.0000
  C   C576      1.0  0.63551  0.22462  0.77432  1.0000
  H   H986      1.0  0.80700  0.04492  0.51023  1.0000
  H   H987      1.0  0.72833  0.25570  0.83899  1.0000
  C   C577      1.0  0.83228  0.08077  0.59670  1.0000
  H   H988      1.0  0.74900  0.22470  0.72055  1.0000
  H   H989      1.0  0.70279  0.28340  0.77259  1.0000
  H   H990      1.0  0.69960  0.25236  0.73922  1.0000
  H   H991      1.0  0.77278  0.07771  0.53233  1.0000
  H   H992      1.0  0.81993  0.08020  0.65570  1.0000
  S   S123      1.0  0.87426  0.01460  0.57791  1.0000
  H   H993      1.0  0.71375  0.23640  0.56231  1.0000
  H   H994      1.0  0.96402  0.03438  0.97446  1.0000
  H   H995      1.0  0.88512  0.02252  0.91447  1.0000
  H   H996      1.0  0.73995  0.29904  0.82349  1.0000
  H   H997      1.0  0.66833  0.20155  0.78639  1.0000
  H   H998      1.0  0.64023  0.20637  0.52404  1.0000
  H   H999      1.0  0.61212  0.20365  0.78986  1.0000
  H   H1000     1.0  0.50025  0.99297  0.60737  1.0000
  H   H1001     1.0  0.79440  0.29173  0.76021  1.0000
  H   H1002     1.0  0.48901  0.01375  0.73231  1.0000
  H   H1003     1.0  0.87212  0.24229  0.92416  1.0000
  H   H1004     1.0  0.58688  0.23532  0.62976  1.0000
  C   C578      1.0  0.68634  0.18357  0.53962  1.0000
  H   H1005     1.0  0.55196  0.20266  0.86284  1.0000
  H   H1006     1.0  0.59990  0.02560  0.71411  1.0000
  C   C579      1.0  0.50614  0.00716  0.85678  1.0000
  C   C580      1.0  0.73849  0.01211  0.68996  1.0000
  H   H1007     1.0  0.93247  0.26150  0.88658  1.0000
  C   C581      1.0  0.61727  0.24330  0.49057  1.0000
  H   H1008     1.0  0.60424  0.19480  0.57105  1.0000
  H   H1009     1.0  0.67162  0.23447  0.81912  1.0000
  C   C582      1.0  0.68233  0.05956  0.53130  1.0000
  N   N31       1.0  0.73968  0.26357  0.78086  1.0000
  C   C583      1.0  0.48665  0.99374  0.54959  1.0000
  H   H1010     1.0  0.84789  0.26601  0.93243  1.0000
  H   H1011     1.0  0.59165  0.05703  0.73918  1.0000
  H   H1012     1.0  0.75678  0.17790  0.75338  1.0000
  C   C584      1.0  0.83997  0.99328  0.50975  1.0000
  H   H1013     1.0  0.77111  0.28156  0.89228  1.0000
  H   H1014     1.0  0.55437  0.01656  0.80273  1.0000
  H   H1015     1.0  0.50058  0.22987  0.84114  1.0000
  H   H1016     1.0  0.92183  0.30556  0.92019  1.0000
  H   H1017     1.0  0.96953  0.29751  0.90967  1.0000
  H   H1018     1.0  0.50534  0.07302  0.51449  1.0000
  H   H1019     1.0  0.59697  0.21954  0.50591  1.0000
  H   H1020     1.0  0.50289  0.02806  0.90994  1.0000
  C   C585      1.0  0.68709  0.03839  0.50028  1.0000
  H   H1021     1.0  0.51563  0.31326  0.93721  1.0000
  H   H1022     1.0  0.93088  0.01586  0.70708  1.0000
  H   H1023     1.0  0.95102  0.03067  0.58575  1.0000
  N   N32       1.0  0.89005  0.02191  0.97345  1.0000
  H   H1024     1.0  0.94308  0.29520  0.83040  1.0000
  S   S124      1.0  0.77538  0.01076  0.70926  1.0000
  H   H1025     1.0  0.97483  0.25766  0.84217  1.0000
  C   C586      1.0  0.96866  0.02081  0.57479  1.0000
  C   C587      1.0  0.49375  0.25980  0.95927  1.0000
  H   H1026     1.0  0.90434  0.31693  0.82215  1.0000
  H   H1027     1.0  0.71576  0.04583  0.49976  1.0000
  C   C588      1.0  0.91191  0.31364  0.89601  1.0000
  H   H1028     1.0  0.53521  0.00003  0.72097  1.0000
  H   H1029     1.0  0.48851  0.16099  0.88014  1.0000
  C   C589      1.0  0.96538  0.99124  0.63272  1.0000
  Fe  Fe62      1.0  0.57760  0.46959  0.29219  1.0000
  Fe  Fe63      1.0  0.52805  0.38929  0.30510  1.0000
  H   H1030     1.0  0.64124  0.52087  0.36282  1.0000
  H   H1031     1.0  0.96576  0.53758  0.12118  1.0000
  H   H1032     1.0  0.75277  0.53001  0.39128  1.0000
  C   C590      1.0  0.88895  0.45816  0.41374  1.0000
  Fe  Fe64      1.0  0.52190  0.44513  0.35312  1.0000
  H   H1033     1.0  0.55293  0.33779  0.03292  1.0000
  S   S125      1.0  0.54328  0.42361  0.25435  1.0000
  S   S126      1.0  0.56698  0.43449  0.34130  1.0000
  C   C591      1.0  0.81401  0.65595  0.43734  1.0000
  N   N33       1.0  0.51098  0.62406  0.46570  1.0000
  C   C592      1.0  0.95941  0.53446  0.17964  1.0000
  Fe  Fe65      1.0  0.91568  0.39184  0.04077  1.0000
  H   H1034     1.0  0.48731  0.48090  0.99316  1.0000
  S   S127      1.0  0.95656  0.60258  0.07444  1.0000
  C   C593      1.0  0.91840  0.51129  0.17868  1.0000
  C   C594      1.0  0.93324  0.42917  0.18768  1.0000
  C   C595      1.0  0.93080  0.42340  0.14940  1.0000
  S   S128      1.0  0.96125  0.42731  0.08070  1.0000
  H   H1035     1.0  0.96384  0.37058  0.23811  1.0000
  H   H1036     1.0  0.54724  0.57583  0.12933  1.0000
  H   H1037     1.0  0.91024  0.42666  0.20248  1.0000
  H   H1038     1.0  0.90623  0.41697  0.13506  1.0000
  C   C596      1.0  0.50780  0.36325  0.02003  1.0000
  C   C597      1.0  0.54358  0.38913  0.00003  1.0000
  H   H1039     1.0  0.55138  0.53093  0.40438  1.0000
  H   H1040     1.0  0.70160  0.45828  0.31009  1.0000
  H   H1041     1.0  0.64542  0.45874  0.29523  1.0000
  Fe  Fe66      1.0  0.90688  0.60412  0.29166  1.0000
  S   S129      1.0  0.85901  0.61147  0.28390  1.0000
  S   S130      1.0  0.95094  0.61803  0.24837  1.0000
  Fe  Fe67      1.0  0.89164  0.58899  0.37607  1.0000
  S   S131      1.0  0.84399  0.59690  0.37287  1.0000
  S   S132      1.0  0.91198  0.58179  0.43198  1.0000
  Fe  Fe68      1.0  0.83020  0.56373  0.32167  1.0000
  S   S133      1.0  0.77499  0.51403  0.31721  1.0000
  H   H1042     1.0  0.50600  0.56394  0.42253  1.0000
  S   S134      1.0  0.87701  0.55371  0.32607  1.0000
  S   S135      1.0  0.92646  0.63879  0.34254  1.0000
  S   S136      1.0  0.53385  0.48237  0.30514  1.0000
  S   S137      1.0  0.63227  0.51750  0.27954  1.0000
  H   H1043     1.0  0.55628  0.61969  0.44685  1.0000
  Fe  Fe69      1.0  0.51082  0.63868  0.00773  1.0000
  N   N34       1.0  0.65598  0.52201  0.42006  1.0000
  C   C598      1.0  0.53636  0.37608  0.08052  1.0000
  C   C599      1.0  0.53594  0.48952  0.44481  1.0000
  H   H1044     1.0  0.94695  0.35255  0.32300  1.0000
  H   H1045     1.0  0.91793  0.51332  0.29590  1.0000
  C   C600      1.0  0.95000  0.61719  0.19943  1.0000
  C   C601      1.0  0.91940  0.59309  0.17955  1.0000
  C   C602      1.0  0.92154  0.58973  0.14119  1.0000
  H   H1046     1.0  0.51151  0.43325  0.10906  1.0000
  C   C603      1.0  0.55179  0.52526  0.43313  1.0000
  C   C604      1.0  0.63477  0.52759  0.39018  1.0000
  H   H1047     1.0  0.89447  0.57593  0.19388  1.0000
  H   H1048     1.0  0.89801  0.57007  0.12638  1.0000
  C   C605      1.0  0.94645  0.40679  0.47266  1.0000
  H   H1049     1.0  0.51217  0.43829  0.17678  1.0000
  C   C606      1.0  0.73566  0.51590  0.30753  1.0000
  C   C607      1.0  0.70254  0.48363  0.30561  1.0000
  C   C608      1.0  0.67068  0.48383  0.29725  1.0000
  C   C609      1.0  0.67169  0.51638  0.29086  1.0000
  C   C610      1.0  0.70473  0.54874  0.29319  1.0000
  C   C611      1.0  0.73664  0.54856  0.30166  1.0000
  H   H1050     1.0  0.70572  0.57402  0.28807  1.0000
  H   H1051     1.0  0.76205  0.57355  0.30299  1.0000
  C   C612      1.0  0.88753  0.54906  0.46668  1.0000
  C   C613      1.0  0.85560  0.51691  0.45924  1.0000
  C   C614      1.0  0.96056  0.34463  0.24821  1.0000
  H   H1052     1.0  0.84415  0.51202  0.43201  1.0000
  C   C615      1.0  0.53808  0.59292  0.37626  1.0000
  C   C616      1.0  0.91766  0.34144  0.31990  1.0000
  H   H1053     1.0  0.60531  0.50889  0.39409  1.0000
  C   C617      1.0  0.96069  0.42787  0.12956  1.0000
  H   H1054     1.0  0.97403  0.42474  0.48337  1.0000
  C   C618      1.0  0.98220  0.63897  0.18011  1.0000
  H   H1055     1.0  0.86253  0.44829  0.42747  1.0000
  H   H1056     1.0  0.76828  0.57644  0.40230  1.0000
  H   H1057     1.0  0.50481  0.36849  0.13067  1.0000
  H   H1058     1.0  0.93385  0.57284  0.99054  1.0000
  H   H1059     1.0  0.64412  0.41768  0.41966  1.0000
  H   H1060     1.0  0.70544  0.57159  0.40795  1.0000
  H   H1061     1.0  0.95674  0.44493  0.42937  1.0000
  H   H1062     1.0  0.49707  0.34410  0.20745  1.0000
  S   S138      1.0  0.87018  0.33649  0.05403  1.0000
  H   H1063     1.0  0.52404  0.56855  0.35877  1.0000
  C   C619      1.0  0.51448  0.52545  0.18773  1.0000
  C   C620      1.0  0.55037  0.52711  0.17751  1.0000
  H   H1064     1.0  0.67902  0.47539  0.38677  1.0000
  C   C621      1.0  0.48776  0.64218  0.14875  1.0000
  C   C622      1.0  0.91959  0.47668  0.44221  1.0000
  H   H1065     1.0  0.91204  0.40931  0.43098  1.0000
  C   C623      1.0  0.56490  0.51572  0.20991  1.0000
  H   H1066     1.0  0.89428  0.35464  0.21116  1.0000
  H   H1067     1.0  0.61190  0.46767  0.42768  1.0000
  N   N35       1.0  0.92397  0.45263  0.46935  1.0000
  C   C624      1.0  0.96805  0.34207  0.10300  1.0000
  H   H1068     1.0  0.57896  0.58107  0.44939  1.0000
  H   H1069     1.0  0.91379  0.49607  0.45645  1.0000
  H   H1070     1.0  0.91445  0.36353  0.26782  1.0000
  C   C625      1.0  0.64035  0.56622  0.38708  1.0000
  H   H1071     1.0  0.51821  0.53989  0.21414  1.0000
  C   C626      1.0  0.49028  0.63746  0.11085  1.0000
  H   H1072     1.0  0.57152  0.55461  0.16961  1.0000
  H   H1073     1.0  0.54623  0.50862  0.15441  1.0000
  S   S139      1.0  0.96785  0.44869  0.25457  1.0000
  H   H1074     1.0  0.65260  0.47521  0.44732  1.0000
  H   H1075     1.0  0.60285  0.41095  0.39898  1.0000
  H   H1076     1.0  0.95777  0.36305  0.46782  1.0000
  C   C627      1.0  0.48812  0.65485  0.42051  1.0000
  H   H1077     1.0  0.94662  0.33453  0.12382  1.0000
  H   H1078     1.0  0.89310  0.50880  0.39622  1.0000
  H   H1079     1.0  0.90687  0.51622  0.20379  1.0000
  H   H1080     1.0  0.54463  0.48841  0.21942  1.0000
  H   H1081     1.0  0.58959  0.51529  0.20164  1.0000
  H   H1082     1.0  0.57194  0.53495  0.23302  1.0000
  C   C628      1.0  0.64985  0.53659  0.45545  1.0000
  C   C629      1.0  0.64963  0.46433  0.39017  1.0000
  H   H1083     1.0  0.63002  0.57309  0.41182  1.0000
  C   C630      1.0  0.86091  0.39472  0.47773  1.0000
  H   H1084     1.0  0.55503  0.39402  0.17426  1.0000
  H   H1085     1.0  0.90996  0.48231  0.17755  1.0000
  H   H1086     1.0  0.90731  0.51813  0.15456  1.0000
  H   H1087     1.0  0.91706  0.49334  0.36776  1.0000
  H   H1088     1.0  0.51292  0.58688  0.12774  1.0000
  S   S140      1.0  0.51272  0.45259  0.41391  1.0000
  C   C631      1.0  0.56071  0.39915  0.14450  1.0000
  H   H1089     1.0  0.94228  0.49003  0.30657  1.0000
  H   H1090     1.0  0.63908  0.46901  0.36452  1.0000
  C   C632      1.0  0.98134  0.55971  0.33383  1.0000
  H   H1091     1.0  0.97479  0.56617  0.27443  1.0000
  N   N36       1.0  0.51096  0.34623  0.05502  1.0000
  H   H1092     1.0  0.62167  0.53139  0.45655  1.0000
  H   H1093     1.0  0.86505  0.62344  0.45357  1.0000
  H   H1094     1.0  0.63770  0.41177  0.37079  1.0000
  H   H1095     1.0  0.53469  0.40084  0.07567  1.0000
  H   H1096     1.0  0.62074  0.59570  0.35551  1.0000
  H   H1097     1.0  0.71104  0.50944  0.44289  1.0000
  C   C633      1.0  0.94178  0.51084  0.28893  1.0000
  N   N37       1.0  0.49881  0.53888  0.15904  1.0000
  H   H1098     1.0  0.55656  0.37422  0.98930  1.0000
  H   H1099     1.0  0.49115  0.34236  0.99960  1.0000
  C   C634      1.0  0.63246  0.42370  0.39540  1.0000
  H   H1100     1.0  0.52424  0.60988  0.19102  1.0000
  H   H1101     1.0  0.59199  0.54749  0.35344  1.0000
  H   H1102     1.0  0.97604  0.35191  0.27426  1.0000
  H   H1103     1.0  0.88924  0.43548  0.39967  1.0000
  H   H1104     1.0  0.96640  0.56286  0.18247  1.0000
  H   H1105     1.0  0.93039  0.35467  0.18587  1.0000
  C   C635      1.0  0.52593  0.57629  0.14635  1.0000
  H   H1106     1.0  0.56336  0.42564  0.13799  1.0000
  C   C636      1.0  0.90738  0.36664  0.33914  1.0000
  C   C637      1.0  0.96527  0.43878  0.20680  1.0000
  C   C638      1.0  0.97664  0.52922  0.14446  1.0000
  Fe  Fe70      1.0  0.49852  0.43330  0.27055  1.0000
  C   C639      1.0  0.53617  0.48275  0.48258  1.0000
  H   H1107     1.0  0.86873  0.47165  0.36529  1.0000
  H   H1108     1.0  0.72784  0.55497  0.45850  1.0000
  H   H1109     1.0  0.95511  0.55632  0.34343  1.0000
  H   H1110     1.0  0.55745  0.59659  0.19767  1.0000
  C   C640      1.0  0.86974  0.64048  0.47831  1.0000
  H   H1111     1.0  0.92927  0.48818  0.01427  1.0000
  H   H1112     1.0  0.66748  0.56640  0.45644  1.0000
  C   C641      1.0  0.90240  0.33753  0.19592  1.0000
  Fe  Fe71      1.0  0.87766  0.64408  0.33585  1.0000
  C   C642      1.0  0.48754  0.51392  0.12647  1.0000
  C   C643      1.0  0.88667  0.49523  0.03394  1.0000
  C   C644      1.0  0.89261  0.49096  0.07448  1.0000
  C   C645      1.0  0.69514  0.54219  0.40898  1.0000
  C   C646      1.0  0.89224  0.48471  0.38402  1.0000
  S   S141      1.0  0.52614  0.33564  0.30197  1.0000
  C   C647      1.0  0.53359  0.62189  0.43526  1.0000
  H   H1113     1.0  0.80323  0.62701  0.44282  1.0000
  C   C648      1.0  0.92219  0.50966  0.01214  1.0000
  H   H1114     1.0  0.94355  0.53326  0.02741  1.0000
  H   H1115     1.0  0.56480  0.38388  0.07442  1.0000
  S   S142      1.0  0.88120  0.40694  0.00714  1.0000
  H   H1116     1.0  0.54661  0.64727  0.41909  1.0000
  H   H1117     1.0  0.66913  0.58676  0.38379  1.0000
  Fe  Fe72      1.0  0.83678  0.34989  0.01661  1.0000
  C   C649      1.0  0.48657  0.42479  0.12354  1.0000
  H   H1118     1.0  0.93892  0.50161  0.26012  1.0000
  C   C650      1.0  0.51385  0.58974  0.40843  1.0000
  C   C651      1.0  0.62040  0.56972  0.35412  1.0000
  H   H1119     1.0  0.87778  0.35542  0.33807  1.0000
  H   H1120     1.0  0.87558  0.51356  0.03242  1.0000
  C   C652      1.0  0.94780  0.37736  0.45034  1.0000
  H   H1121     1.0  0.90421  0.47311  0.07807  1.0000
  H   H1122     1.0  0.91097  0.51770  0.08672  1.0000
  H   H1123     1.0  0.86651  0.47891  0.08930  1.0000
  C   C653      1.0  0.64162  0.48200  0.42314  1.0000
  H   H1124     1.0  0.96582  0.49977  0.14103  1.0000
  C   C654      1.0  0.95393  0.61101  0.12200  1.0000
  C   C655      1.0  0.53009  0.36918  0.12245  1.0000
  C   C656      1.0  0.56684  0.55364  0.45886  1.0000
  H   H1125     1.0  0.58660  0.40020  0.13853  1.0000
  H   H1126     1.0  0.49700  0.64747  0.39501  1.0000
  H   H1127     1.0  0.49518  0.49685  0.19423  1.0000
  H   H1128     1.0  0.98453  0.55089  0.40785  1.0000
  H   H1129     1.0  0.69824  0.53507  0.38032  1.0000
  H   H1130     1.0  0.63394  0.56941  0.32836  1.0000
  S   S143      1.0  0.78187  0.34320  0.02682  1.0000
  C   C657      1.0  0.72168  0.53759  0.43393  1.0000
  H   H1131     1.0  0.92106  0.39361  0.32598  1.0000
  H   H1132     1.0  0.92058  0.35746  0.44014  1.0000
  H   H1133     1.0  0.91585  0.36986  0.36828  1.0000
  H   H1134     1.0  0.80329  0.64570  0.37878  1.0000
  C   C658      1.0  0.54428  0.60495  0.17691  1.0000
  H   H1135     1.0  0.52772  0.34334  0.13079  1.0000
  H   H1136     1.0  0.56286  0.41086  0.01835  1.0000
  H   H1137     1.0  0.51150  0.51515  0.11329  1.0000
  H   H1138     1.0  0.56356  0.59513  0.38616  1.0000
  C   C659      1.0  0.93427  0.42863  0.44873  1.0000
  H   H1139     1.0  0.96231  0.35504  0.07966  1.0000
  C   C660      1.0  0.75710  0.54904  0.41397  1.0000
  H   H1140     1.0  0.94533  0.49307  0.42713  1.0000
  H   H1141     1.0  0.97572  0.61632  0.32354  1.0000
  S   S144      1.0  0.93290  0.37419  0.99006  1.0000
  C   C661      1.0  0.90641  0.33633  0.27889  1.0000
  H   H1142     1.0  0.82476  0.56610  0.48323  1.0000
  H   H1143     1.0  0.59528  0.63760  0.14840  1.0000
  C   C662      1.0  0.57338  0.64072  0.16090  1.0000
  H   H1144     1.0  0.77703  0.54887  0.43320  1.0000
  H   H1145     1.0  0.85442  0.39567  0.44863  1.0000
  H   H1146     1.0  0.98306  0.60444  0.38818  1.0000
  H   H1147     1.0  0.49355  0.37838  0.02549  1.0000
  H   H1148     1.0  0.86643  0.46824  0.02361  1.0000
  H   H1149     1.0  0.81560  0.46480  0.47991  1.0000
  H   H1150     1.0  0.54436  0.61685  0.35932  1.0000
  C   C663      1.0  0.97650  0.54702  0.29345  1.0000
  H   H1151     1.0  0.96648  0.38932  0.42671  1.0000
  H   H1152     1.0  0.98052  0.49133  0.47803  1.0000
  H   H1153     1.0  0.88139  0.34531  0.14476  1.0000
  C   C664      1.0  0.98399  0.63640  0.14165  1.0000
  H   H1154     1.0  0.56193  0.65059  0.13967  1.0000
  H   H1155     1.0  0.96864  0.52687  0.20461  1.0000
  H   H1156     1.0  0.86986  0.37466  0.48023  1.0000
  H   H1157     1.0  0.76688  0.64410  0.40492  1.0000
  C   C665      1.0  0.83926  0.49019  0.48662  1.0000
  H   H1158     1.0  0.51533  0.65413  0.09654  1.0000
  C   C666      1.0  0.98080  0.33275  0.22171  1.0000
  H   H1159     1.0  0.48967  0.51928  0.28979  1.0000
  H   H1160     1.0  0.48934  0.58831  0.39696  1.0000
  C   C667      1.0  0.48707  0.42798  0.16206  1.0000
  H   H1161     1.0  0.98549  0.53972  0.34916  1.0000
  H   H1162     1.0  0.92829  0.39422  0.49643  1.0000
  H   H1163     1.0  0.49346  0.46390  0.65657  1.0000
  C   C668      1.0  0.83062  0.44462  0.93102  1.0000
  Fe  Fe73      1.0  0.89382  0.38410  0.95750  1.0000
  S   S145      1.0  0.91033  0.41129  0.90079  1.0000
  H   H1164     1.0  0.56920  0.47900  0.84787  1.0000
  Fe  Fe74      1.0  0.82266  0.45339  0.61515  1.0000
  S   S146      1.0  0.76628  0.44032  0.62910  1.0000
  S   S147      1.0  0.83615  0.45851  0.55347  1.0000
  Fe  Fe75      1.0  0.83854  0.44492  0.69754  1.0000
  S   S148      1.0  0.78373  0.43299  0.71567  1.0000
  S   S149      1.0  0.88131  0.44716  0.73739  1.0000
  Fe  Fe76      1.0  0.76416  0.39720  0.66583  1.0000
  S   S150      1.0  0.71427  0.34188  0.67068  1.0000
  Fe  Fe77      1.0  0.79128  0.47710  0.67707  1.0000
  S   S151      1.0  0.81865  0.40720  0.64894  1.0000
  H   H1165     1.0  0.65126  0.45900  0.66881  1.0000
  H   H1166     1.0  0.71014  0.46227  0.67848  1.0000
  C   C669      1.0  0.89859  0.41914  0.85597  1.0000
  C   C670      1.0  0.86329  0.40826  0.84424  1.0000
  C   C671      1.0  0.85688  0.41655  0.80814  1.0000
  C   C672      1.0  0.88567  0.43517  0.78342  1.0000
  C   C673      1.0  0.92049  0.44525  0.79536  1.0000
  C   C674      1.0  0.92685  0.43755  0.83105  1.0000
  H   H1167     1.0  0.84107  0.39392  0.86302  1.0000
  H   H1168     1.0  0.82981  0.40862  0.79954  1.0000
  H   H1169     1.0  0.95418  0.44628  0.83946  1.0000
  H   H1170     1.0  0.62412  0.53993  0.84004  1.0000
  H   H1171     1.0  0.89659  0.53291  0.55711  1.0000
  C   C675      1.0  0.58407  0.61517  0.77710  1.0000
  S   S152      1.0  0.56214  0.62211  0.88424  1.0000
  H   H1172     1.0  0.55858  0.54232  0.87011  1.0000
  S   S153      1.0  0.78213  0.52342  0.69073  1.0000
  S   S154      1.0  0.84810  0.49226  0.66192  1.0000
  Fe  Fe78      1.0  0.58645  0.60095  0.67007  1.0000
  S   S155      1.0  0.63934  0.60824  0.68826  1.0000
  C   C676      1.0  0.50364  0.49498  0.96865  1.0000
  Fe  Fe79      1.0  0.60063  0.59025  0.58823  1.0000
  S   S156      1.0  0.65552  0.59872  0.60189  1.0000
  S   S157      1.0  0.58276  0.58395  0.52783  1.0000
  Fe  Fe80      1.0  0.62790  0.56280  0.65003  1.0000
  S   S158      1.0  0.63081  0.51315  0.66473  1.0000
  H   H1173     1.0  0.80904  0.38087  0.73157  1.0000
  S   S159      1.0  0.57257  0.55232  0.63510  1.0000
  S   S160      1.0  0.60903  0.63843  0.62165  1.0000
  C   C677      1.0  0.74015  0.52010  0.68127  1.0000
  C   C678      1.0  0.73797  0.55161  0.67938  1.0000
  C   C679      1.0  0.70478  0.54986  0.67302  1.0000
  C   C680      1.0  0.67335  0.51647  0.66950  1.0000
  C   C681      1.0  0.67547  0.48493  0.67147  1.0000
  C   C682      1.0  0.70880  0.48672  0.67693  1.0000
  H   H1174     1.0  0.76209  0.57752  0.68275  1.0000
  H   H1175     1.0  0.70346  0.57432  0.67150  1.0000
  C   C683      1.0  0.55587  0.61554  0.75830  1.0000
  Fe  Fe81      1.0  0.54900  0.64897  0.93158  1.0000
  H   H1176     1.0  0.81325  0.61710  0.49799  1.0000
  C   C684      1.0  0.56191  0.62479  0.83559  1.0000
  H   H1177     1.0  0.48811  0.51509  0.66497  1.0000
  H   H1178     1.0  0.97072  0.58373  0.82163  1.0000
  H   H1179     1.0  0.96136  0.54261  0.92931  1.0000
  H   H1180     1.0  0.50172  0.47446  0.94882  1.0000
  N   N38       1.0  0.94133  0.33359  0.86804  1.0000
  C   C685      1.0  0.53188  0.62246  0.77819  1.0000
  H   H1181     1.0  0.94301  0.45955  0.77686  1.0000
  C   C686      1.0  0.64063  0.55162  0.76640  1.0000
  H   H1182     1.0  0.92659  0.57918  0.50854  1.0000
  C   C687      1.0  0.96975  0.36900  0.88401  1.0000
  C   C688      1.0  0.77345  0.32851  0.75493  1.0000
  C   C689      1.0  0.90182  0.55462  0.50237  1.0000
  C   C690      1.0  0.85355  0.49569  0.52232  1.0000
  C   C691      1.0  0.88466  0.52847  0.53015  1.0000
  H   H1183     1.0  0.53394  0.50064  0.70123  1.0000
  H   H1184     1.0  0.90781  0.60977  0.95314  1.0000
  C   C692      1.0  0.95971  0.54232  0.65536  1.0000
  C   C693      1.0  0.64416  0.45078  0.77166  1.0000
  S   S161      1.0  0.54840  0.60572  0.71060  1.0000
  C   C694      1.0  0.61976  0.49084  0.79296  1.0000
  C   C695      1.0  0.49744  0.43333  0.61138  1.0000
  H   H1185     1.0  0.51424  0.52355  0.72494  1.0000
  H   H1186     1.0  0.83106  0.37920  0.52931  1.0000
  C   C696      1.0  0.67664  0.57032  0.78793  1.0000
  H   H1187     1.0  0.90539  0.60402  0.90411  1.0000
  H   H1188     1.0  0.92504  0.49238  0.53191  1.0000
  C   C697      1.0  0.95510  0.47675  0.49417  1.0000
  H   H1189     1.0  0.74484  0.38434  0.57145  1.0000
  H   H1190     1.0  0.92802  0.62613  0.72696  1.0000
  C   C698      1.0  0.97145  0.50424  0.95594  1.0000
  C   C699      1.0  0.53465  0.44181  0.62474  1.0000
  C   C700      1.0  0.58667  0.61917  0.81552  1.0000
  H   H1191     1.0  0.97684  0.54359  0.56064  1.0000
  H   H1192     1.0  0.53219  0.51191  0.97713  1.0000
  H   H1193     1.0  0.71365  0.58285  0.74229  1.0000
  Fe  Fe82      1.0  0.66164  0.64377  0.63861  1.0000
  H   H1194     1.0  0.85482  0.50199  0.93098  1.0000
  H   H1195     1.0  0.95970  0.46042  0.51476  1.0000
  C   C701      1.0  0.89500  0.48821  0.95011  1.0000
  C   C702      1.0  0.91520  0.55121  0.97142  1.0000
  H   H1196     1.0  0.53518  0.44025  0.65510  1.0000
  H   H1197     1.0  0.54147  0.42210  0.61303  1.0000
  H   H1198     1.0  0.55560  0.46919  0.61585  1.0000
  H   H1199     1.0  0.61824  0.47098  0.73677  1.0000
  H   H1200     1.0  0.74992  0.32836  0.74210  1.0000
  H   H1201     1.0  0.97679  0.52722  0.82936  1.0000
  H   H1202     1.0  0.96030  0.61593  0.77965  1.0000
  H   H1203     1.0  0.49846  0.43426  0.58101  1.0000
  H   H1204     1.0  0.80596  0.35330  0.48999  1.0000
  H   H1205     1.0  0.90287  0.33184  0.90760  1.0000
  H   H1206     1.0  0.60313  0.61059  0.76222  1.0000
  C   C703      1.0  0.57806  0.50343  0.75928  1.0000
  N   N39       1.0  0.92187  0.51991  0.97263  1.0000
  C   C704      1.0  0.56084  0.52705  0.75162  1.0000
  H   H1207     1.0  0.89380  0.46321  0.95995  1.0000
  H   H1208     1.0  0.65680  0.53057  0.55065  1.0000
  C   C705      1.0  0.52690  0.50667  0.72854  1.0000
  C   C706      1.0  0.53663  0.40698  0.96728  1.0000
  H   H1209     1.0  0.81465  0.39863  0.49592  1.0000
  S   S162      1.0  0.98441  0.65475  0.97931  1.0000
  C   C707      1.0  0.80684  0.35407  0.73288  1.0000
  H   H1210     1.0  0.55662  0.47681  0.76955  1.0000
  H   H1211     1.0  0.58577  0.49766  0.73208  1.0000
  C   C708      1.0  0.82606  0.38064  0.49965  1.0000
  C   C709      1.0  0.70751  0.59726  0.76379  1.0000
  H   H1212     1.0  0.57970  0.55147  0.73606  1.0000
  H   H1213     1.0  0.55306  0.53542  0.77713  1.0000
  H   H1214     1.0  0.59925  0.55587  0.81613  1.0000
  C   C710      1.0  0.55145  0.51120  0.50833  1.0000
  H   H1215     1.0  0.70053  0.61613  0.75042  1.0000
  H   H1216     1.0  0.89733  0.42673  0.52030  1.0000
  H   H1217     1.0  0.80300  0.44055  0.92913  1.0000
  H   H1218     1.0  0.75687  0.36220  0.53723  1.0000
  H   H1219     1.0  0.94899  0.38618  0.75124  1.0000
  H   H1220     1.0  0.51000  0.62291  0.76398  1.0000
  H   H1221     1.0  0.90418  0.49086  0.92109  1.0000
  H   H1222     1.0  0.81138  0.48913  0.78483  1.0000
  C   C711      1.0  0.96053  0.60508  0.75201  1.0000
  H   H1223     1.0  0.60749  0.61700  0.82994  1.0000
  H   H1224     1.0  0.94813  0.55514  0.63786  1.0000
  H   H1225     1.0  0.80861  0.56485  0.52912  1.0000
  H   H1226     1.0  0.55142  0.63509  0.53310  1.0000
  H   H1227     1.0  0.83156  0.35727  0.74612  1.0000
  C   C712      1.0  0.98122  0.52421  0.54447  1.0000
  C   C713      1.0  0.49041  0.51861  0.95116  1.0000
  H   H1228     1.0  0.86994  0.57088  0.93264  1.0000
  H   H1229     1.0  0.94868  0.58825  0.92804  1.0000
  H   H1230     1.0  0.82949  0.42264  0.94808  1.0000
  H   H1231     1.0  0.94096  0.51276  0.65590  1.0000
  H   H1232     1.0  0.66261  0.50399  0.75195  1.0000
  H   H1233     1.0  0.63853  0.49876  0.81665  1.0000
  H   H1234     1.0  0.96213  0.54178  0.86846  1.0000
  C   C714      1.0  0.56105  0.51825  0.87591  1.0000
  C   C715      1.0  0.95920  0.53271  0.95766  1.0000
  C   C716      1.0  0.48754  0.46099  0.62673  1.0000
  C   C717      1.0  0.56634  0.54691  0.49666  1.0000
  H   H1235     1.0  0.61884  0.42602  0.77945  1.0000
  C   C718      1.0  0.95056  0.36672  0.80574  1.0000
  C   C719      1.0  0.83876  0.61860  0.50602  1.0000
  H   H1236     1.0  0.67430  0.58521  0.81168  1.0000
  H   H1237     1.0  0.67849  0.57089  0.52330  1.0000
  H   H1238     1.0  0.84498  0.48203  0.97540  1.0000
  H   H1239     1.0  0.54260  0.49378  0.82343  1.0000
  C   C720      1.0  0.56700  0.50288  0.84053  1.0000
  H   H1240     1.0  0.66342  0.45955  0.79490  1.0000
  H   H1241     1.0  0.97611  0.49707  0.98373  1.0000
  H   H1242     1.0  0.65634  0.44431  0.74808  1.0000
  H   H1243     1.0  0.95751  0.38558  0.89168  1.0000
  C   C721      1.0  0.96637  0.55772  0.69419  1.0000
  H   H1244     1.0  0.68435  0.55091  0.79830  1.0000
  H   H1245     1.0  0.59548  0.46551  0.80189  1.0000
  C   C722      1.0  0.63658  0.48066  0.76071  1.0000
  H   H1246     1.0  0.73208  0.61298  0.78064  1.0000
  H   H1247     1.0  0.97217  0.35080  0.93959  1.0000
  H   H1248     1.0  0.63340  0.57275  0.76168  1.0000
  H   H1249     1.0  0.58370  0.52587  0.89526  1.0000
  H   H1250     1.0  0.82264  0.52922  0.75925  1.0000
  H   H1251     1.0  0.75809  0.35248  0.58535  1.0000
  C   C723      1.0  0.70403  0.32865  0.56217  1.0000
  H   H1252     1.0  0.83601  0.53246  0.80679  1.0000
  C   C724      1.0  0.91971  0.56891  0.93317  1.0000
  H   H1253     1.0  0.53578  0.49764  0.88921  1.0000
  H   H1254     1.0  0.69194  0.32685  0.58953  1.0000
  C   C725      1.0  0.85589  0.48128  0.94821  1.0000
  N   N40       1.0  0.93362  0.56539  0.75043  1.0000
  C   C726      1.0  0.89719  0.55958  0.76160  1.0000
  N   N41       1.0  0.60999  0.51936  0.78480  1.0000
  C   C727      1.0  0.93064  0.55065  0.71227  1.0000
  C   C728      1.0  0.94611  0.54621  0.77583  1.0000
  C   C729      1.0  0.94807  0.55602  0.81695  1.0000
  C   C730      1.0  0.86753  0.52001  0.76881  1.0000
  C   C731      1.0  0.53507  0.62744  0.81655  1.0000
  H   H1255     1.0  0.77693  0.33986  0.78286  1.0000
  C   C732      1.0  0.83154  0.58015  0.51009  1.0000
  H   H1256     1.0  0.62989  0.54478  0.52581  1.0000
  C   C733      1.0  0.83232  0.51774  0.78067  1.0000
  H   H1257     1.0  0.77114  0.32906  0.64476  1.0000
  H   H1258     1.0  0.88632  0.56977  0.73994  1.0000
  H   H1259     1.0  0.89940  0.57568  0.78637  1.0000
  H   H1260     1.0  0.90950  0.37416  0.77841  1.0000
  H   H1261     1.0  0.69046  0.33718  0.54206  1.0000
  H   H1262     1.0  0.91740  0.56095  0.69354  1.0000
  H   H1263     1.0  0.91264  0.52098  0.71240  1.0000
  H   H1264     1.0  0.92917  0.51655  0.77262  1.0000
  C   C734      1.0  0.60145  0.53138  0.82039  1.0000
  H   H1265     1.0  0.92304  0.55465  0.82692  1.0000
  H   H1266     1.0  0.87770  0.44860  0.49703  1.0000
  H   H1267     1.0  0.86192  0.50370  0.74362  1.0000
  H   H1268     1.0  0.87534  0.50747  0.79081  1.0000
  H   H1269     1.0  0.97377  0.55236  0.76838  1.0000
  C   C735      1.0  0.89943  0.58963  0.93073  1.0000
  H   H1270     1.0  0.64559  0.54454  0.73848  1.0000
  C   C736      1.0  0.65492  0.54321  0.52482  1.0000
  H   H1271     1.0  0.91004  0.54873  0.91079  1.0000
  H   H1272     1.0  0.98202  0.50459  0.56369  1.0000
  H   H1273     1.0  0.51549  0.63124  0.83158  1.0000
  C   C737      1.0  0.95455  0.53054  0.84055  1.0000
  C   C738      1.0  0.56359  0.65665  0.51215  1.0000
  H   H1274     1.0  0.51891  0.58602  0.49757  1.0000
  H   H1275     1.0  0.55095  0.50543  0.53723  1.0000
  H   H1276     1.0  0.84627  0.63135  0.53354  1.0000
  H   H1277     1.0  0.96584  0.39501  0.81551  1.0000
  H   H1278     1.0  0.52417  0.42296  0.97642  1.0000
  H   H1279     1.0  0.83987  0.44304  0.90301  1.0000
  C   C739      1.0  0.95085  0.50516  0.51661  1.0000
  H   H1280     1.0  0.67941  0.51947  0.49278  1.0000
  H   H1281     1.0  0.88798  0.54334  0.98181  1.0000
  H   H1282     1.0  0.50722  0.48121  0.74220  1.0000
  H   H1283     1.0  0.50755  0.53149  0.92681  1.0000
  C   C740      1.0  0.74341  0.35858  0.56413  1.0000
  H   H1284     1.0  0.92960  0.50391  0.84230  1.0000
  S   S163      1.0  0.84813  0.32785  0.96583  1.0000
  H   H1285     1.0  0.51390  0.55267  0.83870  1.0000
  C   C741      1.0  0.95502  0.62895  0.72393  1.0000
  H   H1286     1.0  0.95115  0.47923  0.94222  1.0000
  H   H1287     1.0  0.97878  0.54466  0.70995  1.0000
  C   C742      1.0  0.89044  0.43190  0.49237  1.0000
  H   H1288     1.0  0.96994  0.35798  0.79779  1.0000
  H   H1289     1.0  0.85554  0.58036  0.52163  1.0000
  H   H1290     1.0  0.49476  0.53991  0.97114  1.0000
  H   H1291     1.0  0.63124  0.49313  0.49587  1.0000
  H   H1292     1.0  0.90920  0.35525  0.84596  1.0000
  C   C743      1.0  0.92997  0.36649  0.77147  1.0000
  H   H1293     1.0  0.64104  0.64970  0.91175  1.0000
  H   H1294     1.0  0.50756  0.48724  0.61446  1.0000
  H   H1295     1.0  0.49052  0.56508  0.62939  1.0000
  H   H1296     1.0  0.56247  0.42533  0.95334  1.0000
  C   C744      1.0  0.92445  0.34212  0.83605  1.0000
  C   C745      1.0  0.65440  0.52083  0.49201  1.0000
  S   S164      1.0  0.50094  0.65297  0.95084  1.0000
  H   H1297     1.0  0.89413  0.64254  0.49154  1.0000
  H   H1298     1.0  0.95193  0.52640  0.49852  1.0000
  H   H1299     1.0  0.51849  0.38633  0.94725  1.0000
  H   H1300     1.0  0.95784  0.62171  0.69543  1.0000
  H   H1301     1.0  0.97965  0.55624  0.97362  1.0000
  H   H1302     1.0  0.80508  0.34407  0.70449  1.0000
  H   H1303     1.0  0.91634  0.33940  0.75862  1.0000
  H   H1304     1.0  0.49135  0.55989  0.55809  1.0000
  H   H1305     1.0  0.52397  0.45524  0.49204  1.0000
  S   S165      1.0  0.55431  0.62873  0.98691  1.0000
  H   H1306     1.0  0.98575  0.33015  0.84432  1.0000
  H   H1307     1.0  0.78251  0.32601  0.87654  1.0000
  H   H1308     1.0  0.58247  0.65209  0.49537  1.0000
  H   H1309     1.0  0.48885  0.61392  0.54003  1.0000
  C   C746      1.0  0.53427  0.65753  0.48793  1.0000
  C   C747      1.0  0.49669  0.59063  0.48887  1.0000
  C   C748      1.0  0.48648  0.53448  0.82807  1.0000
  H   H1310     1.0  0.48829  0.51678  0.80706  1.0000
  H   H1311     1.0  0.98558  0.54757  0.64305  1.0000
  S   S166      1.0  0.87915  0.69749  0.34237  1.0000
  Fe  Fe83      1.0  0.59516  0.96214  0.27860  1.0000
  Fe  Fe84      1.0  0.53524  0.88791  0.30124  1.0000
  S   S167      1.0  0.64922  0.97912  0.25349  1.0000
  H   H1312     1.0  0.91218  0.98727  0.39007  1.0000
  Fe  Fe85      1.0  0.51683  0.94172  0.26855  1.0000
  H   H1313     1.0  0.90359  0.76574  0.19803  1.0000
  H   H1314     1.0  0.93860  0.78579  0.12989  1.0000
  C   C749      1.0  0.95067  0.82797  0.17092  1.0000
  S   S168      1.0  0.54906  0.91769  0.24817  1.0000
  S   S169      1.0  0.58344  0.93073  0.33030  1.0000
  H   H1315     1.0  0.62844  0.84610  0.27695  1.0000
  H   H1316     1.0  0.86067  0.66071  0.41150  1.0000
  C   C750      1.0  0.71646  0.74136  0.03539  1.0000
  Fe  Fe86      1.0  0.92080  0.89495  0.03345  1.0000
  S   S170      1.0  0.96538  0.92528  0.07598  1.0000
  S   S171      1.0  0.87622  0.83756  0.03978  1.0000
  S   S172      1.0  0.54951  0.69514  0.02514  1.0000
  H   H1317     1.0  0.56620  0.74979  0.20732  1.0000
  H   H1318     1.0  0.95195  0.82933  0.34795  1.0000
  H   H1319     1.0  0.70140  0.82809  0.18188  1.0000
  H   H1320     1.0  0.54381  0.80122  0.17347  1.0000
  H   H1321     1.0  0.92306  0.76228  0.26471  1.0000
  H   H1322     1.0  0.60778  0.95119  0.13386  1.0000
  H   H1323     1.0  0.91828  0.68315  0.40203  1.0000
  H   H1324     1.0  0.56927  0.97398  0.48506  1.0000
  C   C751      1.0  0.95696  0.83566  0.10170  1.0000
  C   C752      1.0  0.95250  0.80458  0.34500  1.0000
  H   H1325     1.0  0.69016  0.84827  0.14475  1.0000
  N   N42       1.0  0.87653  0.67744  0.46733  1.0000
  H   H1326     1.0  0.71755  0.71741  0.04218  1.0000
  C   C753      1.0  0.93056  0.92185  0.18113  1.0000
  C   C754      1.0  0.93074  0.91865  0.14262  1.0000
  C   C755      1.0  0.92012  0.77124  0.34525  1.0000
  H   H1327     1.0  0.90178  0.94217  0.34245  1.0000
  C   C756      1.0  0.68197  0.76958  0.01841  1.0000
  H   H1328     1.0  0.90689  0.91919  0.19461  1.0000
  H   H1329     1.0  0.90742  0.91375  0.12678  1.0000
  C   C757      1.0  0.74833  0.77502  0.03512  1.0000
  H   H1330     1.0  0.51254  0.91815  0.11205  1.0000
  C   C758      1.0  0.98578  0.77329  0.33798  1.0000
  C   C759      1.0  0.92042  0.73883  0.34160  1.0000
  C   C760      1.0  0.91609  0.70062  0.45826  1.0000
  H   H1331     1.0  0.90858  0.84334  0.21805  1.0000
  H   H1332     1.0  0.85666  0.97339  0.00471  1.0000
  S   S173      1.0  0.88424  0.91314  0.01020  1.0000
  C   C761      1.0  0.95341  0.74005  0.33760  1.0000
  S   S174      1.0  0.49956  0.90879  0.32068  1.0000
  H   H1333     1.0  0.61597  0.90268  0.39659  1.0000
  H   H1334     1.0  0.93261  0.70606  0.48354  1.0000
  H   H1335     1.0  0.58950  0.90659  0.11507  1.0000
  H   H1336     1.0  0.86062  0.73462  0.46748  1.0000
  H   H1337     1.0  0.76520  0.72469  0.99014  1.0000
  S   S175      1.0  0.52948  0.83300  0.29629  1.0000
  C   C762      1.0  0.53693  0.76141  0.06922  1.0000
  H   H1338     1.0  0.59879  0.81050  0.23243  1.0000
  C   C763      1.0  0.91097  0.82595  0.23908  1.0000
  C   C764      1.0  0.98551  0.80570  0.34166  1.0000
  H   H1339     1.0  0.93050  0.83444  0.10059  1.0000
  S   S176      1.0  0.64423  0.69571  0.02622  1.0000
  H   H1340     1.0  0.65955  0.96611  0.38360  1.0000
  H   H1341     1.0  0.63743  0.80984  0.18472  1.0000
  C   C765      1.0  0.97165  0.71024  0.42366  1.0000
  H   H1342     1.0  0.93921  0.75987  0.18277  1.0000
  H   H1343     1.0  0.95410  0.71544  0.33432  1.0000
  C   C766      1.0  0.56501  0.79604  0.18415  1.0000
  H   H1344     1.0  0.54842  0.76651  0.04112  1.0000
  H   H1345     1.0  0.77379  0.77701  0.04190  1.0000
  H   H1346     1.0  0.66450  0.89112  0.32404  1.0000
  C   C767      1.0  0.65876  0.98715  0.43931  1.0000
  H   H1347     1.0  0.86492  0.70255  0.42189  1.0000
  H   H1348     1.0  0.52635  0.75214  0.21875  1.0000
  Fe  Fe87      1.0  0.54959  0.95511  0.34632  1.0000
  H   H1349     1.0  0.58513  0.66120  0.18298  1.0000
  H   H1350     1.0  0.48871  0.71435  0.05214  1.0000
  C   C768      1.0  0.94909  0.83034  0.23761  1.0000
  H   H1351     1.0  0.61719  0.96045  0.39796  1.0000
  H   H1352     1.0  0.67082  0.88171  0.25901  1.0000
  C   C769      1.0  0.92968  0.75141  0.24030  1.0000
  H   H1353     1.0  0.92223  0.82163  0.16870  1.0000
  C   C770      1.0  0.48835  0.79364  0.30534  1.0000
  H   H1354     1.0  0.96053  0.82407  0.07588  1.0000
  H   H1355     1.0  0.51924  0.93085  0.17886  1.0000
  C   C771      1.0  0.79660  0.65838  0.40173  1.0000
  C   C772      1.0  0.90371  0.83728  0.27636  1.0000
  S   S177      1.0  0.78628  0.84871  0.02567  1.0000
  C   C773      1.0  0.85541  0.67526  0.43348  1.0000
  H   H1356     1.0  0.50393  0.85591  0.19103  1.0000
  H   H1357     1.0  0.87768  0.83691  0.27561  1.0000
  H   H1358     1.0  0.67708  0.98041  0.45458  1.0000
  C   C774      1.0  0.90076  0.71173  0.23716  1.0000
  H   H1359     1.0  0.88958  0.79773  0.23436  1.0000
  C   C775      1.0  0.95879  0.81455  0.13452  1.0000
  N   N43       1.0  0.95655  0.81254  0.20574  1.0000
  H   H1360     1.0  0.94928  0.95737  0.33974  1.0000
  H   H1361     1.0  0.56570  0.91525  0.15107  1.0000
  H   H1362     1.0  0.92532  0.86490  0.28349  1.0000
  H   H1363     1.0  0.65644  0.76765  0.01207  1.0000
  C   C776      1.0  0.68332  0.73849  0.02650  1.0000
  C   C777      1.0  0.58556  0.82233  0.21610  1.0000
  H   H1364     1.0  0.66396  0.92616  0.29739  1.0000
  H   H1365     1.0  0.95355  0.82067  0.26418  1.0000
  N   N44       1.0  0.61202  0.86061  0.20506  1.0000
  H   H1366     1.0  0.58338  0.79940  0.16117  1.0000
  C   C778      1.0  0.62400  0.88398  0.23895  1.0000
  C   C779      1.0  0.59218  0.87367  0.18109  1.0000
  C   C780      1.0  0.64399  0.86409  0.18399  1.0000
  C   C781      1.0  0.65721  0.83746  0.19390  1.0000
  C   C782      1.0  0.92239  0.92828  0.38883  1.0000
  C   C783      1.0  0.61332  0.91384  0.16951  1.0000
  C   C784      1.0  0.64364  0.87479  0.26887  1.0000
  C   C785      1.0  0.64894  0.89688  0.30357  1.0000
  H   H1367     1.0  0.49405  0.75548  0.12289  1.0000
  C   C786      1.0  0.93143  0.77229  0.20510  1.0000
  C   C787      1.0  0.59269  0.92204  0.14058  1.0000
  S   S178      1.0  0.96070  0.93657  0.25015  1.0000
  Fe  Fe88      1.0  0.84070  0.85516  0.01203  1.0000
  H   H1368     1.0  0.64321  0.91241  0.23161  1.0000
  H   H1369     1.0  0.60043  0.88390  0.25200  1.0000
  H   H1370     1.0  0.56740  0.86942  0.19522  1.0000
  H   H1371     1.0  0.58334  0.85792  0.15520  1.0000
  H   H1372     1.0  0.63813  0.86050  0.15405  1.0000
  H   H1373     1.0  0.66729  0.89196  0.18675  1.0000
  H   H1374     1.0  0.96873  0.85985  0.23739  1.0000
  H   H1375     1.0  0.92667  0.65850  0.43660  1.0000
  C   C788      1.0  0.74701  0.80606  0.02680  1.0000
  H   H1376     1.0  0.62245  0.88964  0.31580  1.0000
  H   H1377     1.0  0.64019  0.92134  0.15820  1.0000
  H   H1378     1.0  0.61695  0.93138  0.19327  1.0000
  H   H1379     1.0  0.80613  0.68692  0.39461  1.0000
  H   H1380     1.0  0.63565  0.98040  0.45806  1.0000
  H   H1381     1.0  0.66102  0.83624  0.22369  1.0000
  H   H1382     1.0  0.90216  0.81840  0.29798  1.0000
  H   H1383     1.0  0.53186  0.73877  0.17343  1.0000
  C   C789      1.0  0.49107  0.82768  0.20094  1.0000
  H   H1384     1.0  0.51104  0.66256  0.16330  1.0000
  C   C790      1.0  0.93116  0.68540  0.42891  1.0000
  H   H1385     1.0  0.51104  0.82411  0.21682  1.0000
  H   H1386     1.0  0.71434  0.87494  0.18433  1.0000
  H   H1387     1.0  0.50961  0.68185  0.42938  1.0000
  H   H1388     1.0  0.96727  0.85788  0.17146  1.0000
  H   H1389     1.0  0.92199  0.72730  0.44756  1.0000
  C   C791      1.0  0.92739  0.95456  0.35808  1.0000
  H   H1390     1.0  0.91477  0.90159  0.37697  1.0000
  H   H1391     1.0  0.90102  0.69719  0.26221  1.0000
  Fe  Fe89      1.0  0.59259  0.68668  0.00023  1.0000
  C   C792      1.0  0.49583  0.73954  0.06705  1.0000
  H   H1392     1.0  0.54851  0.68127  0.46956  1.0000
  H   H1393     1.0  0.87363  0.70878  0.23456  1.0000
  C   C793      1.0  0.96092  0.92915  0.20219  1.0000
  H   H1394     1.0  0.71248  0.82745  0.01389  1.0000
  H   H1395     1.0  0.89472  0.77055  0.34824  1.0000
  C   C794      1.0  0.49487  0.92574  0.16506  1.0000
  H   H1396     1.0  0.54754  0.74651  0.08480  1.0000
  C   C795      1.0  0.64144  0.95993  0.40740  1.0000
  C   C796      1.0  0.49098  0.91847  0.12711  1.0000
  C   C797      1.0  0.96164  0.92346  0.12462  1.0000
  H   H1397     1.0  0.90069  0.92494  0.40783  1.0000
  C   C798      1.0  0.69295  0.84796  0.17500  1.0000
  H   H1398     1.0  0.65276  0.91920  0.42869  1.0000
  C   C799      1.0  0.54624  0.75685  0.19682  1.0000
  S   S179      1.0  0.55459  0.96937  0.40795  1.0000
  H   H1399     1.0  0.54589  0.78784  0.08248  1.0000
  H   H1400     1.0  0.56487  0.82179  0.23492  1.0000
  H   H1401     1.0  0.97760  0.73750  0.41503  1.0000
  H   H1402     1.0  0.94781  0.93809  0.40448  1.0000
  H   H1403     1.0  0.81609  0.97719  0.45596  1.0000
  H   H1404     1.0  0.60965  0.91359  0.44265  1.0000
  H   H1405     1.0  0.55797  0.98334  0.12809  1.0000
  C   C800      1.0  0.62929  0.92154  0.41977  1.0000
  H   H1406     1.0  0.91922  0.98529  0.17791  1.0000
  C   C801      1.0  0.71367  0.80334  0.01932  1.0000
  H   H1407     1.0  0.50852  0.75932  0.28717  1.0000
  H   H1408     1.0  0.91462  0.98505  0.30296  1.0000
  H   H1409     1.0  0.90596  0.69904  0.21317  1.0000
  S   S180      1.0  0.56447  0.98978  0.29538  1.0000
  H   H1410     1.0  0.95558  0.75215  0.24459  1.0000
  H   H1411     1.0  0.97871  0.86423  0.10331  1.0000
  H   H1412     1.0  0.80558  0.66792  0.45936  1.0000
  H   H1413     1.0  0.98151  0.69919  0.40194  1.0000
  H   H1414     1.0  0.53173  0.99077  0.06872  1.0000
  H   H1415     1.0  0.48973  0.98962  0.30408  1.0000
  H   H1416     1.0  0.48648  0.71136  0.11766  1.0000
  H   H1417     1.0  0.98596  0.81747  0.13459  1.0000
  H   H1418     1.0  0.48733  0.75569  0.05073  1.0000
  H   H1419     1.0  0.80470  0.76918  0.98800  1.0000
  C   C802      1.0  0.95776  0.73712  0.97359  1.0000
  H   H1420     1.0  0.69258  0.83984  0.90669  1.0000
  H   H1421     1.0  0.59781  0.70854  0.63427  1.0000
  Fe  Fe90      1.0  0.89632  0.90039  0.95384  1.0000
  S   S181      1.0  0.89993  0.93945  0.90873  1.0000
  S   S182      1.0  0.85153  0.84322  0.95515  1.0000
  S   S183      1.0  0.58910  0.70665  0.94459  1.0000
  C   C803      1.0  0.72494  0.96695  0.55597  1.0000
  H   H1422     1.0  0.87775  0.87658  0.79006  1.0000
  Fe  Fe91      1.0  0.83869  0.97298  0.62147  1.0000
  S   S184      1.0  0.77989  0.95436  0.62564  1.0000
  C   C804      1.0  0.98304  0.66862  0.72954  1.0000
  Fe  Fe92      1.0  0.83794  0.93823  0.69755  1.0000
  S   S185      1.0  0.77933  0.91917  0.70613  1.0000
  S   S186      1.0  0.86720  0.91996  0.73720  1.0000
  Fe  Fe93      1.0  0.77315  0.90207  0.64715  1.0000
  S   S187      1.0  0.72489  0.84942  0.62857  1.0000
  C   C805      1.0  0.77670  0.74926  0.93587  1.0000
  S   S188      1.0  0.83145  0.91902  0.63863  1.0000
  S   S189      1.0  0.71333  0.69668  0.64832  1.0000
  C   C806      1.0  0.72234  0.80731  0.63432  1.0000
  C   C807      1.0  0.74939  0.80411  0.65223  1.0000
  C   C808      1.0  0.74628  0.77005  0.65630  1.0000
  C   C809      1.0  0.71608  0.73892  0.64272  1.0000
  C   C810      1.0  0.68894  0.74211  0.62504  1.0000
  C   C811      1.0  0.69213  0.77618  0.62081  1.0000
  H   H1423     1.0  0.77278  0.82790  0.66276  1.0000
  H   H1424     1.0  0.76745  0.76783  0.66992  1.0000
  H   H1425     1.0  0.66571  0.71844  0.61423  1.0000
  H   H1426     1.0  0.67115  0.77847  0.60686  1.0000
  C   C812      1.0  0.49246  0.78774  0.96895  1.0000
  H   H1427     1.0  0.80138  0.76637  0.91964  1.0000
  C   C813      1.0  0.88414  0.92954  0.86263  1.0000
  C   C814      1.0  0.87668  0.95362  0.84374  1.0000
  C   C815      1.0  0.86894  0.94963  0.80583  1.0000
  C   C816      1.0  0.86996  0.92227  0.78599  1.0000
  C   C817      1.0  0.87676  0.89780  0.80506  1.0000
  C   C818      1.0  0.88295  0.90087  0.84324  1.0000
  H   H1428     1.0  0.86882  0.77493  0.51926  1.0000
  H   H1429     1.0  0.95801  0.96552  0.64688  1.0000
  H   H1430     1.0  0.51053  0.93494  0.78536  1.0000
  H   H1431     1.0  0.56711  0.71761  0.66004  1.0000
  H   H1432     1.0  0.67005  0.96836  0.62902  1.0000
  H   H1433     1.0  0.74946  0.83172  0.95029  1.0000
  H   H1434     1.0  0.94726  0.88520  0.82195  1.0000
  H   H1435     1.0  0.72947  0.72390  0.87524  1.0000
  H   H1436     1.0  0.78145  0.78088  0.87016  1.0000
  C   C819      1.0  0.78541  0.83049  0.81934  1.0000
  H   H1437     1.0  0.86074  0.93278  0.53852  1.0000
  H   H1438     1.0  0.72124  0.86833  0.94292  1.0000
  H   H1439     1.0  0.86534  0.89756  0.51692  1.0000
  H   H1440     1.0  0.86404  0.96884  0.79158  1.0000
  H   H1441     1.0  0.85651  0.89543  0.56543  1.0000
  C   C820      1.0  0.48941  0.97414  0.58396  1.0000
  Fe  Fe94      1.0  0.89141  0.83086  0.98236  1.0000
  H   H1442     1.0  0.73852  0.77820  0.82489  1.0000
  C   C821      1.0  0.91157  0.93458  0.54948  1.0000
  N   N45       1.0  0.64814  0.73558  0.73734  1.0000
  C   C822      1.0  0.68103  0.77270  0.73898  1.0000
  C   C823      1.0  0.65940  0.70752  0.73324  1.0000
  C   C824      1.0  0.62715  0.73436  0.70360  1.0000
  C   C825      1.0  0.62380  0.72760  0.77011  1.0000
  C   C826      1.0  0.64044  0.72920  0.80811  1.0000
  C   C827      1.0  0.67402  0.80473  0.74044  1.0000
  C   C828      1.0  0.59533  0.69694  0.69274  1.0000
  C   C829      1.0  0.69431  0.71470  0.75335  1.0000
  H   H1443     1.0  0.73271  0.75311  0.96093  1.0000
  C   C830      1.0  0.61533  0.72694  0.83902  1.0000
  C   C831      1.0  0.70933  0.84020  0.74476  1.0000
  C   C832      1.0  0.57792  0.69907  0.65703  1.0000
  H   H1444     1.0  0.69832  0.77688  0.71451  1.0000
  H   H1445     1.0  0.69826  0.77572  0.76280  1.0000
  H   H1446     1.0  0.63701  0.68061  0.74168  1.0000
  H   H1447     1.0  0.66458  0.70451  0.70385  1.0000
  H   H1448     1.0  0.64549  0.74496  0.67956  1.0000
  H   H1449     1.0  0.61541  0.75214  0.70691  1.0000
  H   H1450     1.0  0.61216  0.74563  0.77044  1.0000
  H   H1451     1.0  0.60009  0.69999  0.76804  1.0000
  H   H1452     1.0  0.66630  0.75449  0.81210  1.0000
  H   H1453     1.0  0.64451  0.70578  0.81126  1.0000
  H   H1454     1.0  0.66151  0.80672  0.71460  1.0000
  H   H1455     1.0  0.65641  0.80219  0.76384  1.0000
  H   H1456     1.0  0.57415  0.68641  0.71417  1.0000
  H   H1457     1.0  0.93665  0.97732  0.70359  1.0000
  H   H1458     1.0  0.71822  0.73596  0.73856  1.0000
  H   H1459     1.0  0.69558  0.72381  0.78187  1.0000
  H   H1460     1.0  0.88217  0.96818  0.96948  1.0000
  C   C833      1.0  0.86652  0.98148  0.97606  1.0000
  H   H1461     1.0  0.59978  0.71484  0.51317  1.0000
  H   H1462     1.0  0.61149  0.75065  0.83850  1.0000
  H   H1463     1.0  0.58867  0.70207  0.83658  1.0000
  H   H1464     1.0  0.62711  0.72634  0.86590  1.0000
  H   H1465     1.0  0.70407  0.86301  0.74367  1.0000
  H   H1466     1.0  0.72224  0.84117  0.77140  1.0000
  H   H1467     1.0  0.72804  0.84346  0.72210  1.0000
  H   H1468     1.0  0.95516  0.91922  0.60205  1.0000
  H   H1469     1.0  0.74413  0.95924  0.54455  1.0000
  H   H1470     1.0  0.83350  0.72970  0.52891  1.0000
  N   N46       1.0  0.73646  0.77084  0.90484  1.0000
  C   C834      1.0  0.76590  0.79413  0.87820  1.0000
  C   C835      1.0  0.75357  0.76765  0.93964  1.0000
  C   C836      1.0  0.71288  0.73443  0.88763  1.0000
  C   C837      1.0  0.71320  0.78693  0.91416  1.0000
  C   C838      1.0  0.73336  0.82728  0.92512  1.0000
  C   C839      1.0  0.71642  0.98669  0.66399  1.0000
  C   C840      1.0  0.68472  0.70500  0.91346  1.0000
  S   S190      1.0  0.53547  0.75809  0.95944  1.0000
  H   H1471     1.0  0.90152  0.71838  0.96339  1.0000
  H   H1472     1.0  0.95626  0.94977  0.85742  1.0000
  H   H1473     1.0  0.76162  0.72263  0.92243  1.0000
  H   H1474     1.0  0.60644  0.69062  0.54974  1.0000
  C   C841      1.0  0.87103  0.91384  0.54226  1.0000
  H   H1475     1.0  0.78610  0.81975  0.89155  1.0000
  H   H1476     1.0  0.77143  0.79468  0.95168  1.0000
  H   H1477     1.0  0.90963  0.93730  0.60804  1.0000
  N   N47       1.0  0.49837  0.97772  0.79296  1.0000
  H   H1478     1.0  0.69760  0.73683  0.86429  1.0000
  H   H1479     1.0  0.69475  0.78341  0.89111  1.0000
  H   H1480     1.0  0.69506  0.77218  0.93754  1.0000
  H   H1481     1.0  0.55010  0.97492  0.74788  1.0000
  H   H1482     1.0  0.82162  0.96772  0.52236  1.0000
  H   H1483     1.0  0.81562  0.97539  0.95387  1.0000
  H   H1484     1.0  0.73532  0.81412  0.84647  1.0000
  H   H1485     1.0  0.66705  0.71386  0.92636  1.0000
  C   C842      1.0  0.68736  0.98846  0.64870  1.0000
  H   H1486     1.0  0.51465  0.94383  0.60176  1.0000
  C   C843      1.0  0.58578  0.69212  0.53271  1.0000
  C   C844      1.0  0.70667  0.84032  0.93237  1.0000
  H   H1487     1.0  0.97962  0.67790  0.75689  1.0000
  H   H1488     1.0  0.96712  0.83150  0.98465  1.0000
  C   C845      1.0  0.86298  0.74705  0.52459  1.0000
  C   C846      1.0  0.66055  0.67031  0.89249  1.0000
  H   H1489     1.0  0.83992  0.67874  0.50764  1.0000
  C   C847      1.0  0.93059  0.77550  0.97349  1.0000
  C   C848      1.0  0.96431  0.80518  0.98158  1.0000
  H   H1490     1.0  0.56829  0.69735  0.55111  1.0000
  H   H1491     1.0  0.79997  0.91801  0.98571  1.0000
  C   C849      1.0  0.92748  0.74148  0.96961  1.0000
  C   C850      1.0  0.81064  0.92330  0.95726  1.0000
  H   H1492     1.0  0.92069  0.91465  0.55182  1.0000
  H   H1493     1.0  0.52866  0.95989  0.82593  1.0000
  H   H1494     1.0  0.75182  0.84461  0.90324  1.0000
  H   H1495     1.0  0.88461  0.69619  0.52325  1.0000
  H   H1496     1.0  0.48648  0.87657  0.81800  1.0000
  H   H1497     1.0  0.69806  0.69828  0.93560  1.0000
  H   H1498     1.0  0.94919  0.89003  0.87138  1.0000
  H   H1499     1.0  0.88862  0.88210  0.85727  1.0000
  H   H1500     1.0  0.50569  0.90132  0.86008  1.0000
  C   C851      1.0  0.51516  0.95983  0.57763  1.0000
  H   H1501     1.0  0.71763  0.95644  0.58437  1.0000
  C   C852      1.0  0.83334  0.96374  0.95014  1.0000
  C   C853      1.0  0.97831  0.95788  0.83726  1.0000
  H   H1502     1.0  0.77606  0.83545  0.79277  1.0000
  H   H1503     1.0  0.96458  0.95057  0.81020  1.0000
  C   C854      1.0  0.75326  0.80290  0.84176  1.0000
  H   H1504     1.0  0.90358  0.97012  0.58556  1.0000
  H   H1505     1.0  0.78759  0.91119  0.93797  1.0000
  Fe  Fe95      1.0  0.79163  0.97292  0.68392  1.0000
  H   H1506     1.0  0.60446  0.67727  0.68841  1.0000
  S   S191      1.0  0.93760  0.88755  0.97667  1.0000
  H   H1507     1.0  0.80442  0.82065  0.81356  1.0000
  H   H1508     1.0  0.72131  0.96524  0.65621  1.0000
  H   H1509     1.0  0.68632  0.82310  0.95309  1.0000
  H   H1510     1.0  0.79993  0.85648  0.83432  1.0000
  Fe  Fe96      1.0  0.54169  0.70929  0.96789  1.0000
  H   H1511     1.0  0.98126  0.96708  0.91236  1.0000
  H   H1512     1.0  0.84194  0.96702  0.92106  1.0000
  C   C855      1.0  0.49361  0.75572  0.96704  1.0000
  C   C856      1.0  0.86842  0.69503  0.49887  1.0000
  H   H1513     1.0  0.82686  0.91000  0.95295  1.0000
  H   H1514     1.0  0.94543  0.98624  0.79015  1.0000
  H   H1515     1.0  0.70007  0.95421  0.53911  1.0000
  C   C857      1.0  0.50445  0.94842  0.80798  1.0000
  H   H1516     1.0  0.92479  0.95118  0.52507  1.0000
  H   H1517     1.0  0.87769  0.97603  0.85830  1.0000
  H   H1518     1.0  0.72295  0.68711  0.76888  1.0000
  N   N48       1.0  0.95933  0.98513  0.59188  1.0000
  C   C858      1.0  0.92038  0.95718  0.58519  1.0000
  H   H1519     1.0  0.64501  0.67503  0.87111  1.0000
  H   H1520     1.0  0.87738  0.74720  0.54993  1.0000
  C   C859      1.0  0.96534  0.89396  0.84619  1.0000
  H   H1521     1.0  0.50730  0.94232  0.55299  1.0000
  S   S192      1.0  0.89207  0.78000  0.96665  1.0000
  H   H1522     1.0  0.95499  0.71084  0.97035  1.0000
  H   H1523     1.0  0.51705  0.81330  0.96582  1.0000
  C   C860      1.0  0.69779  0.68108  0.75440  1.0000
  C   C861      1.0  0.98338  0.94084  0.59748  1.0000
  H   H1524     1.0  0.98180  0.96806  0.54806  1.0000
  C   C862      1.0  0.98519  0.97377  0.57785  1.0000
  H   H1525     1.0  0.54311  0.98245  0.57436  1.0000
  C   C863      1.0  0.87540  0.73368  0.49196  1.0000
  H   H1526     1.0  0.55534  0.67189  0.64994  1.0000
  H   H1527     1.0  0.67676  0.65968  0.87958  1.0000
  H   H1528     1.0  0.97776  0.87674  0.84835  1.0000
  H   H1529     1.0  0.51749  0.66410  0.50607  1.0000
  H   H1530     1.0  0.69921  0.67233  0.72614  1.0000
  C   C864      1.0  0.78881  0.74328  0.97325  1.0000
  H   H1531     1.0  0.80621  0.73119  0.96957  1.0000
  H   H1532     1.0  0.67457  0.65889  0.76904  1.0000
  H   H1533     1.0  0.97971  0.68515  0.70822  1.0000
  H   H1534     1.0  0.91483  0.99084  0.64523  1.0000
  H   H1535     1.0  0.51476  0.98888  0.86843  1.0000
  H   H1536     1.0  0.90454  0.75293  0.48812  1.0000
