data_image0
_chemical_formula_structural       FeS2FeSHFeHFeS3CHCHSCH2CH2SCFeS2FeSHFeSFeS4CH2CH3SCHC2H5C2H2C2H4C6H4CHC2FeHFeSHCHC2H4CHCHCH3SHSC6H5SH2C2H3C3H3CHCH3CH8C2HCH2C2H4SH4CFeH3CH2NC3HC2HC2H7CHCH2CH8CHCH3NC6NC2H11FeHC2H6NH2C7HCH5CH2CHCFeH7CH3CHC2H2C2H3SH2CHCHCH2CH7CHCH2CH2SCHC3HSHC2H2FeSCFeS2FeSFeS3FeSFeS2H2FeSFeHFeHCHC2HC2H3C9HCHC6H5C2HSHCH6CH2CH2CHCHC2H3CSH3C2H3NC2HCNH2CHCH2C2H6CH3CH2CSH5CHCHCNC8SC2H21NC2HC3HC4H23CHCH6CH3CSHSC4HCHSH2CH6CH8SH2CH2C2H3SH3CH4NC3HC3HCH5C2HS2CH8C4H4C3HC3H2C2SFeS2FeSFeCSHSHFeS2FeSFeS3FeS2FeS2FeSFeS4HSH3SH2SH2CH3FeHCHCH3C2HC3H4C3H2C2HC3H2CH2C7H4C2HC3HCH2C6H4NC9H10SH16CH8CH3CH2C5HCHCSC2H2C3H3CHCHC3HCH7C2NC3HC4H3CH2CH4CHCH5C3FeHCH6CHCHFeH4C2HCH6CH3C3H8CHNFeHNHCHNSCH3CH4C2HCH4NH6C2H3C2HNHCHCH10CH2CH4FeCH2SH2C2H6CHC4H5CHFeCNH3CHCH3CH3SCH2CH6C2H9C2H3CH4FeSFeS2FeSCS2FeSFeS2FeSHFeSH2S3CH4CH3C2H2SH4C2H3C6H4C6H5C2HCH2CNHCH3FeCH5CHCH2NHCH2C2H2CHCH2CHCH4CH4CH3C2H2CH2FeHCH4SH3C2HNSC3H3CH3CHCH4CHCHCHCH4C2HCHC2H3CH8C3H2CH2SCH2CH2CHC2H4CHCHCH11C2HCH2CNH2C3H2CHC3H5C2H2SH2NH3CHCH3C2HCNCHCH2C3HCH6CHNH3FeHC2H3C2H5C4H2SC2HSHCHFeS2FeSHFeSFeS4HFeS2FeCSFeS4FeS2FeS2FeSFeS3HCH2CSC2HNH2C2NHCHC2H2C2HC2HC6H5NC5H2CHC3H5C5H4C2HC5H4C2H2CHCH3CNC4HC4HC2H12CH4CHCH10CHCH11SCH2C2H2CHCH2CFeHCHCH4CH7C2HCH6NC7H3C2H16FeHCSH7NHC3HC2H3CH4C2H7CFeSHC2HSHCH6C3H3CH3CH4CHFeHCHC3HCHCHC7HCH3C2H5CHCHCHCH5CH3NH4SCH2C3H5FeS2FeS2FeSFeS3FeSFeS2HCFeSC2H2C2HCH2CHC2H3C3HC2H3C6H6C5H2CH2FeC3H4C2HCHCHC2HCH3CHCSHCSNCH3CH13CSH3SCHCH2CH3C3HFeH7C2H5C2HCHSH3SC2H3NH4CH7CH8CH3CH7CNHC4HCH2CH2SH2C2FeSFeS2FeSCS2FeSHFeS2FeSFeS3FeS2FeS2FeSFeS4C2SH2SCHSCH2CHCH5CHC3H2C2H4C3H2CH2C2H3CHCHC6H4C2H3CH4C6H5CHCNC10HCH29CHCNC2H3CH5CHCH6CNH4FeH3CHC2H2C3FeH6C2HCHC2H2CHNC3HSC6H9CH9CH2C2H3C4H6NCHC4H3NHCH3CHCH4CH2CH7CH6C2H3C2H2CHCH5CH2CH2C3H4FeHC2HCH9FeSFeS2FeSFeS2FeSFeS2FeSHFeSFeNS3H4CH4C2SHCH2SH3CH2C6H4C6H5SH2C3H4CH2CH5CH2C3H2CH3CHCH3CHC2HC2NC6HC2HC2H12C2H5CH11CH3CH2CH3CHC3H2C2HSHCHC2SNC9H2C2H2CH3C2H7CHCH2C2HCHNHNH4CH7CH6CH2C2H7CH2C4H7SHCHCSCH3SFeH2C3HCH5NH3CH9CHCH4CHC2H4C2H7CHCH5C2H6CNH2FeS2HSCFeSFeS3H2FeS2FeHSFeSCSHFeS2FeSCFeSFeS3HCH3SH2SHCSH2C2H2C2HC3HCH2C6H6C2H4FeH3CH6C6H3C3H11CH2CH3SCHC2HC4H9CHCH4CHCHCHC2HFeH6CH2FeHC8H2CH4C2H3CH5NHC3H12CHC2H4C2HSCH3CHCHCH4NHCHCH6CNH4SH4CH4SCHCH4CH3C2H2CH2CH3C4H4CH2CHC4HNHC2H5FeS2FeS2FeSFeS3FeSFeS2H2FeSH3CH3CSCH2CH2SHC6H3C6H4SCHC3H3C3H2CHCHCHSHC2H2C2H3CH3CHC3H3NC12H16CH12C2H4FeCH2C2HC3H4CHCHCHC2H2CH3SH6C2H2C2HCH3C2H2CH2CH3C3H2CSH2CH4NC4HCH2CH2CH6CH7CH3C2HCH3SHC3NHCH2C3NH2CH2CHCH2CH3SHCHNHFeHCH4CH9CH3CH4CSHC2HC2H3C2HCSHCHCHFeSFeS2FeSFeCSFeSHFeS2FeSFeS3FeS2FeS2FeSFeS4H3FeHSH2SCH8NHCHSC2HC3H4C3HC2H2C2HCHCHFeHC6H4C2HCH3CH2C6H5C3H2C2HC2HNH5C2FeCH2CH5C2HCH2C4H2CH3CH4C2HCHNH6CH11NHCHCHCH5CH5C4HC2H4CHFeH2C5HCH2CH2CHCHCH4CHC2NC5HC3H2CH9CHCH2CH6C4H4C4H4CHSH4C2H5CH4CH4C2H5CHCHCNC4HCH2CH6CH4C4H12NH6CH3CHC2H2CHCH3C2SH4CH3FeSFeS2FeSFeS2FeSFeS2FeSCFeSFeHS3HCH3CH2NHC2H8CH2C6H4C6H11C2HNCH4CHCH2CH2C2H4CH3CHSH2NCH2CHNH4C2H2SCH4FeHNCNC8H2CSH12C2HCH3CHCH3CHC4HC2H2CH2C3H3CH9CH5C3SC5H11CHNH3C3H4SHSH4NH3C2H9C2H3CHCH3CH4C2H9C2FeS2HSCFeCFeS3HCFe2SH2CFeSCSHFeS2FeS2FeSFeS3H4CSH2SH3C5HC3HC2H2SHC6H4CHC3HSH4C2HNH5C2H2FeH2C7H4CHCNC9H15CH8SCHSH2C4H4CH6CH3CH4C2HCH4C3HC2HCH3C2H6FeC2H4CHNC11H26C4HC3HCH4CH6CHCHNH3SH3C2NHCHCH3CHCH2CH4C2H12C3H4C2H2CH3CFeS2FeS2FeSFeS3FeSFeS2H2FeSHSCHCHC2H2CH3CH2C6HCHC6H6C2HNCH2C3HC3H2CH4C4HCFeHCH8CHC2HCH4CH5NC5HCH6C4H7NC4HC2H7CH13C2HNH4C2NH3C2H6CH3CH3CHCHCH3CH4C3H3CHCH3CSCS2HCSH5C3HCHNHC3HC2H3CH4CH2C2H5CHCH2FeC2HC2H9CHC2HCH5CHSH3FeCH5SH2C2H2C2HSH2C2H5C4H4SCHCH5CH3CH2CH2C2H2CH8SFeS2FeSFeHSHSHFeS2FeSFeSCSFeS2FeS2FeSFeS4NHCH3CH5CHC2H3C2H2C3H2CH2CHC2HCHCHC2FeH3CHCHC6H4C2HC3H4C6H3NCH4NCNHCHC2HCHCHCH2CH3C2SH2CH6SHC4HCH5CH4CH3CH2CH3CH2CH3SHCHCH6CHCHC2H3CFeC2HCSH4CH4C7NHSH3CHCH3CH2NC11H26NCHC2H2CHFeHCNHCH3CH3CH2CHCH6CH3CHSCSH9SCH7CHCHCHC3HCH3CHC5HC2H2CH5CHC3FeHFeS2FeSHS2FeSFeS2FeSCFeSFeCS3H3CHC2H2C4H5SHSHSC6H4C6H4NCSH4FeH2CHC2H6C3H5C3SH6CH5NC12H38FeC2H8C2H2CHCHCHFeCHNC4HC6H7SH3CSH4SH4CH2NC11H14CH10CHC2H2C2H2SHC5HFeCHCH3SH2NH7NHSH4CH2CFeH5C2HCH4C2H3CH3
_chemical_formula_sum              "Fe192 S384 H3072 C1728 N96"
_cell_length_a       56.2755
_cell_length_b       56.4128
_cell_length_c       42.2171
_cell_angle_alpha    89.7672
_cell_angle_beta     89.9695
_cell_angle_gamma    119.985

_space_group_name_H-M_alt    "P 1"
_space_group_IT_number       1

loop_
  _space_group_symop_operation_xyz
  'x, y, z'

loop_
  _atom_site_type_symbol
  _atom_site_label
  _atom_site_symmetry_multiplicity
  _atom_site_fract_x
  _atom_site_fract_y
  _atom_site_fract_z
  _atom_site_occupancy
  Fe  Fe1       1.0  0.37332  0.11198  0.06354  1.0000
  S   S1        1.0  0.37342  0.09008  0.10814  1.0000
  S   S2        1.0  0.36822  0.14932  0.05875  1.0000
  Fe  Fe2       1.0  0.37920  0.07165  0.02083  1.0000
  S   S3        1.0  0.38086  0.04737  0.06199  1.0000
  H   H1        1.0  0.30557  0.05980  0.41173  1.0000
  Fe  Fe3       1.0  0.34589  0.05139  0.08142  1.0000
  H   H2        1.0  0.41688  0.22129  0.07892  1.0000
  Fe  Fe4       1.0  0.40848  0.08806  0.08504  1.0000
  S   S4        1.0  0.44409  0.09273  0.11534  1.0000
  S   S5        1.0  0.34268  0.07339  0.03882  1.0000
  S   S6        1.0  0.41002  0.11229  0.04183  1.0000
  C   C1        1.0  0.30883  0.10442  0.12439  1.0000
  H   H3        1.0  0.30430  0.22249  0.26816  1.0000
  C   C2        1.0  0.27663  0.00563  0.08980  1.0000
  H   H4        1.0  0.28127  0.20165  0.11428  1.0000
  S   S7        1.0  0.05668  0.19392  0.18372  1.0000
  C   C3        1.0  0.15983  0.21809  0.40391  1.0000
  H   H5        1.0  0.40612  0.02076  0.99095  1.0000
  H   H6        1.0  0.14265  0.18851  0.26199  1.0000
  C   C4        1.0  0.01068  0.23892  0.46522  1.0000
  H   H7        1.0  0.24754  0.00673  0.45462  1.0000
  H   H8        1.0  0.22553  0.08299  0.13417  1.0000
  S   S8        1.0  0.13259  0.20682  0.20154  1.0000
  C   C5        1.0  0.22656  0.24863  0.14606  1.0000
  Fe  Fe5       1.0  0.22366  0.19220  0.43480  1.0000
  S   S9        1.0  0.24138  0.19100  0.38783  1.0000
  S   S10       1.0  0.22586  0.23122  0.45140  1.0000
  Fe  Fe6       1.0  0.19927  0.13057  0.44615  1.0000
  S   S11       1.0  0.21485  0.12483  0.39951  1.0000
  H   H9        1.0  0.05535  0.16886  0.25161  1.0000
  Fe  Fe7       1.0  0.25367  0.16333  0.41196  1.0000
  S   S12       1.0  0.29427  0.16650  0.40032  1.0000
  Fe  Fe8       1.0  0.20101  0.15306  0.37992  1.0000
  S   S13       1.0  0.17871  0.14570  0.33347  1.0000
  S   S14       1.0  0.23923  0.16755  0.46003  1.0000
  S   S15       1.0  0.18213  0.15576  0.42548  1.0000
  S   S16       1.0  0.13177  0.24894  0.14701  1.0000
  C   C6        1.0  0.49431  0.21543  0.13898  1.0000
  H   H10       1.0  0.18024  0.07822  0.12453  1.0000
  H   H11       1.0  0.50312  0.13190  0.04118  1.0000
  C   C7        1.0  0.24408  0.10164  0.08797  1.0000
  H   H12       1.0  0.32308  0.12643  0.01515  1.0000
  H   H13       1.0  0.24275  0.03626  0.05887  1.0000
  H   H14       1.0  0.20217  0.22277  0.21839  1.0000
  S   S17       1.0  0.41410  0.15229  0.45727  1.0000
  C   C8        1.0  0.24595  0.02028  0.06839  1.0000
  H   H15       1.0  0.02808  0.15814  0.29667  1.0000
  C   C9        1.0  0.15968  0.02704  0.43733  1.0000
  C   C10       1.0  0.16861  0.05467  0.44375  1.0000
  H   H16       1.0  0.03423  0.11770  0.25736  1.0000
  H   H17       1.0  0.24844  0.23137  0.23394  1.0000
  H   H18       1.0  0.39864  0.04775  0.48362  1.0000
  H   H19       1.0  0.01052  0.16380  0.00993  1.0000
  H   H20       1.0  0.17842  0.06991  0.42539  1.0000
  C   C11       1.0  0.31293  0.16480  0.43278  1.0000
  C   C12       1.0  0.30851  0.17120  0.46339  1.0000
  H   H21       1.0  0.04804  0.10975  0.20437  1.0000
  H   H22       1.0  0.31727  0.12266  0.13987  1.0000
  C   C13       1.0  0.34900  0.15714  0.45307  1.0000
  C   C14       1.0  0.33317  0.15771  0.42770  1.0000
  H   H23       1.0  0.36442  0.01239  0.12131  1.0000
  H   H24       1.0  0.22805  0.11565  0.12715  1.0000
  H   H25       1.0  0.36446  0.15157  0.44886  1.0000
  H   H26       1.0  0.33671  0.15271  0.40409  1.0000
  C   C15       1.0  0.16871  0.21672  0.29756  1.0000
  C   C16       1.0  0.18554  0.22034  0.32363  1.0000
  C   C17       1.0  0.18853  0.19858  0.33502  1.0000
  C   C18       1.0  0.17526  0.17327  0.31978  1.0000
  C   C19       1.0  0.15911  0.16988  0.29307  1.0000
  C   C20       1.0  0.15566  0.19151  0.28212  1.0000
  H   H27       1.0  0.19625  0.23995  0.33515  1.0000
  H   H28       1.0  0.20097  0.20139  0.35569  1.0000
  H   H29       1.0  0.14894  0.15036  0.28109  1.0000
  H   H30       1.0  0.42622  0.23039  0.03900  1.0000
  C   C21       1.0  0.28299  0.14041  0.11623  1.0000
  H   H31       1.0  0.06797  0.12157  0.25705  1.0000
  C   C22       1.0  0.38102  0.04451  0.43753  1.0000
  C   C23       1.0  0.36756  0.02690  0.41200  1.0000
  Fe  Fe9       1.0  0.14940  0.24198  0.23531  1.0000
  H   H32       1.0  0.22991  0.17739  0.23814  1.0000
  Fe  Fe10      1.0  0.10333  0.22058  0.18468  1.0000
  S   S18       1.0  0.36902  0.21914  0.17647  1.0000
  H   H33       1.0  0.33003  0.05127  0.39556  1.0000
  C   C24       1.0  0.47562  0.12388  0.11859  1.0000
  H   H34       1.0  0.28683  0.23727  0.25055  1.0000
  C   C25       1.0  0.04661  0.19750  0.11986  1.0000
  C   C26       1.0  0.03554  0.18821  0.15005  1.0000
  H   H35       1.0  0.24048  0.11372  0.06959  1.0000
  H   H36       1.0  0.02879  0.12800  0.30562  1.0000
  H   H37       1.0  0.16275  0.02123  0.41395  1.0000
  H   H38       1.0  0.06862  0.20823  0.11663  1.0000
  C   C27       1.0  0.46966  0.24024  0.46983  1.0000
  H   H39       1.0  0.46800  0.14417  0.08000  1.0000
  C   C28       1.0  0.28688  0.20622  0.22138  1.0000
  H   H40       1.0  0.04143  0.13783  0.20401  1.0000
  C   C29       1.0  0.27253  0.02598  0.07637  1.0000
  H   H41       1.0  0.04790  0.17509  0.35360  1.0000
  H   H42       1.0  0.35637  0.22076  0.44836  1.0000
  H   H43       1.0  0.43504  0.19084  0.03863  1.0000
  S   S19       1.0  0.19091  0.22540  0.14416  1.0000
  H   H44       1.0  0.28980  0.04624  0.07283  1.0000
  S   S20       1.0  0.49394  0.20861  0.46278  1.0000
  C   C30       1.0  0.36812  0.16814  0.09188  1.0000
  C   C31       1.0  0.36109  0.18860  0.08768  1.0000
  C   C32       1.0  0.36126  0.20437  0.11346  1.0000
  C   C33       1.0  0.36845  0.19976  0.14358  1.0000
  C   C34       1.0  0.37487  0.17891  0.14789  1.0000
  C   C35       1.0  0.37489  0.16324  0.12208  1.0000
  H   H45       1.0  0.35561  0.19232  0.06438  1.0000
  H   H46       1.0  0.29247  0.22282  0.20360  1.0000
  H   H47       1.0  0.38023  0.17510  0.17123  1.0000
  H   H48       1.0  0.38027  0.14750  0.12556  1.0000
  H   H49       1.0  0.28479  0.13601  0.05111  1.0000
  S   S21       1.0  0.38814  0.07881  0.43536  1.0000
  H   H50       1.0  0.29781  0.25288  0.30246  1.0000
  H   H51       1.0  0.32220  0.10948  0.10322  1.0000
  C   C36       1.0  0.31064  0.08208  0.14301  1.0000
  C   C37       1.0  0.27757  0.16260  0.10177  1.0000
  H   H52       1.0  0.26112  0.12145  0.47950  1.0000
  H   H53       1.0  0.07638  0.14442  0.20344  1.0000
  H   H54       1.0  0.30836  0.00436  0.41929  1.0000
  C   C38       1.0  0.40196  0.22627  0.41932  1.0000
  C   C39       1.0  0.03986  0.15039  0.31011  1.0000
  C   C40       1.0  0.00684  0.17385  0.15373  1.0000
  H   H55       1.0  0.26633  0.08411  0.04108  1.0000
  H   H56       1.0  0.26706  0.08973  0.13775  1.0000
  H   H57       1.0  0.41513  0.23087  0.44054  1.0000
  C   C41       1.0  0.18199  0.24827  0.40152  1.0000
  H   H58       1.0  0.30495  0.06400  0.12784  1.0000
  C   C42       1.0  0.24506  0.23877  0.14816  1.0000
  H   H59       1.0  0.30960  0.19082  0.19541  1.0000
  H   H60       1.0  0.43953  0.24665  0.39078  1.0000
  H   H61       1.0  0.48243  0.20164  0.11925  1.0000
  C   C43       1.0  0.28446  0.18560  0.12547  1.0000
  H   H62       1.0  0.35441  0.01015  0.00697  1.0000
  H   H63       1.0  0.19125  0.09447  0.08630  1.0000
  H   H64       1.0  0.07237  0.21148  0.26678  1.0000
  H   H65       1.0  0.30622  0.19518  0.13306  1.0000
  H   H66       1.0  0.33197  0.09005  0.15143  1.0000
  H   H67       1.0  0.31277  0.13710  0.07116  1.0000
  H   H68       1.0  0.29639  0.11094  0.47186  1.0000
  H   H69       1.0  0.24239  0.04979  0.45187  1.0000
  C   C44       1.0  0.20615  0.20575  0.22373  1.0000
  C   C45       1.0  0.39010  0.24777  0.47857  1.0000
  H   H70       1.0  0.11154  0.24999  0.29431  1.0000
  C   C46       1.0  0.49472  0.12631  0.14170  1.0000
  H   H71       1.0  0.03799  0.19961  0.07047  1.0000
  H   H72       1.0  0.28091  0.24409  0.35936  1.0000
  C   C47       1.0  0.42001  0.22677  0.39136  1.0000
  C   C48       1.0  0.42751  0.20433  0.39508  1.0000
  H   H73       1.0  0.35570  0.21399  0.39129  1.0000
  H   H74       1.0  0.38497  0.20487  0.42256  1.0000
  H   H75       1.0  0.40939  0.22338  0.36834  1.0000
  H   H76       1.0  0.43908  0.20708  0.41736  1.0000
  S   S22       1.0  0.30971  0.01264  0.10118  1.0000
  H   H77       1.0  0.30421  0.18075  0.23643  1.0000
  H   H78       1.0  0.27096  0.17759  0.14665  1.0000
  H   H79       1.0  0.45163  0.22180  0.47790  1.0000
  H   H80       1.0  0.32719  0.22612  0.34833  1.0000
  C   C49       1.0  0.16473  0.06244  0.47383  1.0000
  Fe  Fe11      1.0  0.41009  0.11205  0.47251  1.0000
  H   H81       1.0  0.02322  0.21266  0.01599  1.0000
  H   H82       1.0  0.32925  0.21538  0.22548  1.0000
  H   H83       1.0  0.25340  0.08971  0.37625  1.0000
  C   C50       1.0  0.28706  0.01907  0.39100  1.0000
  H   H84       1.0  0.28543  0.05970  0.45941  1.0000
  H   H85       1.0  0.29066  0.17193  0.08051  1.0000
  N   N1        1.0  0.06895  0.16342  0.29793  1.0000
  C   C51       1.0  0.08522  0.19363  0.30516  1.0000
  C   C52       1.0  0.08334  0.14888  0.31114  1.0000
  C   C53       1.0  0.06782  0.16056  0.26225  1.0000
  H   H86       1.0  0.09126  0.24204  0.33021  1.0000
  C   C54       1.0  0.29064  0.12347  0.06610  1.0000
  C   C55       1.0  0.07297  0.21126  0.29304  1.0000
  H   H87       1.0  0.29014  0.11835  0.99902  1.0000
  C   C56       1.0  0.09948  0.15977  0.34262  1.0000
  C   C57       1.0  0.10725  0.13958  0.35675  1.0000
  H   H88       1.0  0.36078  0.25066  0.06139  1.0000
  H   H89       1.0  0.44071  0.20530  0.37498  1.0000
  H   H90       1.0  0.10626  0.20244  0.29503  1.0000
  H   H91       1.0  0.08835  0.19740  0.33095  1.0000
  H   H92       1.0  0.06850  0.12660  0.31411  1.0000
  H   H93       1.0  0.09899  0.15010  0.29398  1.0000
  H   H94       1.0  0.08879  0.17298  0.25192  1.0000
  C   C58       1.0  0.34481  0.16381  0.48362  1.0000
  H   H95       1.0  0.02307  0.23671  0.14020  1.0000
  C   C59       1.0  0.09038  0.24091  0.30394  1.0000
  H   H96       1.0  0.23718  0.08137  0.07686  1.0000
  H   H97       1.0  0.43089  0.18590  0.08105  1.0000
  C   C60       1.0  0.19427  0.08177  0.10428  1.0000
  H   H98       1.0  0.05191  0.20351  0.30232  1.0000
  H   H99       1.0  0.30084  0.09305  0.99916  1.0000
  H   H100      1.0  0.16786  0.20672  0.41758  1.0000
  H   H101      1.0  0.11879  0.17933  0.33798  1.0000
  H   H102      1.0  0.08784  0.16377  0.36084  1.0000
  H   H103      1.0  0.12105  0.14901  0.37737  1.0000
  H   H104      1.0  0.08862  0.12068  0.36490  1.0000
  H   H105      1.0  0.11819  0.13397  0.33907  1.0000
  C   C61       1.0  0.27872  0.09494  0.11512  1.0000
  H   H106      1.0  0.27991  0.24402  0.42805  1.0000
  C   C62       1.0  0.37667  0.01203  0.14172  1.0000
  H   H107      1.0  0.22180  0.06498  0.45517  1.0000
  H   H108      1.0  0.15384  0.20878  0.38006  1.0000
  H   H109      1.0  0.18868  0.06160  0.09377  1.0000
  N   N2        1.0  0.26038  0.19867  0.27470  1.0000
  C   C63       1.0  0.28519  0.21712  0.25472  1.0000
  C   C64       1.0  0.26196  0.21156  0.30666  1.0000
  C   C65       1.0  0.26119  0.17262  0.28043  1.0000
  C   C66       1.0  0.23372  0.19138  0.25835  1.0000
  C   C67       1.0  0.23020  0.21553  0.24673  1.0000
  C   C68       1.0  0.23838  0.15110  0.30235  1.0000
  N   N3        1.0  0.39050  0.24537  0.41694  1.0000
  C   C69       1.0  0.22397  0.09626  0.11584  1.0000
  C   C70       1.0  0.24384  0.12787  0.31072  1.0000
  H   H110      1.0  0.26722  0.18895  0.21313  1.0000
  H   H111      1.0  0.30976  0.05951  0.36965  1.0000
  H   H112      1.0  0.24109  0.20275  0.31731  1.0000
  H   H113      1.0  0.27395  0.20650  0.32371  1.0000
  H   H114      1.0  0.28141  0.17758  0.29077  1.0000
  H   H115      1.0  0.25945  0.16189  0.25777  1.0000
  H   H116      1.0  0.21607  0.17914  0.27450  1.0000
  H   H117      1.0  0.14140  0.21582  0.41633  1.0000
  H   H118      1.0  0.21821  0.14192  0.29025  1.0000
  H   H119      1.0  0.23691  0.16018  0.32496  1.0000
  H   H120      1.0  0.29337  0.17724  0.46748  1.0000
  Fe  Fe12      1.0  0.45508  0.17214  0.48117  1.0000
  H   H121      1.0  0.23727  0.21697  0.14973  1.0000
  C   C71       1.0  0.05569  0.13097  0.24931  1.0000
  C   C72       1.0  0.30949  0.04917  0.39221  1.0000
  H   H122      1.0  0.22670  0.11243  0.32554  1.0000
  H   H123      1.0  0.24529  0.11767  0.28896  1.0000
  H   H124      1.0  0.26313  0.13580  0.32454  1.0000
  H   H125      1.0  0.36230  0.03468  0.39133  1.0000
  H   H126      1.0  0.25584  0.15411  0.09476  1.0000
  H   H127      1.0  0.27348  0.13474  0.14022  1.0000
  N   N4        1.0  0.27414  0.11516  0.09639  1.0000
  H   H128      1.0  0.26925  0.01881  0.99412  1.0000
  H   H129      1.0  0.21094  0.19899  0.20114  1.0000
  C   C73       1.0  0.37424  0.24193  0.44684  1.0000
  C   C74       1.0  0.03627  0.15346  0.34594  1.0000
  C   C75       1.0  0.48244  0.14583  0.09796  1.0000
  C   C76       1.0  0.25808  0.08861  0.42712  1.0000
  C   C77       1.0  0.24285  0.07556  0.39641  1.0000
  C   C78       1.0  0.44566  0.19770  0.06180  1.0000
  C   C79       1.0  0.28802  0.09975  0.04514  1.0000
  H   H130      1.0  0.29086  0.01046  0.36926  1.0000
  C   C80       1.0  0.27556  0.24318  0.30797  1.0000
  H   H131      1.0  0.25893  0.10857  0.42965  1.0000
  H   H132      1.0  0.27932  0.09240  0.42438  1.0000
  H   H133      1.0  0.29694  0.07564  0.16407  1.0000
  H   H134      1.0  0.24251  0.05599  0.39202  1.0000
  H   H135      1.0  0.22144  0.07160  0.39756  1.0000
  C   C81       1.0  0.02916  0.19247  0.09370  1.0000
  H   H136      1.0  0.39841  0.02112  0.13400  1.0000
  H   H137      1.0  0.48956  0.10944  0.15781  1.0000
  C   C82       1.0  0.24351  0.06977  0.45602  1.0000
  H   H138      1.0  0.27038  0.07517  0.10226  1.0000
  C   C83       1.0  0.05545  0.13084  0.21310  1.0000
  Fe  Fe13      1.0  0.16264  0.23809  0.16715  1.0000
  H   H139      1.0  0.28772  0.24926  0.14899  1.0000
  H   H140      1.0  0.04300  0.14113  0.35982  1.0000
  H   H141      1.0  0.29844  0.08974  0.05659  1.0000
  H   H142      1.0  0.05257  0.20829  0.01064  1.0000
  H   H143      1.0  0.35571  0.22000  0.11012  1.0000
  H   H144      1.0  0.48067  0.22095  0.15208  1.0000
  H   H145      1.0  0.30550  0.15099  0.12051  1.0000
  C   C84       1.0  0.37057  0.23641  0.38960  1.0000
  H   H146      1.0  0.38112  0.23890  0.36665  1.0000
  H   H147      1.0  0.18724  0.18842  0.23386  1.0000
  H   H148      1.0  0.24941  0.04289  0.00086  1.0000
  C   C85       1.0  0.49324  0.23944  0.46119  1.0000
  H   H149      1.0  0.26711  0.01842  0.38903  1.0000
  C   C86       1.0  0.30133  0.11013  0.01267  1.0000
  C   C87       1.0  0.00613  0.14273  0.35428  1.0000
  H   H150      1.0  0.33129  0.09941  0.45013  1.0000
  H   H151      1.0  0.46260  0.19298  0.06246  1.0000
  C   C88       1.0  0.30875  0.19773  0.21976  1.0000
  C   C89       1.0  0.38825  0.03439  0.46386  1.0000
  H   H152      1.0  0.40876  0.18378  0.39528  1.0000
  H   H153      1.0  0.28889  0.01454  0.44211  1.0000
  H   H154      1.0  0.22581  0.22499  0.26727  1.0000
  S   S23       1.0  0.16300  0.24342  0.28599  1.0000
  H   H155      1.0  0.20042  0.24910  0.39125  1.0000
  H   H156      1.0  0.37532  0.02484  0.16077  1.0000
  C   C90       1.0  0.27313  0.25268  0.34108  1.0000
  H   H157      1.0  0.25144  0.24638  0.34654  1.0000
  C   C91       1.0  0.38224  0.00696  0.46448  1.0000
  H   H158      1.0  0.26612  0.25096  0.29096  1.0000
  C   C92       1.0  0.45714  0.22843  0.06627  1.0000
  H   H159      1.0  0.08857  0.24849  0.08049  1.0000
  H   H160      1.0  0.04086  0.24397  0.19191  1.0000
  C   C93       1.0  0.43419  0.23576  0.06358  1.0000
  H   H161      1.0  0.04525  0.25063  0.08205  1.0000
  H   H162      1.0  0.43973  0.02407  0.98857  1.0000
  H   H163      1.0  0.23861  0.07939  0.98991  1.0000
  H   H164      1.0  0.33577  0.24122  0.40415  1.0000
  H   H165      1.0  0.50075  0.20400  0.15502  1.0000
  H   H166      1.0  0.47278  0.23915  0.04757  1.0000
  H   H167      1.0  0.39155  0.23791  0.03346  1.0000
  C   C94       1.0  0.03407  0.20643  0.99885  1.0000
  H   H168      1.0  0.33433  0.07273  0.46990  1.0000
  C   C95       1.0  0.28800  0.00306  0.42038  1.0000
  H   H169      1.0  0.46689  0.23366  0.08987  1.0000
  H   H170      1.0  0.43061  0.23431  0.12842  1.0000
  C   C96       1.0  0.32703  0.08764  0.47259  1.0000
  H   H171      1.0  0.40129  0.25220  0.08935  1.0000
  H   H172      1.0  0.50491  0.10120  0.03606  1.0000
  S   S24       1.0  0.17697  0.09721  0.48311  1.0000
  C   C97       1.0  0.41771  0.00969  0.99367  1.0000
  H   H173      1.0  0.20786  0.04646  0.99298  1.0000
  C   C98       1.0  0.14663  0.00686  0.46081  1.0000
  C   C99       1.0  0.35322  0.25080  0.38712  1.0000
  C   C100      1.0  0.34116  0.24804  0.35402  1.0000
  H   H174      1.0  0.06575  0.25242  0.24119  1.0000
  S   S25       1.0  0.11772  0.25289  0.22209  1.0000
  H   H175      1.0  0.39452  0.23111  0.48429  1.0000
  C   C101      1.0  0.01537  0.17683  0.98842  1.0000
  C   C102      1.0  0.29635  0.07260  0.47999  1.0000
  H   H176      1.0  0.35743  0.03396  0.90966  1.0000
  H   H177      1.0  0.29514  0.10136  0.51169  1.0000
  Fe  Fe14      1.0  0.20667  0.04963  0.78758  1.0000
  S   S26       1.0  0.22782  0.06737  0.83352  1.0000
  C   C103      1.0  0.49980  0.16704  0.57700  1.0000
  Fe  Fe15      1.0  0.17637  0.08216  0.78716  1.0000
  S   S27       1.0  0.19445  0.10177  0.83395  1.0000
  S   S28       1.0  0.15162  0.09216  0.75229  1.0000
  Fe  Fe16      1.0  0.23414  0.10742  0.81468  1.0000
  S   S29       1.0  0.27335  0.14744  0.82373  1.0000
  Fe  Fe17      1.0  0.18651  0.05997  0.84914  1.0000
  S   S30       1.0  0.17457  0.04539  0.89976  1.0000
  S   S31       1.0  0.21674  0.09035  0.76703  1.0000
  S   S32       1.0  0.16468  0.03958  0.80403  1.0000
  Fe  Fe18      1.0  0.43403  0.13473  0.53795  1.0000
  S   S33       1.0  0.44544  0.12861  0.58745  1.0000
  Fe  Fe19      1.0  0.08700  0.20829  0.66850  1.0000
  S   S34       1.0  0.06455  0.18298  0.71095  1.0000
  S   S35       1.0  0.07791  0.19355  0.61799  1.0000
  H   H178      1.0  0.20615  0.06062  0.52484  1.0000
  H   H179      1.0  0.03012  0.15783  0.65625  1.0000
  Fe  Fe20      1.0  0.10558  0.20392  0.73515  1.0000
  S   S36       1.0  0.12190  0.18614  0.77195  1.0000
  Fe  Fe21      1.0  0.06131  0.21969  0.72440  1.0000
  H   H180      1.0  0.20951  0.00361  0.97536  1.0000
  Fe  Fe22      1.0  0.39698  0.15220  0.50515  1.0000
  H   H181      1.0  0.24659  0.04136  0.50515  1.0000
  C   C104      1.0  0.47934  0.15169  0.59927  1.0000
  H   H182      1.0  0.37669  0.06248  0.82771  1.0000
  C   C105      1.0  0.03424  0.17042  0.57711  1.0000
  C   C106      1.0  0.04292  0.17231  0.60860  1.0000
  H   H183      1.0  0.46907  0.22409  0.62079  1.0000
  C   C107      1.0  0.48601  0.15452  0.63156  1.0000
  C   C108      1.0  0.50527  0.22823  0.66575  1.0000
  H   H184      1.0  0.04897  0.18167  0.55865  1.0000
  H   H185      1.0  0.37990  0.16554  0.72146  1.0000
  H   H186      1.0  0.47031  0.14256  0.64888  1.0000
  C   C109      1.0  0.22760  0.01686  0.96001  1.0000
  C   C110      1.0  0.24965  0.10378  0.49581  1.0000
  C   C111      1.0  0.24314  0.05839  0.51221  1.0000
  C   C112      1.0  0.29080  0.16760  0.79050  1.0000
  C   C113      1.0  0.31179  0.19481  0.79450  1.0000
  C   C114      1.0  0.32634  0.21085  0.76812  1.0000
  C   C115      1.0  0.32002  0.19954  0.73775  1.0000
  C   C116      1.0  0.29900  0.17243  0.73385  1.0000
  C   C117      1.0  0.28438  0.15660  0.76011  1.0000
  H   H187      1.0  0.31695  0.20342  0.81804  1.0000
  C   C118      1.0  0.05550  0.11455  0.68832  1.0000
  H   H188      1.0  0.26847  0.13570  0.75687  1.0000
  C   C119      1.0  0.14304  0.11800  0.75827  1.0000
  C   C120      1.0  0.13411  0.12727  0.73236  1.0000
  C   C121      1.0  0.12761  0.14820  0.73616  1.0000
  C   C122      1.0  0.12951  0.15963  0.76599  1.0000
  C   C123      1.0  0.13829  0.15027  0.79187  1.0000
  C   C124      1.0  0.14506  0.12956  0.78805  1.0000
  H   H189      1.0  0.13265  0.11848  0.70923  1.0000
  H   H190      1.0  0.12155  0.15582  0.71610  1.0000
  H   H191      1.0  0.13980  0.15903  0.81505  1.0000
  H   H192      1.0  0.15171  0.12245  0.80819  1.0000
  H   H193      1.0  0.25270  0.17804  0.70065  1.0000
  C   C125      1.0  0.35770  0.02541  0.95940  1.0000
  C   C126      1.0  0.15904  0.01043  0.91037  1.0000
  H   H194      1.0  0.14205  0.20482  0.52010  1.0000
  S   S37       1.0  0.45318  0.13213  0.49222  1.0000
  H   H195      1.0  0.28530  0.11089  0.87967  1.0000
  C   C127      1.0  0.15698  0.00348  0.94259  1.0000
  H   H196      1.0  0.31684  0.04069  0.89953  1.0000
  H   H197      1.0  0.39016  0.21610  0.68236  1.0000
  H   H198      1.0  0.02456  0.05754  0.61108  1.0000
  H   H199      1.0  0.06540  0.13780  0.62876  1.0000
  H   H200      1.0  0.11211  0.13329  0.66111  1.0000
  H   H201      1.0  0.06212  0.11417  0.75425  1.0000
  C   C128      1.0  0.21176  0.04528  0.51715  1.0000
  H   H202      1.0  0.12500  0.23803  0.51025  1.0000
  H   H203      1.0  0.27146  0.07592  0.77255  1.0000
  C   C129      1.0  0.25583  0.21551  0.74903  1.0000
  H   H204      1.0  0.49622  0.24757  0.56556  1.0000
  H   H205      1.0  0.07614  0.12432  0.69937  1.0000
  C   C130      1.0  0.02239  0.07603  0.61043  1.0000
  H   H206      1.0  0.49352  0.11586  0.76325  1.0000
  C   C131      1.0  0.27633  0.00481  0.90686  1.0000
  H   H207      1.0  0.25572  0.01927  0.72265  1.0000
  C   C132      1.0  0.35058  0.01814  0.92761  1.0000
  C   C133      1.0  0.37311  0.24919  0.50600  1.0000
  H   H208      1.0  0.01967  0.10370  0.64365  1.0000
  H   H209      1.0  0.27060  0.20796  0.75218  1.0000
  H   H210      1.0  0.14411  0.17595  0.63206  1.0000
  C   C134      1.0  0.01690  0.24168  0.74181  1.0000
  S   S38       1.0  0.36471  0.16379  0.51570  1.0000
  H   H211      1.0  0.27410  0.07471  0.87862  1.0000
  H   H212      1.0  0.06883  0.07202  0.61208  1.0000
  H   H213      1.0  0.28772  0.07907  0.82110  1.0000
  C   C135      1.0  0.01552  0.22613  0.64034  1.0000
  C   C136      1.0  0.06501  0.08124  0.66232  1.0000
  H   H214      1.0  0.34266  0.23173  0.77130  1.0000
  H   H215      1.0  0.26286  0.15578  0.51891  1.0000
  H   H216      1.0  0.30702  0.24508  0.72017  1.0000
  N   N5        1.0  0.05585  0.10200  0.65687  1.0000
  C   C137      1.0  0.46914  0.24746  0.74370  1.0000
  C   C138      1.0  0.34900  0.00481  0.98243  1.0000
  H   H217      1.0  0.03678  0.09074  0.59271  1.0000
  C   C139      1.0  0.26355  0.23256  0.71785  1.0000
  N   N6        1.0  0.25568  0.08120  0.48808  1.0000
  H   H218      1.0  0.20161  0.12059  0.70039  1.0000
  H   H219      1.0  0.40519  0.02379  0.88925  1.0000
  C   C140      1.0  0.00630  0.15452  0.56938  1.0000
  H   H220      1.0  0.20074  0.03581  0.49487  1.0000
  C   C141      1.0  0.24982  0.13814  0.53460  1.0000
  H   H221      1.0  0.29410  0.16360  0.71040  1.0000
  H   H222      1.0  0.29283  0.05888  0.50058  1.0000
  C   C142      1.0  0.12395  0.16119  0.62163  1.0000
  C   C143      1.0  0.14803  0.21318  0.54442  1.0000
  H   H223      1.0  0.25388  0.14529  0.55952  1.0000
  H   H224      1.0  0.25939  0.21963  0.69667  1.0000
  H   H225      1.0  0.16753  0.21089  0.71760  1.0000
  H   H226      1.0  0.08429  0.22906  0.56593  1.0000
  H   H227      1.0  0.46938  0.18942  0.65733  1.0000
  H   H228      1.0  0.35937  0.18173  0.72213  1.0000
  C   C144      1.0  0.29198  0.09547  0.88245  1.0000
  H   H229      1.0  0.39894  0.03376  0.83397  1.0000
  H   H230      1.0  0.22608  0.00395  0.81854  1.0000
  H   H231      1.0  0.35909  0.05324  0.79016  1.0000
  C   C145      1.0  0.03957  0.23299  0.55149  1.0000
  H   H232      1.0  0.43245  0.21823  0.69276  1.0000
  H   H233      1.0  0.06461  0.03297  0.64463  1.0000
  C   C146      1.0  0.08460  0.05220  0.64188  1.0000
  S   S39       1.0  0.10005  0.23852  0.75291  1.0000
  H   H234      1.0  0.02418  0.24207  0.62155  1.0000
  H   H235      1.0  0.39435  0.20037  0.73565  1.0000
  H   H236      1.0  0.03455  0.21953  0.53051  1.0000
  H   H237      1.0  0.02707  0.17139  0.97168  1.0000
  H   H238      1.0  0.10074  0.09454  0.63088  1.0000
  C   C147      1.0  0.47412  0.20981  0.66595  1.0000
  H   H239      1.0  0.21910  0.02063  0.93797  1.0000
  C   C148      1.0  0.35832  0.05974  0.81478  1.0000
  H   H240      1.0  0.14834  0.04809  0.52064  1.0000
  C   C149      1.0  0.26628  0.01986  0.92931  1.0000
  N   N7        1.0  0.32657  0.10690  0.79876  1.0000
  C   C150      1.0  0.35238  0.13400  0.80425  1.0000
  C   C151      1.0  0.33328  0.08411  0.79541  1.0000
  C   C152      1.0  0.31434  0.10934  0.76787  1.0000
  C   C153      1.0  0.30543  0.10007  0.82448  1.0000
  C   C154      1.0  0.31502  0.10119  0.85905  1.0000
  C   C155      1.0  0.34874  0.15948  0.80604  1.0000
  C   C156      1.0  0.28898  0.08283  0.75588  1.0000
  C   C157      1.0  0.35783  0.08657  0.81488  1.0000
  S   S40       1.0  0.39077  0.11115  0.51947  1.0000
  C   C158      1.0  0.37553  0.18505  0.81525  1.0000
  C   C159      1.0  0.27955  0.08735  0.72361  1.0000
  H   H241      1.0  0.36747  0.13790  0.78495  1.0000
  H   H242      1.0  0.36279  0.13364  0.82639  1.0000
  H   H243      1.0  0.31487  0.06386  0.80089  1.0000
  H   H244      1.0  0.33857  0.08248  0.77034  1.0000
  H   H245      1.0  0.33018  0.11698  0.74875  1.0000
  H   H246      1.0  0.30744  0.12458  0.76989  1.0000
  H   H247      1.0  0.29649  0.11367  0.82270  1.0000
  H   H248      1.0  0.33260  0.12160  0.86487  1.0000
  H   H249      1.0  0.32069  0.08528  0.86313  1.0000
  H   H250      1.0  0.34272  0.16386  0.78267  1.0000
  H   H251      1.0  0.33298  0.15652  0.82385  1.0000
  H   H252      1.0  0.29386  0.06625  0.75312  1.0000
  H   H253      1.0  0.37743  0.10265  0.80424  1.0000
  H   H254      1.0  0.35745  0.09215  0.83984  1.0000
  H   H255      1.0  0.21119  0.03109  0.56547  1.0000
  H   H256      1.0  0.39203  0.18911  0.79794  1.0000
  H   H257      1.0  0.37243  0.20303  0.81539  1.0000
  H   H258      1.0  0.38206  0.18265  0.83931  1.0000
  H   H259      1.0  0.26102  0.06819  0.71603  1.0000
  H   H260      1.0  0.27411  0.10371  0.72490  1.0000
  H   H261      1.0  0.29588  0.09300  0.70553  1.0000
  N   N8        1.0  0.42917  0.20611  0.64376  1.0000
  C   C160      1.0  0.41999  0.22393  0.62718  1.0000
  C   C161      1.0  0.41875  0.20053  0.67756  1.0000
  H   H262      1.0  0.22163  0.23829  0.75500  1.0000
  C   C162      1.0  0.42057  0.17981  0.62616  1.0000
  C   C163      1.0  0.38939  0.16100  0.62092  1.0000
  C   C164      1.0  0.28634  0.09299  0.48805  1.0000
  H   H263      1.0  0.28453  0.03573  0.94230  1.0000
  C   C165      1.0  0.38971  0.19623  0.68433  1.0000
  C   C166      1.0  0.38037  0.18529  0.71798  1.0000
  C   C167      1.0  0.38360  0.13823  0.59744  1.0000
  C   C168      1.0  0.29950  0.02507  0.88532  1.0000
  H   H264      1.0  0.30709  0.01392  0.87063  1.0000
  H   H265      1.0  0.49489  0.16479  0.55201  1.0000
  H   H266      1.0  0.39736  0.21457  0.62759  1.0000
  H   H267      1.0  0.41965  0.18258  0.68722  1.0000
  H   H268      1.0  0.36684  0.00837  0.85118  1.0000
  H   H269      1.0  0.11628  0.17286  0.60799  1.0000
  H   H270      1.0  0.23640  0.12914  0.70970  1.0000
  H   H271      1.0  0.43114  0.18414  0.60275  1.0000
  H   H272      1.0  0.42749  0.16704  0.63888  1.0000
  H   H273      1.0  0.37960  0.17237  0.61143  1.0000
  H   H274      1.0  0.37944  0.15090  0.64359  1.0000
  H   H275      1.0  0.24055  0.17394  0.85861  1.0000
  H   H276      1.0  0.41866  0.21189  0.57732  1.0000
  H   H277      1.0  0.42392  0.01493  0.86176  1.0000
  H   H278      1.0  0.42776  0.24359  0.64025  1.0000
  H   H279      1.0  0.04713  0.06109  0.66914  1.0000
  H   H280      1.0  0.37398  0.18195  0.66770  1.0000
  H   H281      1.0  0.21841  0.17014  0.68954  1.0000
  H   H282      1.0  0.22768  0.09702  0.49142  1.0000
  H   H283      1.0  0.01258  0.07157  0.65963  1.0000
  H   H284      1.0  0.39224  0.14709  0.57387  1.0000
  H   H285      1.0  0.39258  0.12572  0.60581  1.0000
  H   H286      1.0  0.36111  0.12466  0.59478  1.0000
  C   C169      1.0  0.24385  0.04515  0.97630  1.0000
  H   H287      1.0  0.48677  0.07168  0.63843  1.0000
  C   C170      1.0  0.38738  0.01247  0.84317  1.0000
  H   H288      1.0  0.07927  0.08723  0.68292  1.0000
  H   H289      1.0  0.10865  0.20792  0.55627  1.0000
  H   H290      1.0  0.02620  0.09378  0.76385  1.0000
  H   H291      1.0  0.33979  0.04333  0.82681  1.0000
  H   H292      1.0  0.24445  0.09914  0.54779  1.0000
  H   H293      1.0  0.17458  0.24502  0.81832  1.0000
  C   C171      1.0  0.13025  0.22495  0.55586  1.0000
  H   H294      1.0  0.16460  0.01943  0.96025  1.0000
  H   H295      1.0  0.03684  0.07594  0.71594  1.0000
  H   H296      1.0  0.29189  0.03538  0.86914  1.0000
  C   C172      1.0  0.07469  0.12499  0.63491  1.0000
  S   S41       1.0  0.01892  0.21192  0.73612  1.0000
  H   H297      1.0  0.25180  0.24343  0.71539  1.0000
  S   S42       1.0  0.21345  0.02040  0.75780  1.0000
  C   C173      1.0  0.08018  0.07629  0.63464  1.0000
  C   C174      1.0  0.10380  0.14464  0.64803  1.0000
  C   C175      1.0  0.23877  0.01272  0.76968  1.0000
  C   C176      1.0  0.25686  0.01317  0.74668  1.0000
  H   H298      1.0  0.49188  0.21569  0.55082  1.0000
  C   C177      1.0  0.03526  0.09471  0.71368  1.0000
  H   H299      1.0  0.26283  0.05889  0.96288  1.0000
  S   S43       1.0  0.12858  0.22614  0.69115  1.0000
  H   H300      1.0  0.07707  0.11711  0.61184  1.0000
  H   H301      1.0  0.22108  0.20738  0.79711  1.0000
  C   C178      1.0  0.20182  0.22011  0.74856  1.0000
  H   H302      1.0  0.08161  0.23044  0.52452  1.0000
  H   H303      1.0  0.26070  0.23053  0.76839  1.0000
  H   H304      1.0  0.13644  0.23220  0.58048  1.0000
  H   H305      1.0  0.29936  0.09655  0.90708  1.0000
  H   H306      1.0  0.03896  0.12684  0.74546  1.0000
  H   H307      1.0  0.35359  0.22947  0.50859  1.0000
  C   C179      1.0  0.18721  0.22892  0.72492  1.0000
  H   H308      1.0  0.22036  0.06220  0.95453  1.0000
  H   H309      1.0  0.20670  0.16737  0.84850  1.0000
  H   H310      1.0  0.01382  0.08871  0.70740  1.0000
  H   H311      1.0  0.14527  0.19632  0.56041  1.0000
  H   H312      1.0  0.23510  0.20228  0.85053  1.0000
  H   H313      1.0  0.46740  0.20768  0.69101  1.0000
  H   H314      1.0  0.10281  0.15944  0.66455  1.0000
  H   H315      1.0  0.09603  0.04949  0.62207  1.0000
  S   S44       1.0  0.33817  0.21813  0.70406  1.0000
  H   H316      1.0  0.12692  0.14748  0.60531  1.0000
  H   H317      1.0  0.02600  0.21388  0.63908  1.0000
  C   C180      1.0  0.46021  0.22203  0.64485  1.0000
  H   H318      1.0  0.01973  0.23636  0.66377  1.0000
  H   H319      1.0  0.21134  0.20129  0.70950  1.0000
  C   C181      1.0  0.42866  0.23075  0.59190  1.0000
  C   C182      1.0  0.02368  0.15690  0.63201  1.0000
  H   H320      1.0  0.09677  0.05599  0.66393  1.0000
  H   H321      1.0  0.45456  0.22589  0.74136  1.0000
  H   H322      1.0  0.22785  0.13071  0.52934  1.0000
  S   S45       1.0  0.43833  0.17563  0.52785  1.0000
  H   H323      1.0  0.20532  0.00612  0.53502  1.0000
  H   H324      1.0  0.18877  0.21266  0.77019  1.0000
  H   H325      1.0  0.22971  0.15812  0.80409  1.0000
  C   C183      1.0  0.22657  0.05910  0.97851  1.0000
  H   H326      1.0  0.48754  0.09665  0.61104  1.0000
  H   H327      1.0  0.32099  0.17580  0.51236  1.0000
  H   H328      1.0  0.22801  0.13503  0.67041  1.0000
  H   H329      1.0  0.25351  0.06540  0.53554  1.0000
  N   N9        1.0  0.22667  0.19204  0.75230  1.0000
  C   C184      1.0  0.20608  0.19697  0.73496  1.0000
  C   C185      1.0  0.22413  0.16558  0.74068  1.0000
  C   C186      1.0  0.21878  0.18817  0.78699  1.0000
  H   H330      1.0  0.25773  0.19306  0.80519  1.0000
  C   C187      1.0  0.23534  0.17962  0.80883  1.0000
  C   C188      1.0  0.23047  0.16438  0.70525  1.0000
  C   C189      1.0  0.22366  0.13549  0.69599  1.0000
  H   H331      1.0  0.25984  0.03149  0.91348  1.0000
  C   C190      1.0  0.22896  0.18099  0.84374  1.0000
  H   H332      1.0  0.18562  0.17799  0.73519  1.0000
  H   H333      1.0  0.27864  0.12399  0.53528  1.0000
  H   H334      1.0  0.23837  0.16082  0.75364  1.0000
  H   H335      1.0  0.20311  0.14822  0.74583  1.0000
  H   H336      1.0  0.19676  0.17249  0.78988  1.0000
  C   C191      1.0  0.20127  0.02269  0.54229  1.0000
  C   C192      1.0  0.25653  0.11527  0.53001  1.0000
  H   H337      1.0  0.17008  0.22918  0.54448  1.0000
  S   S46       1.0  0.37860  0.06018  0.96935  1.0000
  S   S47       1.0  0.08187  0.24402  0.68068  1.0000
  C   C193      1.0  0.08873  0.24360  0.54598  1.0000
  H   H338      1.0  0.05058  0.13118  0.68467  1.0000
  H   H339      1.0  0.04080  0.22051  0.97812  1.0000
  H   H340      1.0  0.33872  0.10195  0.49201  1.0000
  H   H341      1.0  0.29183  0.00852  0.73713  1.0000
  H   H342      1.0  0.03516  0.22038  0.57328  1.0000
  H   H343      1.0  0.02594  0.24192  0.55117  1.0000
  H   H344      1.0  0.18264  0.24400  0.73615  1.0000
  H   H345      1.0  0.39761  0.24180  0.58057  1.0000
  C   C194      1.0  0.40314  0.00905  0.87064  1.0000
  C   C195      1.0  0.04107  0.10829  0.74623  1.0000
  C   C196      1.0  0.02700  0.08862  0.64393  1.0000
  C   C197      1.0  0.15149  0.04225  0.49732  1.0000
  H   H346      1.0  0.46751  0.24325  0.65344  1.0000
  H   H347      1.0  0.17875  0.01366  0.54518  1.0000
  H   H348      1.0  0.20022  0.23853  0.70367  1.0000
  H   H349      1.0  0.42673  0.01297  0.93188  1.0000
  C   C198      1.0  0.14247  0.01452  0.49087  1.0000
  C   C199      1.0  0.27711  0.00679  0.75478  1.0000
  C   C200      1.0  0.42016  0.25060  0.57858  1.0000
  H   H350      1.0  0.45115  0.24062  0.58881  1.0000
  C   C201      1.0  0.13322  0.24817  0.53339  1.0000
  C   C202      1.0  0.32437  0.17065  0.48876  1.0000
  C   C203      1.0  0.50048  0.09016  0.62417  1.0000
  H   H351      1.0  0.50173  0.14098  0.73242  1.0000
  H   H352      1.0  0.00627  0.14366  0.86742  1.0000
  C   C204      1.0  0.24031  0.00471  0.80076  1.0000
  C   C205      1.0  0.49244  0.28884  0.45691  1.0000
  S   S48       1.0  0.16797  0.46950  0.05938  1.0000
  Fe  Fe23      1.0  0.09911  0.43633  0.10731  1.0000
  S   S49       1.0  0.10364  0.41962  0.06090  1.0000
  S   S50       1.0  0.06248  0.41237  0.14026  1.0000
  Fe  Fe24      1.0  0.14399  0.42705  0.07989  1.0000
  S   S51       1.0  0.15597  0.39477  0.07076  1.0000
  Fe  Fe25      1.0  0.12714  0.46357  0.04473  1.0000
  C   C206      1.0  0.43802  0.25639  0.13189  1.0000
  S   S52       1.0  0.13865  0.44163  0.12734  1.0000
  H   H353      1.0  0.23552  0.28222  0.36980  1.0000
  S   S53       1.0  0.37537  0.28370  0.12662  1.0000
  H   H354      1.0  0.06349  0.47366  0.42424  1.0000
  Fe  Fe26      1.0  0.38852  0.31128  0.21260  1.0000
  S   S54       1.0  0.39129  0.33735  0.17085  1.0000
  S   S55       1.0  0.38870  0.32160  0.26452  1.0000
  Fe  Fe27      1.0  0.35266  0.29990  0.15493  1.0000
  S   S56       1.0  0.31915  0.30867  0.13974  1.0000
  Fe  Fe28      1.0  0.41415  0.31922  0.14624  1.0000
  S   S57       1.0  0.44788  0.33867  0.10856  1.0000
  S   S58       1.0  0.34895  0.27481  0.19780  1.0000
  S   S59       1.0  0.41481  0.29632  0.18969  1.0000
  Fe  Fe29      1.0  0.34123  0.41098  0.34797  1.0000
  S   S60       1.0  0.36482  0.41753  0.39295  1.0000
  S   S61       1.0  0.36160  0.41466  0.30067  1.0000
  Fe  Fe30      1.0  0.28799  0.39590  0.38312  1.0000
  S   S62       1.0  0.30734  0.39991  0.43064  1.0000
  S   S63       1.0  0.24379  0.38432  0.37444  1.0000
  Fe  Fe31      1.0  0.34258  0.43884  0.41043  1.0000
  S   S64       1.0  0.35764  0.47621  0.44207  1.0000
  Fe  Fe32      1.0  0.32763  0.37845  0.40835  1.0000
  S   S65       1.0  0.33416  0.34438  0.42610  1.0000
  S   S66       1.0  0.32199  0.43572  0.36386  1.0000
  S   S67       1.0  0.30524  0.37103  0.36248  1.0000
  S   S68       1.0  0.15002  0.32180  0.18823  1.0000
  H   H355      1.0  0.22323  0.33005  0.46597  1.0000
  S   S69       1.0  0.18059  0.27253  0.20195  1.0000
  H   H356      1.0  0.20282  0.40865  0.99799  1.0000
  H   H357      1.0  0.06473  0.45316  0.35689  1.0000
  H   H358      1.0  0.46822  0.41998  0.39317  1.0000
  S   S70       1.0  0.13309  0.44911  0.40450  1.0000
  H   H359      1.0  0.38213  0.28587  0.04868  1.0000
  H   H360      1.0  0.42051  0.28725  0.07892  1.0000
  S   S71       1.0  0.11142  0.37752  0.43381  1.0000
  H   H361      1.0  0.22630  0.38360  0.02438  1.0000
  H   H362      1.0  0.30178  0.47735  0.99702  1.0000
  C   C207      1.0  0.06204  0.28706  0.17420  1.0000
  H   H363      1.0  0.24936  0.44912  0.40029  1.0000
  H   H364      1.0  0.20313  0.29381  0.47478  1.0000
  H   H365      1.0  0.31796  0.29316  0.25657  1.0000
  Fe  Fe33      1.0  0.07225  0.36055  0.46163  1.0000
  H   H366      1.0  0.21727  0.45665  0.12321  1.0000
  C   C208      1.0  0.23220  0.40030  0.07210  1.0000
  H   H367      1.0  0.34071  0.48739  0.05891  1.0000
  C   C209      1.0  0.25668  0.30698  0.32935  1.0000
  H   H368      1.0  0.20492  0.42150  0.11387  1.0000
  H   H369      1.0  0.15584  0.34349  0.07429  1.0000
  H   H370      1.0  0.02124  0.35487  0.38230  1.0000
  C   C210      1.0  0.22295  0.38192  0.40693  1.0000
  C   C211      1.0  0.23094  0.38136  0.43817  1.0000
  H   H371      1.0  0.06301  0.36036  0.37455  1.0000
  C   C212      1.0  0.16460  0.50136  0.38144  1.0000
  C   C213      1.0  0.17987  0.37685  0.42649  1.0000
  C   C214      1.0  0.19732  0.37956  0.40122  1.0000
  H   H372      1.0  0.25047  0.38283  0.44290  1.0000
  H   H373      1.0  0.04965  0.42134  0.42025  1.0000
  H   H374      1.0  0.16011  0.37482  0.42170  1.0000
  H   H375      1.0  0.19083  0.37962  0.37711  1.0000
  C   C215      1.0  0.30371  0.31285  0.43101  1.0000
  C   C216      1.0  0.27972  0.31208  0.44118  1.0000
  C   C217      1.0  0.25615  0.28685  0.44760  1.0000
  H   H376      1.0  0.49476  0.40168  0.34188  1.0000
  H   H377      1.0  0.28278  0.28077  0.24469  1.0000
  C   C218      1.0  0.30375  0.28825  0.42622  1.0000
  C   C219      1.0  0.02305  0.29312  0.45384  1.0000
  H   H378      1.0  0.19947  0.43173  0.47660  1.0000
  C   C220      1.0  0.28372  0.28507  0.14369  1.0000
  C   C221      1.0  0.26520  0.29483  0.14155  1.0000
  C   C222      1.0  0.06513  0.26953  0.08627  1.0000
  H   H379      1.0  0.01058  0.41044  0.28796  1.0000
  H   H380      1.0  0.00969  0.25626  0.09193  1.0000
  C   C223      1.0  0.16016  0.49733  0.43847  1.0000
  H   H381      1.0  0.27288  0.31640  0.13775  1.0000
  H   H382      1.0  0.04585  0.40971  0.32618  1.0000
  C   C224      1.0  0.25812  0.48117  0.43539  1.0000
  C   C225      1.0  0.37958  0.34653  0.27335  1.0000
  C   C226      1.0  0.36542  0.34445  0.30158  1.0000
  C   C227      1.0  0.35970  0.36516  0.31019  1.0000
  C   C228      1.0  0.36855  0.38832  0.29089  1.0000
  C   C229      1.0  0.38327  0.39066  0.26313  1.0000
  C   C230      1.0  0.38839  0.36967  0.25408  1.0000
  H   H383      1.0  0.35895  0.32682  0.31687  1.0000
  H   H384      1.0  0.34869  0.36329  0.33191  1.0000
  H   H385      1.0  0.39068  0.40881  0.24852  1.0000
  H   H386      1.0  0.39987  0.37177  0.23267  1.0000
  C   C231      1.0  0.02832  0.40492  0.13392  1.0000
  C   C232      1.0  0.02100  0.41513  0.10776  1.0000
  H   H387      1.0  0.32232  0.28877  0.41842  1.0000
  C   C233      1.0  0.48401  0.35916  0.11303  1.0000
  C   C234      1.0  0.48614  0.40004  0.36598  1.0000
  C   C235      1.0  0.02397  0.36819  0.05205  1.0000
  H   H388      1.0  0.03653  0.42822  0.09081  1.0000
  C   C236      1.0  0.20814  0.46181  0.42170  1.0000
  H   H389      1.0  0.48382  0.36123  0.16387  1.0000
  H   H390      1.0  0.36399  0.25932  0.01988  1.0000
  C   C237      1.0  0.15296  0.37349  0.10304  1.0000
  C   C238      1.0  0.15027  0.38075  0.13384  1.0000
  C   C239      1.0  0.14929  0.36455  0.15958  1.0000
  C   C240      1.0  0.15066  0.34073  0.15478  1.0000
  C   C241      1.0  0.15282  0.33298  0.12395  1.0000
  C   C242      1.0  0.15407  0.34944  0.09810  1.0000
  H   H391      1.0  0.14950  0.39917  0.13799  1.0000
  H   H392      1.0  0.14761  0.37063  0.18338  1.0000
  H   H393      1.0  0.15385  0.31457  0.12009  1.0000
  H   H394      1.0  0.37980  0.39940  0.19322  1.0000
  N   N10       1.0  0.29528  0.35875  0.21927  1.0000
  C   C243      1.0  0.28906  0.36576  0.25153  1.0000
  C   C244      1.0  0.29045  0.32997  0.22044  1.0000
  C   C245      1.0  0.27706  0.36033  0.19413  1.0000
  C   C246      1.0  0.24570  0.34248  0.19979  1.0000
  C   C247      1.0  0.28883  0.39307  0.25375  1.0000
  C   C248      1.0  0.30884  0.32504  0.24377  1.0000
  C   C249      1.0  0.30450  0.29627  0.23985  1.0000
  C   C250      1.0  0.22969  0.34745  0.17388  1.0000
  C   C251      1.0  0.28339  0.39836  0.28774  1.0000
  H   H395      1.0  0.30457  0.36725  0.26905  1.0000
  H   H396      1.0  0.26904  0.34905  0.26060  1.0000
  H   H397      1.0  0.26896  0.31531  0.22762  1.0000
  H   H398      1.0  0.29271  0.32330  0.19641  1.0000
  H   H399      1.0  0.28109  0.35387  0.17089  1.0000
  H   H400      1.0  0.23945  0.34698  0.22288  1.0000
  H   H401      1.0  0.23930  0.32043  0.19917  1.0000
  H   H402      1.0  0.27252  0.39273  0.23867  1.0000
  H   H403      1.0  0.33086  0.33967  0.23975  1.0000
  H   H404      1.0  0.30380  0.32709  0.26867  1.0000
  S   S72       1.0  0.03069  0.32683  0.44579  1.0000
  H   H405      1.0  0.48540  0.43713  0.35799  1.0000
  H   H406      1.0  0.25144  0.31844  0.37598  1.0000
  H   H407      1.0  0.23447  0.36909  0.17397  1.0000
  H   H408      1.0  0.23456  0.34238  0.15022  1.0000
  H   H409      1.0  0.20735  0.33416  0.17814  1.0000
  H   H410      1.0  0.29995  0.40019  0.30359  1.0000
  H   H411      1.0  0.28300  0.41782  0.28881  1.0000
  H   H412      1.0  0.26335  0.38153  0.29647  1.0000
  H   H413      1.0  0.28742  0.49495  0.03762  1.0000
  H   H414      1.0  0.24686  0.28913  0.31317  1.0000
  H   H415      1.0  0.10508  0.40133  0.32691  1.0000
  H   H416      1.0  0.09473  0.32944  0.11188  1.0000
  H   H417      1.0  0.21684  0.42794  0.06182  1.0000
  H   H418      1.0  0.23245  0.47500  0.37726  1.0000
  H   H419      1.0  0.44195  0.25316  0.18256  1.0000
  H   H420      1.0  0.04449  0.37475  0.06226  1.0000
  C   C252      1.0  0.41589  0.26646  0.07150  1.0000
  H   H421      1.0  0.25326  0.47469  0.02238  1.0000
  H   H422      1.0  0.11300  0.47269  0.16238  1.0000
  H   H423      1.0  0.06210  0.35918  0.12272  1.0000
  H   H424      1.0  0.42556  0.27247  0.36466  1.0000
  H   H425      1.0  0.02395  0.42265  0.39798  1.0000
  H   H426      1.0  0.08640  0.45560  0.38927  1.0000
  H   H427      1.0  0.46703  0.30958  0.38746  1.0000
  H   H428      1.0  0.11890  0.48916  0.21786  1.0000
  C   C253      1.0  0.45516  0.27378  0.10316  1.0000
  H   H429      1.0  0.24445  0.43273  0.03755  1.0000
  H   H430      1.0  0.10777  0.28490  0.07252  1.0000
  H   H431      1.0  0.40003  0.37938  0.36090  1.0000
  C   C254      1.0  0.37517  0.26418  0.04275  1.0000
  H   H432      1.0  0.05210  0.27517  0.23862  1.0000
  H   H433      1.0  0.40751  0.29082  0.36911  1.0000
  C   C255      1.0  0.22056  0.43911  0.12742  1.0000
  C   C256      1.0  0.09844  0.38573  0.34609  1.0000
  C   C257      1.0  0.07975  0.33242  0.12583  1.0000
  C   C258      1.0  0.12067  0.30017  0.46425  1.0000
  C   C259      1.0  0.42007  0.38582  0.37274  1.0000
  H   H434      1.0  0.42005  0.39671  0.39456  1.0000
  C   C260      1.0  0.49188  0.29816  0.05045  1.0000
  H   H435      1.0  0.14260  0.31622  0.46280  1.0000
  C   C261      1.0  0.06839  0.40168  0.37302  1.0000
  S   S73       1.0  0.07641  0.40179  0.46978  1.0000
  C   C262      1.0  0.02895  0.39783  0.34345  1.0000
  C   C263      1.0  0.03737  0.26083  0.46954  1.0000
  H   H436      1.0  0.46039  0.29530  0.10766  1.0000
  H   H437      1.0  0.27039  0.49565  0.41604  1.0000
  C   C264      1.0  0.22405  0.47682  0.47603  1.0000
  C   C265      1.0  0.25003  0.44632  0.11775  1.0000
  C   C266      1.0  0.25540  0.47759  0.07442  1.0000
  H   H438      1.0  0.03771  0.31011  0.14212  1.0000
  H   H439      1.0  0.45196  0.41695  0.28112  1.0000
  H   H440      1.0  0.40968  0.26753  0.47759  1.0000
  C   C267      1.0  0.04368  0.42291  0.39547  1.0000
  H   H441      1.0  0.50249  0.40902  0.41403  1.0000
  C   C268      1.0  0.46042  0.28444  0.04549  1.0000
  H   H442      1.0  0.21620  0.41283  0.16764  1.0000
  C   C269      1.0  0.07052  0.27407  0.12224  1.0000
  C   C270      1.0  0.02251  0.37289  0.39453  1.0000
  C   C271      1.0  0.44284  0.34798  0.48235  1.0000
  H   H443      1.0  0.49135  0.36127  0.06266  1.0000
  C   C272      1.0  0.23678  0.27679  0.14347  1.0000
  H   H444      1.0  0.40760  0.28881  0.42612  1.0000
  H   H445      1.0  0.21323  0.49289  0.15596  1.0000
  H   H446      1.0  0.19467  0.42801  0.16921  1.0000
  H   H447      1.0  0.47274  0.37804  0.37119  1.0000
  H   H448      1.0  0.23073  0.44877  0.17736  1.0000
  H   H449      1.0  0.27728  0.31063  0.33610  1.0000
  H   H450      1.0  0.14559  0.27660  0.33538  1.0000
  C   C273      1.0  0.10060  0.48140  0.17189  1.0000
  C   C274      1.0  0.46130  0.40631  0.29385  1.0000
  N   N11       1.0  0.19148  0.29507  0.37723  1.0000
  C   C275      1.0  0.20623  0.30821  0.40753  1.0000
  C   C276      1.0  0.21204  0.30109  0.35083  1.0000
  C   C277      1.0  0.17476  0.30822  0.36788  1.0000
  H   H451      1.0  0.04210  0.47226  0.39134  1.0000
  C   C278      1.0  0.46524  0.38845  0.26968  1.0000
  C   C279      1.0  0.18765  0.30708  0.43534  1.0000
  C   C280      1.0  0.15982  0.29901  0.33553  1.0000
  C   C281      1.0  0.23914  0.30164  0.35914  1.0000
  H   H452      1.0  0.28012  0.43430  0.41966  1.0000
  H   H453      1.0  0.28208  0.38189  0.19035  1.0000
  H   H454      1.0  0.28577  0.27526  0.34245  1.0000
  C   C282      1.0  0.14310  0.31304  0.32877  1.0000
  H   H455      1.0  0.22147  0.33018  0.40325  1.0000
  H   H456      1.0  0.21868  0.29913  0.41562  1.0000
  C   C283      1.0  0.39971  0.25968  0.03988  1.0000
  H   H457      1.0  0.21885  0.32182  0.34058  1.0000
  H   H458      1.0  0.18811  0.33093  0.36707  1.0000
  H   H459      1.0  0.15864  0.30400  0.38586  1.0000
  H   H460      1.0  0.48176  0.42202  0.30258  1.0000
  C   C284      1.0  0.45019  0.31353  0.38096  1.0000
  H   H461      1.0  0.20232  0.28656  0.33086  1.0000
  C   C285      1.0  0.43863  0.44627  0.36826  1.0000
  H   H462      1.0  0.18206  0.32319  0.43176  1.0000
  H   H463      1.0  0.16844  0.28705  0.43664  1.0000
  H   H464      1.0  0.02132  0.38640  0.05053  1.0000
  H   H465      1.0  0.17462  0.30425  0.31571  1.0000
  H   H466      1.0  0.26697  0.49411  0.09177  1.0000
  C   C286      1.0  0.06214  0.47433  0.39801  1.0000
  C   C287      1.0  0.21506  0.37891  0.04727  1.0000
  C   C288      1.0  0.25504  0.45323  0.42568  1.0000
  Fe  Fe34      1.0  0.11758  0.41909  0.44584  1.0000
  H   H467      1.0  0.47502  0.27415  0.10405  1.0000
  C   C289      1.0  0.43433  0.46915  0.35510  1.0000
  H   H468      1.0  0.36552  0.27287  0.39288  1.0000
  H   H469      1.0  0.41442  0.46040  0.34239  1.0000
  H   H470      1.0  0.13296  0.30636  0.30534  1.0000
  H   H471      1.0  0.12701  0.30752  0.34716  1.0000
  H   H472      1.0  0.30751  0.48234  0.11904  1.0000
  H   H473      1.0  0.47554  0.37807  0.28074  1.0000
  C   C290      1.0  0.06939  0.37738  0.35719  1.0000
  H   H474      1.0  0.28636  0.45308  0.45599  1.0000
  C   C291      1.0  0.21331  0.37827  0.46346  1.0000
  H   H475      1.0  0.09889  0.36757  0.33681  1.0000
  Fe  Fe35      1.0  0.13152  0.38034  0.48055  1.0000
  H   H476      1.0  0.09730  0.37459  0.11020  1.0000
  H   H477      1.0  0.35811  0.33120  0.48285  1.0000
  H   H478      1.0  0.41275  0.27275  0.02015  1.0000
  H   H479      1.0  0.11319  0.39435  0.36600  1.0000
  C   C292      1.0  0.00791  0.38802  0.15580  1.0000
  C   C293      1.0  0.45505  0.26518  0.16222  1.0000
  H   H480      1.0  0.23901  0.43587  0.43934  1.0000
  C   C294      1.0  0.06556  0.45161  0.38302  1.0000
  H   H481      1.0  0.22271  0.28453  0.14132  1.0000
  H   H482      1.0  0.10876  0.30943  0.47369  1.0000
  H   H483      1.0  0.28708  0.43938  0.08722  1.0000
  H   H484      1.0  0.46293  0.28726  0.16684  1.0000
  H   H485      1.0  0.42010  0.25920  0.13595  1.0000
  H   H486      1.0  0.18671  0.25608  0.42611  1.0000
  C   C295      1.0  0.21537  0.43175  0.16259  1.0000
  H   H487      1.0  0.28986  0.45740  0.05187  1.0000
  H   H488      1.0  0.01258  0.25535  0.16464  1.0000
  H   H489      1.0  0.01854  0.37641  0.33453  1.0000
  C   C296      1.0  0.41971  0.35970  0.38483  1.0000
  C   C297      1.0  0.39328  0.34121  0.40310  1.0000
  C   C298      1.0  0.23718  0.42907  0.06257  1.0000
  H   H490      1.0  0.42091  0.34737  0.36521  1.0000
  H   H491      1.0  0.43692  0.36539  0.40154  1.0000
  H   H492      1.0  0.37515  0.33410  0.38737  1.0000
  H   H493      1.0  0.39374  0.32300  0.41228  1.0000
  H   H494      1.0  0.39104  0.35230  0.42351  1.0000
  H   H495      1.0  0.23385  0.47331  0.07591  1.0000
  H   H496      1.0  0.50250  0.33066  0.01563  1.0000
  H   H497      1.0  0.07809  0.40458  0.39676  1.0000
  C   C299      1.0  0.11722  0.27659  0.48535  1.0000
  H   H498      1.0  0.19047  0.31634  0.48548  1.0000
  N   N12       1.0  0.04036  0.39894  0.37621  1.0000
  Fe  Fe36      1.0  0.14737  0.28066  0.18551  1.0000
  H   H499      1.0  0.15234  0.26070  0.39177  1.0000
  N   N13       1.0  0.05158  0.28069  0.14059  1.0000
  H   H500      1.0  0.04301  0.30202  0.10324  1.0000
  C   C300      1.0  0.28188  0.45303  0.43036  1.0000
  H   H501      1.0  0.44960  0.32793  0.39837  1.0000
  N   N14       1.0  0.23204  0.48203  0.44146  1.0000
  S   S74       1.0  0.12307  0.47722  0.99581  1.0000
  C   C301      1.0  0.15394  0.48495  0.40871  1.0000
  H   H502      1.0  0.50249  0.30068  0.00030  1.0000
  H   H503      1.0  0.30891  0.41056  0.24632  1.0000
  H   H504      1.0  0.20365  0.44054  0.42576  1.0000
  C   C302      1.0  0.07712  0.35539  0.10991  1.0000
  H   H505      1.0  0.35590  0.40556  0.46566  1.0000
  H   H506      1.0  0.08391  0.30371  0.17478  1.0000
  H   H507      1.0  0.17051  0.43307  0.37478  1.0000
  H   H508      1.0  0.44652  0.37220  0.32669  1.0000
  C   C303      1.0  0.43847  0.42756  0.34124  1.0000
  C   C304      1.0  0.36537  0.39479  0.17323  1.0000
  H   H509      1.0  0.09617  0.49200  0.15252  1.0000
  C   C305      1.0  0.32470  0.37907  0.21079  1.0000
  H   H510      1.0  0.19844  0.42628  0.36926  1.0000
  H   H511      1.0  0.45670  0.30205  0.04286  1.0000
  H   H512      1.0  0.47820  0.40136  0.24975  1.0000
  H   H513      1.0  0.08816  0.33965  0.14986  1.0000
  N   N15       1.0  0.25703  0.45249  0.08309  1.0000
  H   H514      1.0  0.16617  0.25452  0.35754  1.0000
  H   H515      1.0  0.32701  0.39947  0.20559  1.0000
  H   H516      1.0  0.07879  0.49456  0.38956  1.0000
  H   H517      1.0  0.40475  0.36139  0.48263  1.0000
  H   H518      1.0  0.32371  0.36675  0.16077  1.0000
  H   H519      1.0  0.32933  0.25894  0.35313  1.0000
  C   C306      1.0  0.47073  0.41645  0.36773  1.0000
  C   C307      1.0  0.33682  0.37147  0.18203  1.0000
  H   H520      1.0  0.33838  0.38269  0.23133  1.0000
  H   H521      1.0  0.33891  0.35336  0.18753  1.0000
  H   H522      1.0  0.20613  0.47975  0.48056  1.0000
  C   C308      1.0  0.42288  0.28663  0.38032  1.0000
  C   C309      1.0  0.19206  0.44187  0.36659  1.0000
  H   H523      1.0  0.20928  0.45488  0.99361  1.0000
  N   N16       1.0  0.44342  0.40453  0.35099  1.0000
  H   H524      1.0  0.37329  0.38861  0.15261  1.0000
  C   C310      1.0  0.25599  0.26225  0.44267  1.0000
  H   H525      1.0  0.25173  0.40018  0.07455  1.0000
  C   C311      1.0  0.05155  0.30567  0.12755  1.0000
  H   H526      1.0  0.01342  0.38009  0.17614  1.0000
  H   H527      1.0  0.25343  0.42943  0.12580  1.0000
  H   H528      1.0  0.05565  0.36958  0.33635  1.0000
  H   H529      1.0  0.45453  0.44165  0.32431  1.0000
  H   H530      1.0  0.08827  0.28799  0.23109  1.0000
  H   H531      1.0  0.42104  0.37841  0.31196  1.0000
  H   H532      1.0  0.45845  0.45590  0.38114  1.0000
  H   H533      1.0  0.11327  0.29258  0.43997  1.0000
  H   H534      1.0  0.36464  0.41351  0.16672  1.0000
  H   H535      1.0  0.42196  0.43475  0.38554  1.0000
  C   C312      1.0  0.44221  0.38895  0.32147  1.0000
  H   H536      1.0  0.45542  0.27417  0.02199  1.0000
  H   H537      1.0  0.05030  0.29479  0.18776  1.0000
  C   C313      1.0  0.18769  0.37595  0.45770  1.0000
  H   H538      1.0  0.43175  0.27767  0.42758  1.0000
  H   H539      1.0  0.02316  0.36020  0.02784  1.0000
  H   H540      1.0  0.45717  0.36812  0.47140  1.0000
  H   H541      1.0  0.26081  0.50116  0.15895  1.0000
  Fe  Fe37      1.0  0.15888  0.48343  0.10514  1.0000
  C   C314      1.0  0.30947  0.48295  0.09286  1.0000
  H   H542      1.0  0.38263  0.38266  0.47274  1.0000
  H   H543      1.0  0.41856  0.41924  0.32839  1.0000
  S   S75       1.0  0.11906  0.47985  0.08940  1.0000
  H   H544      1.0  0.08233  0.42034  0.35906  1.0000
  H   H545      1.0  0.26412  0.46427  0.13233  1.0000
  C   C315      1.0  0.33713  0.48544  0.08492  1.0000
  C   C316      1.0  0.41340  0.27482  0.41428  1.0000
  H   H546      1.0  0.07066  0.35026  0.08484  1.0000
  H   H547      1.0  0.45120  0.48248  0.33860  1.0000
  H   H548      1.0  0.15203  0.48493  0.45962  1.0000
  H   H549      1.0  0.27963  0.33096  0.44527  1.0000
  H   H550      1.0  0.18895  0.46143  0.42925  1.0000
  H   H551      1.0  0.43398  0.48191  0.37488  1.0000
  C   C317      1.0  0.46925  0.26486  0.46748  1.0000
  H   H552      1.0  0.21067  0.35836  0.05545  1.0000
  C   C318      1.0  0.04350  0.28787  0.46429  1.0000
  C   C319      1.0  0.26583  0.48953  0.04091  1.0000
  C   C320      1.0  0.08746  0.26601  0.07004  1.0000
  C   C321      1.0  0.02264  0.25625  0.14153  1.0000
  H   H553      1.0  0.45474  0.32324  0.35712  1.0000
  H   H554      1.0  0.03197  0.37386  0.41803  1.0000
  H   H555      1.0  0.25959  0.32554  0.31666  1.0000
  H   H556      1.0  0.22095  0.39351  0.09496  1.0000
  H   H557      1.0  0.23806  0.28632  0.45692  1.0000
  C   C322      1.0  0.17208  0.26460  0.38109  1.0000
  H   H558      1.0  0.09232  0.29017  0.12583  1.0000
  Fe  Fe38      1.0  0.37515  0.26186  0.17121  1.0000
  C   C323      1.0  0.28551  0.45693  0.07766  1.0000
  N   N17       1.0  0.44192  0.26490  0.07099  1.0000
  H   H559      1.0  0.15998  0.49189  0.35834  1.0000
  H   H560      1.0  0.45103  0.26540  0.47416  1.0000
  H   H561      1.0  0.29932  0.47105  0.41891  1.0000
  C   C324      1.0  0.49639  0.36746  0.14271  1.0000
  H   H562      1.0  0.19522  0.37826  0.04360  1.0000
  C   C325      1.0  0.21112  0.46746  0.38548  1.0000
  H   H563      1.0  0.30979  0.29347  0.21532  1.0000
  H   H564      1.0  0.08080  0.46426  0.18068  1.0000
  H   H565      1.0  0.06500  0.28710  0.07464  1.0000
  C   C326      1.0  0.20212  0.31215  0.46728  1.0000
  H   H566      1.0  0.15668  0.33564  0.32816  1.0000
  H   H567      1.0  0.19308  0.44719  0.34108  1.0000
  H   H568      1.0  0.09553  0.26011  0.48405  1.0000
  S   S76       1.0  0.49048  0.31876  0.45143  1.0000
  C   C327      1.0  0.06722  0.27024  0.22818  1.0000
  H   H569      1.0  0.36549  0.25577  0.44630  1.0000
  H   H570      1.0  0.42666  0.33513  0.46505  1.0000
  C   C328      1.0  0.50071  0.36751  0.08576  1.0000
  H   H571      1.0  0.27166  0.48867  0.45660  1.0000
  H   H572      1.0  0.44514  0.37276  0.25994  1.0000
  H   H573      1.0  0.05336  0.25674  0.47670  1.0000
  H   H574      1.0  0.06414  0.30463  0.46759  1.0000
  H   H575      1.0  0.39796  0.50215  0.39050  1.0000
  H   H576      1.0  0.01979  0.43151  0.34173  1.0000
  C   C329      1.0  0.06111  0.26295  0.19320  1.0000
  C   C330      1.0  0.00872  0.40889  0.33965  1.0000
  H   H577      1.0  0.20569  0.48342  0.37973  1.0000
  H   H578      1.0  0.49841  0.28308  0.05590  1.0000
  H   H579      1.0  0.31024  0.50187  0.08415  1.0000
  H   H580      1.0  0.49817  0.31286  0.07040  1.0000
  H   H581      1.0  0.33802  0.46736  0.09387  1.0000
  H   H582      1.0  0.47257  0.26144  0.16040  1.0000
  H   H583      1.0  0.07673  0.25826  0.18389  1.0000
  H   H584      1.0  0.35772  0.25736  0.33591  1.0000
  H   H585      1.0  0.13017  0.26886  0.47504  1.0000
  C   C331      1.0  0.11579  0.50108  0.19892  1.0000
  C   C332      1.0  0.27979  0.26293  0.43163  1.0000
  H   H586      1.0  0.34063  0.50143  0.38257  1.0000
  H   H587      1.0  0.30725  0.48942  0.36521  1.0000
  H   H588      1.0  0.08277  0.26199  0.04442  1.0000
  C   C333      1.0  0.27360  0.25699  0.14765  1.0000
  H   H589      1.0  0.06931  0.25505  0.13167  1.0000
  H   H590      1.0  0.32695  0.28096  0.48529  1.0000
  H   H591      1.0  0.08129  0.25322  0.29526  1.0000
  H   H592      1.0  0.38678  0.42730  0.48715  1.0000
  Fe  Fe39      1.0  0.28731  0.44815  0.88118  1.0000
  S   S77       1.0  0.28916  0.45783  0.93367  1.0000
  Fe  Fe40      1.0  0.25238  0.40538  0.83127  1.0000
  S   S78       1.0  0.28128  0.42850  0.79134  1.0000
  S   S79       1.0  0.21533  0.36310  0.82944  1.0000
  Fe  Fe41      1.0  0.31436  0.43449  0.82585  1.0000
  S   S80       1.0  0.35103  0.42794  0.82032  1.0000
  C   C334      1.0  0.24257  0.29856  0.82485  1.0000
  S   S81       1.0  0.28519  0.40943  0.86449  1.0000
  S   S82       1.0  0.25129  0.44157  0.85176  1.0000
  Fe  Fe42      1.0  0.09825  0.40161  0.51416  1.0000
  S   S83       1.0  0.08995  0.41324  0.56233  1.0000
  Fe  Fe43      1.0  0.37969  0.32089  0.71848  1.0000
  S   S84       1.0  0.36221  0.29125  0.67786  1.0000
  S   S85       1.0  0.35157  0.33883  0.72760  1.0000
  Fe  Fe44      1.0  0.42653  0.30817  0.72596  1.0000
  S   S86       1.0  0.41154  0.27753  0.68687  1.0000
  H   H593      1.0  0.27412  0.47163  0.69490  1.0000
  Fe  Fe45      1.0  0.40520  0.30826  0.66038  1.0000
  S   S87       1.0  0.41492  0.31179  0.60801  1.0000
  H   H594      1.0  0.27584  0.28067  0.83847  1.0000
  H   H595      1.0  0.07809  0.35256  0.59553  1.0000
  S   S88       1.0  0.42266  0.34043  0.69810  1.0000
  S   S89       1.0  0.38489  0.29105  0.74963  1.0000
  S   S90       1.0  0.15566  0.30375  0.70237  1.0000
  C   C335      1.0  0.33252  0.29344  0.50719  1.0000
  H   H596      1.0  0.18596  0.45817  0.77281  1.0000
  H   H597      1.0  0.37232  0.35657  0.59287  1.0000
  H   H598      1.0  0.15871  0.41372  0.70754  1.0000
  H   H599      1.0  0.14392  0.33154  0.62444  1.0000
  C   C336      1.0  0.03698  0.28893  0.75833  1.0000
  H   H600      1.0  0.40288  0.40179  0.94698  1.0000
  H   H601      1.0  0.15383  0.45469  0.91342  1.0000
  H   H602      1.0  0.05378  0.30703  0.76864  1.0000
  C   C337      1.0  0.05643  0.39158  0.57678  1.0000
  C   C338      1.0  0.04931  0.39514  0.60756  1.0000
  H   H603      1.0  0.41516  0.35650  0.56947  1.0000
  H   H604      1.0  0.05317  0.30341  0.62914  1.0000
  S   S91       1.0  0.31894  0.47384  0.84505  1.0000
  H   H605      1.0  0.23113  0.45004  0.96631  1.0000
  H   H606      1.0  0.06432  0.41158  0.62203  1.0000
  H   H607      1.0  0.13392  0.48064  0.89046  1.0000
  H   H608      1.0  0.44859  0.31540  0.55505  1.0000
  C   C339      1.0  0.02279  0.37757  0.61963  1.0000
  C   C340      1.0  0.38566  0.38580  0.52515  1.0000
  H   H609      1.0  0.02063  0.27872  0.57037  1.0000
  H   H610      1.0  0.14841  0.30072  0.51975  1.0000
  H   H611      1.0  0.12198  0.38482  0.56797  1.0000
  C   C341      1.0  0.35146  0.40360  0.79404  1.0000
  C   C342      1.0  0.37135  0.39564  0.79786  1.0000
  C   C343      1.0  0.37200  0.37606  0.77765  1.0000
  C   C344      1.0  0.35295  0.36454  0.75307  1.0000
  C   C345      1.0  0.33338  0.37288  0.74900  1.0000
  C   C346      1.0  0.33247  0.39210  0.76945  1.0000
  H   H612      1.0  0.38627  0.40454  0.81668  1.0000
  H   H613      1.0  0.38722  0.36991  0.78105  1.0000
  H   H614      1.0  0.31887  0.36445  0.72978  1.0000
  H   H615      1.0  0.31730  0.39828  0.76593  1.0000
  C   C347      1.0  0.20015  0.34703  0.79350  1.0000
  C   C348      1.0  0.17755  0.32049  0.79463  1.0000
  C   C349      1.0  0.16440  0.30694  0.76673  1.0000
  C   C350      1.0  0.17332  0.31999  0.73741  1.0000
  C   C351      1.0  0.19598  0.34666  0.73616  1.0000
  C   C352      1.0  0.20962  0.36005  0.76417  1.0000
  H   H616      1.0  0.16991  0.31046  0.81727  1.0000
  H   H617      1.0  0.14703  0.28657  0.76813  1.0000
  H   H618      1.0  0.20307  0.35688  0.71353  1.0000
  H   H619      1.0  0.22727  0.38039  0.76317  1.0000
  H   H620      1.0  0.39694  0.37969  0.64263  1.0000
  C   C353      1.0  0.29390  0.25447  0.71739  1.0000
  C   C354      1.0  0.46021  0.33329  0.56962  1.0000
  H   H621      1.0  0.27841  0.33311  0.87242  1.0000
  C   C355      1.0  0.46007  0.26663  0.74219  1.0000
  H   H622      1.0  0.28269  0.35097  0.81949  1.0000
  H   H623      1.0  0.28628  0.49671  0.88575  1.0000
  C   C356      1.0  0.44877  0.33629  0.59777  1.0000
  N   N18       1.0  0.07388  0.33765  0.66136  1.0000
  H   H624      1.0  0.32495  0.36231  0.89380  1.0000
  C   C357      1.0  0.48557  0.30654  0.64308  1.0000
  H   H625      1.0  0.18668  0.27957  0.83130  1.0000
  H   H626      1.0  0.26620  0.26933  0.79934  1.0000
  H   H627      1.0  0.11939  0.35683  0.70307  1.0000
  Fe  Fe46      1.0  0.28285  0.46544  0.81458  1.0000
  C   C358      1.0  0.21808  0.27258  0.81037  1.0000
  H   H628      1.0  0.19151  0.44952  0.52802  1.0000
  H   H629      1.0  0.49501  0.35138  0.53789  1.0000
  H   H630      1.0  0.23292  0.47169  0.71451  1.0000
  H   H631      1.0  0.39244  0.42756  0.88794  1.0000
  H   H632      1.0  0.27072  0.33494  0.71459  1.0000
  C   C359      1.0  0.37091  0.38342  0.49341  1.0000
  H   H633      1.0  0.43065  0.27028  0.59159  1.0000
  C   C360      1.0  0.27912  0.28801  0.81348  1.0000
  H   H634      1.0  0.05757  0.26531  0.76084  1.0000
  H   H635      1.0  0.33979  0.36643  0.85498  1.0000
  N   N19       1.0  0.21271  0.48179  0.93288  1.0000
  H   H636      1.0  0.33854  0.45313  0.91695  1.0000
  C   C361      1.0  0.25601  0.33080  0.76336  1.0000
  H   H637      1.0  0.36684  0.40475  0.91567  1.0000
  H   H638      1.0  0.24052  0.46828  0.91532  1.0000
  C   C362      1.0  0.40944  0.37210  0.56284  1.0000
  C   C363      1.0  0.06966  0.25571  0.55081  1.0000
  H   H639      1.0  0.30341  0.25692  0.79469  1.0000
  H   H640      1.0  0.30617  0.38712  0.92387  1.0000
  C   C364      1.0  0.32119  0.36296  0.86810  1.0000
  H   H641      1.0  0.17885  0.45577  0.67718  1.0000
  C   C365      1.0  0.08583  0.40618  0.69872  1.0000
  H   H642      1.0  0.30978  0.34539  0.80889  1.0000
  H   H643      1.0  0.19335  0.40205  0.95689  1.0000
  C   C366      1.0  0.22631  0.45440  0.73136  1.0000
  H   H644      1.0  0.48376  0.29510  0.66530  1.0000
  C   C367      1.0  0.15444  0.37828  0.79546  1.0000
  H   H645      1.0  0.37137  0.49083  0.94812  1.0000
  H   H646      1.0  0.08448  0.41572  0.67621  1.0000
  H   H647      1.0  0.43074  0.38963  0.50292  1.0000
  H   H648      1.0  0.31332  0.26840  0.83502  1.0000
  C   C368      1.0  0.17553  0.42517  0.64514  1.0000
  H   H649      1.0  0.25522  0.29186  0.76184  1.0000
  H   H650      1.0  0.23835  0.42323  0.73909  1.0000
  H   H651      1.0  0.22236  0.25543  0.80981  1.0000
  H   H652      1.0  0.14107  0.38153  0.60000  1.0000
  C   C369      1.0  0.30942  0.29763  0.80448  1.0000
  H   H653      1.0  0.25588  0.49557  0.94231  1.0000
  H   H654      1.0  0.20257  0.42479  0.53293  1.0000
  H   H655      1.0  0.10242  0.42223  0.71335  1.0000
  C   C370      1.0  0.16709  0.47729  0.91222  1.0000
  C   C371      1.0  0.41472  0.36770  0.50609  1.0000
  H   H656      1.0  0.09850  0.30013  0.73285  1.0000
  H   H657      1.0  0.16512  0.48599  0.93485  1.0000
  C   C372      1.0  0.10860  0.32280  0.73364  1.0000
  H   H658      1.0  0.07109  0.30120  0.68280  1.0000
  H   H659      1.0  0.09852  0.32916  0.75157  1.0000
  Fe  Fe47      1.0  0.36983  0.26294  0.70766  1.0000
  H   H660      1.0  0.11288  0.30314  0.58088  1.0000
  C   C373      1.0  0.39342  0.37442  0.59156  1.0000
  H   H661      1.0  0.04204  0.36767  0.53421  1.0000
  H   H662      1.0  0.40143  0.39126  0.90642  1.0000
  H   H663      1.0  0.09879  0.38390  0.61689  1.0000
  H   H664      1.0  0.07198  0.26997  0.53135  1.0000
  S   S92       1.0  0.46785  0.31909  0.74713  1.0000
  H   H665      1.0  0.41720  0.46002  0.93408  1.0000
  H   H666      1.0  0.20159  0.42578  0.78143  1.0000
  H   H667      1.0  0.23600  0.32455  0.77480  1.0000
  C   C374      1.0  0.09209  0.38323  0.69212  1.0000
  C   C375      1.0  0.04869  0.31743  0.64319  1.0000
  H   H668      1.0  0.19686  0.47250  0.88516  1.0000
  N   N20       1.0  0.39452  0.36496  0.53142  1.0000
  S   S93       1.0  0.09163  0.35934  0.50749  1.0000
  C   C376      1.0  0.50131  0.37718  0.57819  1.0000
  C   C377      1.0  0.49003  0.37993  0.60659  1.0000
  C   C378      1.0  0.36997  0.33635  0.53373  1.0000
  H   H669      1.0  0.23698  0.31494  0.82578  1.0000
  H   H670      1.0  0.31622  0.29863  0.51198  1.0000
  H   H671      1.0  0.35024  0.36486  0.49375  1.0000
  C   C379      1.0  0.02259  0.29892  0.66313  1.0000
  H   H672      1.0  0.24511  0.34468  0.72068  1.0000
  H   H673      1.0  0.48080  0.29253  0.62268  1.0000
  H   H674      1.0  0.31766  0.38032  0.86341  1.0000
  C   C380      1.0  0.06885  0.36007  0.67282  1.0000
  H   H675      1.0  0.35414  0.40932  0.50775  1.0000
  C   C381      1.0  0.36023  0.31950  0.50262  1.0000
  H   H676      1.0  0.01719  0.31098  0.67919  1.0000
  H   H677      1.0  0.34533  0.41301  0.96097  1.0000
  H   H678      1.0  0.19325  0.43842  0.92356  1.0000
  H   H679      1.0  0.04264  0.32833  0.62575  1.0000
  C   C382      1.0  0.40650  0.40900  0.92197  1.0000
  H   H680      1.0  0.35213  0.33706  0.54414  1.0000
  C   C383      1.0  0.26771  0.31212  0.77336  1.0000
  H   H681      1.0  0.37406  0.32354  0.55063  1.0000
  C   C384      1.0  0.09799  0.34825  0.63890  1.0000
  H   H682      1.0  0.03778  0.29715  0.53479  1.0000
  C   C385      1.0  0.20893  0.44581  0.52445  1.0000
  H   H683      1.0  0.28823  0.32093  0.76199  1.0000
  H   H684      1.0  0.42941  0.39291  0.62235  1.0000
  H   H685      1.0  0.11646  0.29859  0.52669  1.0000
  H   H686      1.0  0.05042  0.35155  0.68839  1.0000
  C   C386      1.0  0.18886  0.41648  0.75985  1.0000
  C   C387      1.0  0.33429  0.42305  0.95127  1.0000
  H   H687      1.0  0.22000  0.49848  0.74696  1.0000
  C   C388      1.0  0.49691  0.25595  0.74886  1.0000
  H   H688      1.0  0.18560  0.40725  0.69919  1.0000
  C   C389      1.0  0.07803  0.32290  0.68901  1.0000
  C   C390      1.0  0.27083  0.45690  0.71426  1.0000
  H   H689      1.0  0.14847  0.32007  0.57006  1.0000
  H   H690      1.0  0.07388  0.26643  0.57378  1.0000
  H   H691      1.0  0.23510  0.30897  0.72046  1.0000
  C   C391      1.0  0.31497  0.48939  0.94902  1.0000
  H   H692      1.0  0.11936  0.32845  0.68438  1.0000
  H   H693      1.0  0.31347  0.30385  0.77925  1.0000
  H   H694      1.0  0.16789  0.38793  0.81630  1.0000
  H   H695      1.0  0.40378  0.40687  0.52664  1.0000
  H   H696      1.0  0.19428  0.40116  0.75128  1.0000
  H   H697      1.0  0.06613  0.39812  0.71187  1.0000
  H   H698      1.0  0.37097  0.38454  0.54361  1.0000
  H   H699      1.0  0.42469  0.49315  0.97117  1.0000
  C   C392      1.0  0.03684  0.37055  0.55801  1.0000
  C   C393      1.0  0.24099  0.48756  0.92234  1.0000
  C   C394      1.0  0.12124  0.37100  0.58721  1.0000
  H   H700      1.0  0.24398  0.29372  0.85013  1.0000
  H   H701      1.0  0.21035  0.45510  0.67065  1.0000
  C   C395      1.0  0.47856  0.29439  0.74741  1.0000
  H   H702      1.0  0.15180  0.27960  0.57914  1.0000
  H   H703      1.0  0.11189  0.39231  0.67932  1.0000
  S   S94       1.0  0.01283  0.32020  0.75104  1.0000
  C   C396      1.0  0.29627  0.33599  0.85815  1.0000
  H   H704      1.0  0.09393  0.37518  0.71547  1.0000
  H   H705      1.0  0.33219  0.43540  0.97034  1.0000
  C   C397      1.0  0.19193  0.26307  0.82982  1.0000
  H   H706      1.0  0.45462  0.33757  0.48832  1.0000
  H   H707      1.0  0.29863  0.26952  0.73662  1.0000
  C   C398      1.0  0.09716  0.36428  0.60945  1.0000
  H   H708      1.0  0.45524  0.36192  0.63821  1.0000
  C   C399      1.0  0.18797  0.44240  0.67482  1.0000
  C   C400      1.0  0.38426  0.49841  0.88680  1.0000
  H   H709      1.0  0.13018  0.33101  0.74107  1.0000
  H   H710      1.0  0.11879  0.35204  0.57627  1.0000
  H   H711      1.0  0.20397  0.48891  0.70911  1.0000
  H   H712      1.0  0.06381  0.36940  0.65259  1.0000
  C   C401      1.0  0.25152  0.32970  0.72757  1.0000
  H   H713      1.0  0.15984  0.31075  0.62491  1.0000
  C   C402      1.0  0.10792  0.33431  0.70112  1.0000
  H   H714      1.0  0.29910  0.26565  0.69443  1.0000
  C   C403      1.0  0.19665  0.45237  0.94387  1.0000
  H   H715      1.0  0.22740  0.47322  0.81147  1.0000
  H   H716      1.0  0.40721  0.35641  0.62777  1.0000
  H   H717      1.0  0.42921  0.39185  0.56097  1.0000
  H   H718      1.0  0.32396  0.31527  0.81905  1.0000
  H   H719      1.0  0.41631  0.33132  0.52309  1.0000
  H   H720      1.0  0.30063  0.31948  0.86447  1.0000
  H   H721      1.0  0.02468  0.31205  0.56242  1.0000
  H   H722      1.0  0.34545  0.42847  0.90100  1.0000
  H   H723      1.0  0.27047  0.35240  0.76972  1.0000
  H   H724      1.0  0.23100  0.42667  0.69829  1.0000
  H   H725      1.0  0.10031  0.33080  0.63052  1.0000
  C   C404      1.0  0.03909  0.26539  0.75399  1.0000
  C   C405      1.0  0.34935  0.44160  0.92222  1.0000
  H   H726      1.0  0.22890  0.49892  0.97882  1.0000
  C   C406      1.0  0.18477  0.45664  0.74647  1.0000
  H   H727      1.0  0.39219  0.39341  0.58966  1.0000
  H   H728      1.0  0.12405  0.29589  0.63552  1.0000
  C   C407      1.0  0.40775  0.37600  0.62289  1.0000
  N   N21       1.0  0.26987  0.30874  0.80854  1.0000
  H   H729      1.0  0.06491  0.32194  0.70926  1.0000
  H   H730      1.0  0.41407  0.48563  0.89470  1.0000
  C   C408      1.0  0.46392  0.35943  0.61650  1.0000
  C   C409      1.0  0.39460  0.44583  0.93485  1.0000
  C   C410      1.0  0.19987  0.48690  0.73484  1.0000
  H   H731      1.0  0.39036  0.43844  0.95982  1.0000
  H   H732      1.0  0.37519  0.31326  0.49509  1.0000
  C   C411      1.0  0.14051  0.31075  0.61952  1.0000
  H   H733      1.0  0.11753  0.36229  0.65088  1.0000
  C   C412      1.0  0.13241  0.30339  0.58485  1.0000
  C   C413      1.0  0.29014  0.33613  0.82232  1.0000
  C   C414      1.0  0.43008  0.35177  0.51252  1.0000
  H   H734      1.0  0.23581  0.46423  0.75432  1.0000
  H   H735      1.0  0.28129  0.46845  0.73597  1.0000
  H   H736      1.0  0.01742  0.38053  0.64330  1.0000
  H   H737      1.0  0.38404  0.46111  0.87540  1.0000
  H   H738      1.0  0.44700  0.36363  0.52944  1.0000
  C   C415      1.0  0.48648  0.35367  0.55987  1.0000
  C   C416      1.0  0.02076  0.29255  0.55155  1.0000
  H   H739      1.0  0.22662  0.46065  0.53887  1.0000
  H   H740      1.0  0.14464  0.38891  0.75066  1.0000
  S   S95       1.0  0.16543  0.37075  0.48974  1.0000
  H   H741      1.0  0.13277  0.36722  0.80366  1.0000
  H   H742      1.0  0.16256  0.44747  0.74082  1.0000
  N   N22       1.0  0.11915  0.26366  0.54404  1.0000
  H   H743      1.0  0.18368  0.41106  0.64134  1.0000
  H   H744      1.0  0.02549  0.28417  0.67776  1.0000
  H   H745      1.0  0.15923  0.36309  0.78510  1.0000
  C   C417      1.0  0.15840  0.39985  0.77076  1.0000
  H   H746      1.0  0.28036  0.44457  0.70720  1.0000
  C   C418      1.0  0.38852  0.42125  0.91321  1.0000
  H   H747      1.0  0.18083  0.43881  0.62409  1.0000
  H   H748      1.0  0.17181  0.40728  0.98473  1.0000
  H   H749      1.0  0.15156  0.41331  0.78166  1.0000
  C   C419      1.0  0.19332  0.41370  0.97804  1.0000
  C   C420      1.0  0.18135  0.42408  0.70463  1.0000
  H   H750      1.0  0.42855  0.42437  0.91864  1.0000
  C   C421      1.0  0.24021  0.43798  0.72049  1.0000
  N   N23       1.0  0.19545  0.43828  0.73492  1.0000
  C   C422      1.0  0.12588  0.28609  0.52001  1.0000
  H   H751      1.0  0.17591  0.44726  0.95250  1.0000
  C   C423      1.0  0.21516  0.49976  0.96051  1.0000
  H   H752      1.0  0.21370  0.27660  0.78593  1.0000
  H   H753      1.0  0.15285  0.41318  0.64713  1.0000
  C   C424      1.0  0.39131  0.47591  0.89537  1.0000
  C   C425      1.0  0.38365  0.48064  0.95267  1.0000
  C   C426      1.0  0.19728  0.48518  0.90556  1.0000
  H   H754      1.0  0.15556  0.26269  0.52956  1.0000
  C   C427      1.0  0.23435  0.49487  0.81105  1.0000
  H   H755      1.0  0.19468  0.48954  0.82305  1.0000
  H   H756      1.0  0.11846  0.26066  0.59554  1.0000
  H   H757      1.0  0.33811  0.28257  0.80335  1.0000
  H   H758      1.0  0.24322  0.49583  0.87177  1.0000
  H   H759      1.0  0.15750  0.47947  0.86251  1.0000
  H   H760      1.0  0.33338  0.28096  0.52710  1.0000
  C   C428      1.0  0.31630  0.27489  0.80977  1.0000
  H   H761      1.0  0.16405  0.49175  0.72836  1.0000
  N   N24       1.0  0.37973  0.46102  0.92636  1.0000
  H   H762      1.0  0.37543  0.46941  0.97538  1.0000
  H   H763      1.0  0.36198  0.49031  0.88847  1.0000
  H   H764      1.0  0.38301  0.49228  0.83566  1.0000
  Fe  Fe48      1.0  0.12127  0.25973  0.70770  1.0000
  H   H765      1.0  0.47021  0.31342  0.64372  1.0000
  C   C429      1.0  0.01329  0.28931  0.74902  1.0000
  C   C430      1.0  0.13040  0.27566  0.57640  1.0000
  H   H766      1.0  0.29545  0.38740  0.96401  1.0000
  H   H767      1.0  0.43863  0.25981  0.73817  1.0000
  H   H768      1.0  0.29266  0.40905  0.93475  1.0000
  C   C431      1.0  0.30543  0.40031  0.94280  1.0000
  C   C432      1.0  0.15588  0.48758  0.88583  1.0000
  H   H769      1.0  0.42614  0.25479  0.55321  1.0000
  H   H770      1.0  0.19449  0.25711  0.85414  1.0000
  H   H771      1.0  0.50135  0.39814  0.62077  1.0000
  H   H772      1.0  0.19503  0.49197  0.97278  1.0000
  H   H773      1.0  0.36849  0.26593  0.50211  1.0000
  C   C433      1.0  0.20960  0.44445  0.97149  1.0000
  C   C434      1.0  0.01024  0.35350  0.56981  1.0000
  C   C435      1.0  0.36675  0.40795  0.48837  1.0000
  C   C436      1.0  0.31616  0.49367  0.98181  1.0000
  H   H774      1.0  0.17805  0.49907  0.76797  1.0000
  H   H775      1.0  0.24098  0.49185  0.49120  1.0000
  S   S96       1.0  0.14000  0.42282  0.49109  1.0000
  C   C437      1.0  0.21693  0.44843  0.48945  1.0000
  C   C438      1.0  0.18329  0.50093  0.74238  1.0000
  H   H776      1.0  0.38477  0.25333  0.52840  1.0000
  S   S97       1.0  0.28437  0.50230  0.79081  1.0000
  H   H777      1.0  0.23498  0.44553  0.48809  1.0000
  C   C439      1.0  0.41380  0.50273  0.95963  1.0000
  H   H778      1.0  0.21949  0.37751  0.48754  1.0000
  Fe  Fe49      1.0  0.37139  0.63057  0.07098  1.0000
  S   S98       1.0  0.37330  0.61660  0.12026  1.0000
  S   S99       1.0  0.36880  0.66789  0.05669  1.0000
  Fe  Fe50      1.0  0.37724  0.58529  0.03991  1.0000
  S   S100      1.0  0.38027  0.56781  0.08666  1.0000
  H   H779      1.0  0.17913  0.56705  0.14727  1.0000
  Fe  Fe51      1.0  0.34554  0.57435  0.10153  1.0000
  S   S101      1.0  0.31100  0.54084  0.13017  1.0000
  Fe  Fe52      1.0  0.40805  0.61152  0.10184  1.0000
  S   S102      1.0  0.44417  0.62380  0.13526  1.0000
  S   S103      1.0  0.34054  0.58864  0.05362  1.0000
  S   S104      1.0  0.40805  0.62852  0.05378  1.0000
  S   S105      1.0  0.19073  0.52342  0.12656  1.0000
  H   H780      1.0  0.44769  0.72634  0.15670  1.0000
  Fe  Fe53      1.0  0.11748  0.68359  0.10003  1.0000
  S   S106      1.0  0.11187  0.69807  0.14731  1.0000
  S   S107      1.0  0.08442  0.66179  0.06268  1.0000
  Fe  Fe54      1.0  0.17964  0.71014  0.10951  1.0000
  C   C440      1.0  0.28824  0.66787  0.47943  1.0000
  S   S108      1.0  0.21851  0.71380  0.08928  1.0000
  Fe  Fe55      1.0  0.14188  0.68592  0.16568  1.0000
  S   S109      1.0  0.13588  0.66511  0.21329  1.0000
  S   S110      1.0  0.38895  0.65694  0.47554  1.0000
  S   S111      1.0  0.14442  0.66791  0.11944  1.0000
  S   S112      1.0  0.15327  0.72441  0.08579  1.0000
  Fe  Fe56      1.0  0.24257  0.67153  0.37074  1.0000
  S   S113      1.0  0.26811  0.67671  0.32779  1.0000
  S   S114      1.0  0.23385  0.70429  0.38835  1.0000
  Fe  Fe57      1.0  0.22665  0.61129  0.37998  1.0000
  S   S115      1.0  0.25060  0.61178  0.33702  1.0000
  S   S116      1.0  0.20770  0.57828  0.41814  1.0000
  Fe  Fe58      1.0  0.28338  0.65256  0.35499  1.0000
  S   S117      1.0  0.32834  0.66483  0.35270  1.0000
  Fe  Fe59      1.0  0.23316  0.63580  0.31343  1.0000
  S   S118      1.0  0.22133  0.63072  0.26141  1.0000
  S   S119      1.0  0.26078  0.65096  0.39931  1.0000
  S   S120      1.0  0.20634  0.63182  0.35490  1.0000
  H   H781      1.0  0.33658  0.52209  0.02022  1.0000
  C   C441      1.0  0.16325  0.61237  0.06628  1.0000
  H   H782      1.0  0.03411  0.70070  0.17941  1.0000
  H   H783      1.0  0.34207  0.71004  0.40923  1.0000
  C   C442      1.0  0.41943  0.67293  0.17344  1.0000
  S   S121      1.0  0.45813  0.59766  0.42389  1.0000
  C   C443      1.0  0.29393  0.61708  0.01687  1.0000
  C   C444      1.0  0.26687  0.56207  0.43904  1.0000
  H   H784      1.0  0.43026  0.72531  0.45364  1.0000
  N   N25       1.0  0.35214  0.73625  0.45066  1.0000
  H   H785      1.0  0.47286  0.69148  0.02884  1.0000
  H   H786      1.0  0.04841  0.72842  0.46241  1.0000
  C   C445      1.0  0.18127  0.52998  0.38387  1.0000
  C   C446      1.0  0.18711  0.54243  0.41360  1.0000
  N   N26       1.0  0.05125  0.75028  0.09924  1.0000
  H   H787      1.0  0.49989  0.58829  0.37593  1.0000
  C   C447      1.0  0.01206  0.64196  0.10618  1.0000
  H   H788      1.0  0.18953  0.54246  0.36284  1.0000
  C   C448      1.0  0.34468  0.66126  0.38653  1.0000
  C   C449      1.0  0.33017  0.64986  0.41460  1.0000
  H   H789      1.0  0.21646  0.53726  0.00079  1.0000
  H   H790      1.0  0.30919  0.61030  0.01778  1.0000
  C   C450      1.0  0.38663  0.66849  0.41230  1.0000
  C   C451      1.0  0.37288  0.67032  0.38537  1.0000
  H   H791      1.0  0.30837  0.64245  0.41557  1.0000
  C   C452      1.0  0.39097  0.52973  0.45886  1.0000
  C   C453      1.0  0.16230  0.61159  0.10245  1.0000
  H   H792      1.0  0.38422  0.67913  0.36368  1.0000
  C   C454      1.0  0.15966  0.65541  0.22612  1.0000
  C   C455      1.0  0.16114  0.65055  0.25847  1.0000
  C   C456      1.0  0.18011  0.64316  0.26959  1.0000
  C   C457      1.0  0.19705  0.63964  0.24826  1.0000
  C   C458      1.0  0.19479  0.64339  0.21570  1.0000
  C   C459      1.0  0.17662  0.65189  0.20471  1.0000
  H   H793      1.0  0.14790  0.65300  0.27510  1.0000
  H   H794      1.0  0.18148  0.64011  0.29467  1.0000
  H   H795      1.0  0.20781  0.64067  0.19904  1.0000
  H   H796      1.0  0.17546  0.65540  0.17969  1.0000
  H   H797      1.0  0.09980  0.56657  0.99674  1.0000
  N   N27       1.0  0.46138  0.72806  0.10817  1.0000
  C   C460      1.0  0.42985  0.56402  0.42854  1.0000
  C   C461      1.0  0.42422  0.54423  0.40510  1.0000
  C   C462      1.0  0.49696  0.65738  0.15549  1.0000
  C   C463      1.0  0.45727  0.75157  0.09843  1.0000
  C   C464      1.0  0.18124  0.55781  0.00124  1.0000
  H   H798      1.0  0.43711  0.54977  0.38424  1.0000
  H   H799      1.0  0.29689  0.70930  0.48020  1.0000
  C   C465      1.0  0.47866  0.65022  0.12991  1.0000
  H   H800      1.0  0.37835  0.52420  0.47995  1.0000
  C   C466      1.0  0.03982  0.65008  0.10090  1.0000
  C   C467      1.0  0.04974  0.65237  0.07005  1.0000
  C   C468      1.0  0.03161  0.64652  0.04450  1.0000
  H   H801      1.0  0.10672  0.54306  0.17669  1.0000
  H   H802      1.0  0.18218  0.59700  0.16663  1.0000
  H   H803      1.0  0.05344  0.65415  0.12075  1.0000
  H   H804      1.0  0.03908  0.64812  0.02053  1.0000
  H   H805      1.0  0.24595  0.74044  0.19624  1.0000
  C   C469      1.0  0.22413  0.52821  0.12675  1.0000
  C   C470      1.0  0.24568  0.55104  0.11159  1.0000
  C   C471      1.0  0.27259  0.55540  0.11264  1.0000
  C   C472      1.0  0.27806  0.53728  0.12954  1.0000
  C   C473      1.0  0.38542  0.50985  0.43566  1.0000
  H   H806      1.0  0.33265  0.63970  0.46337  1.0000
  H   H807      1.0  0.24148  0.56522  0.09887  1.0000
  H   H808      1.0  0.28910  0.57275  0.10055  1.0000
  H   H809      1.0  0.10129  0.75123  0.09396  1.0000
  C   C474      1.0  0.37113  0.68994  0.08734  1.0000
  C   C475      1.0  0.37800  0.71688  0.08000  1.0000
  H   H810      1.0  0.18062  0.62970  0.11244  1.0000
  C   C476      1.0  0.37753  0.72673  0.13585  1.0000
  C   C477      1.0  0.36974  0.69953  0.14311  1.0000
  C   C478      1.0  0.36649  0.68113  0.11890  1.0000
  C   C479      1.0  0.26478  0.51578  0.03573  1.0000
  C   C480      1.0  0.24459  0.66204  0.01126  1.0000
  H   H811      1.0  0.36657  0.69274  0.16755  1.0000
  H   H812      1.0  0.36054  0.66023  0.12471  1.0000
  H   H813      1.0  0.16752  0.52651  0.24177  1.0000
  H   H814      1.0  0.13099  0.70283  0.01328  1.0000
  C   C481      1.0  0.25659  0.51494  0.14540  1.0000
  C   C482      1.0  0.43954  0.68571  0.14584  1.0000
  H   H815      1.0  0.27438  0.56396  0.41434  1.0000
  H   H816      1.0  0.46340  0.69507  0.08462  1.0000
  C   C483      1.0  0.16251  0.53052  0.00973  1.0000
  H   H817      1.0  0.43729  0.68169  0.02255  1.0000
  C   C484      1.0  0.30346  0.69700  0.46606  1.0000
  H   H818      1.0  0.14216  0.67330  0.04479  1.0000
  H   H819      1.0  0.12480  0.55605  0.23010  1.0000
  H   H820      1.0  0.29291  0.73231  0.37956  1.0000
  C   C485      1.0  0.06155  0.74057  0.07199  1.0000
  N   N28       1.0  0.29277  0.70002  0.19335  1.0000
  C   C486      1.0  0.28210  0.67715  0.21759  1.0000
  C   C487      1.0  0.27172  0.70867  0.18676  1.0000
  C   C488      1.0  0.29733  0.68883  0.16283  1.0000
  C   C489      1.0  0.31981  0.72410  0.20313  1.0000
  H   H821      1.0  0.48276  0.54763  0.40911  1.0000
  C   C490      1.0  0.30192  0.66654  0.22677  1.0000
  C   C491      1.0  0.30486  0.70772  0.13317  1.0000
  C   C492      1.0  0.25424  0.70907  0.21489  1.0000
  C   C493      1.0  0.23451  0.71869  0.20390  1.0000
  H   H822      1.0  0.01343  0.74922  0.11260  1.0000
  C   C494      1.0  0.28895  0.64348  0.25127  1.0000
  C   C495      1.0  0.30444  0.69251  0.10309  1.0000
  H   H823      1.0  0.26261  0.65939  0.20900  1.0000
  H   H824      1.0  0.27646  0.68311  0.24012  1.0000
  H   H825      1.0  0.28175  0.72944  0.17569  1.0000
  H   H826      1.0  0.25643  0.69458  0.16914  1.0000
  H   H827      1.0  0.27867  0.66898  0.15694  1.0000
  H   H828      1.0  0.31433  0.68431  0.16538  1.0000
  H   H829      1.0  0.33583  0.71806  0.20388  1.0000
  H   H830      1.0  0.24866  0.56481  0.43916  1.0000
  H   H831      1.0  0.30854  0.72300  0.25385  1.0000
  H   H832      1.0  0.07068  0.71240  0.12049  1.0000
  H   H833      1.0  0.30736  0.65824  0.20600  1.0000
  H   H834      1.0  0.32103  0.68315  0.23738  1.0000
  C   C496      1.0  0.48834  0.66387  0.10096  1.0000
  H   H835      1.0  0.29028  0.71518  0.12939  1.0000
  H   H836      1.0  0.24163  0.68832  0.22486  1.0000
  H   H837      1.0  0.26693  0.72236  0.23431  1.0000
  H   H838      1.0  0.29683  0.69646  0.44122  1.0000
  C   C497      1.0  0.25944  0.73903  0.39008  1.0000
  H   H839      1.0  0.27280  0.52401  0.01173  1.0000
  C   C498      1.0  0.41307  0.55660  0.45538  1.0000
  H   H840      1.0  0.10244  0.50857  0.20865  1.0000
  H   H841      1.0  0.16210  0.59283  0.11083  1.0000
  H   H842      1.0  0.28355  0.65063  0.27313  1.0000
  H   H843      1.0  0.27019  0.62570  0.24153  1.0000
  H   H844      1.0  0.30371  0.63664  0.25772  1.0000
  H   H845      1.0  0.14440  0.54080  0.30695  1.0000
  H   H846      1.0  0.31209  0.70703  0.08276  1.0000
  H   H847      1.0  0.31778  0.68336  0.10571  1.0000
  H   H848      1.0  0.27547  0.72990  0.08328  1.0000
  H   H849      1.0  0.14467  0.59371  0.05790  1.0000
  C   C499      1.0  0.22060  0.66543  0.02235  1.0000
  H   H850      1.0  0.32814  0.73184  0.40875  1.0000
  C   C500      1.0  0.37222  0.65770  0.44059  1.0000
  H   H851      1.0  0.43204  0.67064  0.12627  1.0000
  H   H852      1.0  0.38427  0.71077  0.47378  1.0000
  H   H853      1.0  0.24340  0.51176  0.03792  1.0000
  H   H854      1.0  0.27141  0.62722  0.05128  1.0000
  H   H855      1.0  0.22182  0.70611  0.18376  1.0000
  H   H856      1.0  0.48216  0.73810  0.04512  1.0000
  H   H857      1.0  0.33760  0.50933  0.34169  1.0000
  H   H858      1.0  0.24105  0.64144  0.01792  1.0000
  H   H859      1.0  0.16135  0.52376  0.03400  1.0000
  H   H860      1.0  0.17239  0.53367  0.30399  1.0000
  H   H861      1.0  0.13040  0.60497  0.18409  1.0000
  S   S122      1.0  0.38050  0.57134  0.99055  1.0000
  C   C501      1.0  0.15765  0.53943  0.24246  1.0000
  H   H862      1.0  0.14190  0.53086  0.16342  1.0000
  H   H863      1.0  0.22513  0.70413  0.28734  1.0000
  C   C502      1.0  0.36015  0.74671  0.35829  1.0000
  C   C503      1.0  0.35747  0.57449  0.48033  1.0000
  H   H864      1.0  0.21776  0.51111  0.43585  1.0000
  H   H865      1.0  0.10023  0.57892  0.20433  1.0000
  C   C504      1.0  0.17660  0.52597  0.44085  1.0000
  H   H866      1.0  0.26487  0.74937  0.29787  1.0000
  C   C505      1.0  0.16655  0.54970  0.30140  1.0000
  H   H867      1.0  0.03423  0.69618  0.12062  1.0000
  H   H868      1.0  0.26385  0.67774  0.02263  1.0000
  C   C506      1.0  0.38177  0.74692  0.45947  1.0000
  Fe  Fe60      1.0  0.43166  0.66226  0.47446  1.0000
  H   H869      1.0  0.32880  0.56472  0.44290  1.0000
  C   C507      1.0  0.25946  0.53424  0.45330  1.0000
  H   H870      1.0  0.14359  0.63619  0.06075  1.0000
  C   C508      1.0  0.22966  0.51017  0.14362  1.0000
  H   H871      1.0  0.45956  0.68865  0.15394  1.0000
  H   H872      1.0  0.48964  0.64687  0.17794  1.0000
  H   H873      1.0  0.27486  0.60032  0.00649  1.0000
  H   H874      1.0  0.10083  0.58152  0.16171  1.0000
  C   C509      1.0  0.33503  0.70941  0.46802  1.0000
  H   H875      1.0  0.42097  0.70886  0.12890  1.0000
  H   H876      1.0  0.14344  0.61111  0.11124  1.0000
  H   H877      1.0  0.34718  0.54600  0.44239  1.0000
  H   H878      1.0  0.40847  0.67607  0.41137  1.0000
  H   H879      1.0  0.33946  0.69358  0.45880  1.0000
  H   H880      1.0  0.27850  0.53304  0.45468  1.0000
  H   H881      1.0  0.09247  0.71604  0.05333  1.0000
  C   C510      1.0  0.28734  0.62108  0.05090  1.0000
  C   C511      1.0  0.34690  0.73119  0.41547  1.0000
  H   H882      1.0  0.22560  0.68654  0.01598  1.0000
  C   C512      1.0  0.05525  0.74046  0.13115  1.0000
  H   H883      1.0  0.22032  0.71632  0.22346  1.0000
  H   H884      1.0  0.39750  0.66810  0.98942  1.0000
  H   H885      1.0  0.40366  0.51513  0.00434  1.0000
  H   H886      1.0  0.25187  0.53378  0.47771  1.0000
  H   H887      1.0  0.01945  0.75079  0.07113  1.0000
  H   H888      1.0  0.19447  0.57198  0.01906  1.0000
  N   N29       1.0  0.36305  0.58456  0.38815  1.0000
  C   C513      1.0  0.33836  0.58822  0.38458  1.0000
  C   C514      1.0  0.37084  0.58742  0.42276  1.0000
  C   C515      1.0  0.38665  0.60774  0.37044  1.0000
  C   C516      1.0  0.35864  0.55773  0.37504  1.0000
  C   C517      1.0  0.32909  0.53279  0.37642  1.0000
  C   C518      1.0  0.33118  0.59217  0.35020  1.0000
  C   C519      1.0  0.41479  0.60919  0.37345  1.0000
  H   H889      1.0  0.38547  0.71589  0.43167  1.0000
  H   H890      1.0  0.32725  0.74059  0.18490  1.0000
  H   H891      1.0  0.30609  0.63694  0.06298  1.0000
  C   C520      1.0  0.30215  0.58784  0.34813  1.0000
  C   C521      1.0  0.43596  0.63040  0.35074  1.0000
  H   H892      1.0  0.34152  0.60647  0.39815  1.0000
  H   H893      1.0  0.31981  0.57089  0.39524  1.0000
  H   H894      1.0  0.38927  0.58535  0.42635  1.0000
  H   H895      1.0  0.37670  0.60838  0.43112  1.0000
  H   H896      1.0  0.38943  0.62781  0.37825  1.0000
  H   H897      1.0  0.38220  0.60640  0.34462  1.0000
  H   H898      1.0  0.36473  0.56002  0.34958  1.0000
  H   H899      1.0  0.37248  0.55173  0.38719  1.0000
  H   H900      1.0  0.31538  0.53597  0.36025  1.0000
  H   H901      1.0  0.32023  0.52923  0.40051  1.0000
  H   H902      1.0  0.34553  0.61345  0.34211  1.0000
  H   H903      1.0  0.33287  0.57786  0.33363  1.0000
  H   H904      1.0  0.41321  0.58916  0.36843  1.0000
  H   H905      1.0  0.42288  0.61547  0.39767  1.0000
  H   H906      1.0  0.37762  0.57617  0.48526  1.0000
  H   H907      1.0  0.35884  0.59444  0.48556  1.0000
  Fe  Fe61      1.0  0.46184  0.63267  0.45448  1.0000
  H   H908      1.0  0.26576  0.65973  0.47807  1.0000
  C   C522      1.0  0.44188  0.71324  0.13524  1.0000
  S   S123      1.0  0.17873  0.72725  0.15705  1.0000
  H   H909      1.0  0.42647  0.68672  0.19427  1.0000
  H   H910      1.0  0.28667  0.56623  0.35355  1.0000
  H   H911      1.0  0.29959  0.60153  0.36492  1.0000
  H   H912      1.0  0.29840  0.59278  0.32379  1.0000
  H   H913      1.0  0.45611  0.63170  0.35456  1.0000
  H   H914      1.0  0.42971  0.62448  0.32575  1.0000
  H   H915      1.0  0.43841  0.65091  0.35516  1.0000
  N   N30       1.0  0.15662  0.54962  0.20956  1.0000
  H   H916      1.0  0.25242  0.54994  0.99350  1.0000
  C   C523      1.0  0.18583  0.56864  0.19906  1.0000
  C   C524      1.0  0.14044  0.56446  0.21080  1.0000
  C   C525      1.0  0.12452  0.56383  0.18042  1.0000
  H   H917      1.0  0.35173  0.72515  0.35070  1.0000
  C   C526      1.0  0.22022  0.59850  0.15715  1.0000
  C   C527      1.0  0.18983  0.58229  0.16614  1.0000
  H   H918      1.0  0.12359  0.74757  0.04479  1.0000
  H   H919      1.0  0.19638  0.58603  0.21570  1.0000
  H   H920      1.0  0.09297  0.73860  0.02243  1.0000
  C   C528      1.0  0.34393  0.64818  0.44157  1.0000
  H   H921      1.0  0.15417  0.58628  0.21738  1.0000
  H   H922      1.0  0.18763  0.68705  0.02476  1.0000
  H   H923      1.0  0.13741  0.56934  0.15892  1.0000
  H   H924      1.0  0.21945  0.66334  0.04852  1.0000
  C   C529      1.0  0.14270  0.62154  0.00027  1.0000
  C   C530      1.0  0.49005  0.73751  0.11989  1.0000
  H   H925      1.0  0.49359  0.74846  0.14280  1.0000
  H   H926      1.0  0.22885  0.58461  0.15538  1.0000
  H   H927      1.0  0.28324  0.57871  0.45332  1.0000
  H   H928      1.0  0.07128  0.71739  0.17926  1.0000
  H   H929      1.0  0.43138  0.69372  0.08047  1.0000
  H   H930      1.0  0.46378  0.70843  0.99888  1.0000
  H   H931      1.0  0.47457  0.65821  0.08097  1.0000
  C   C531      1.0  0.02143  0.74145  0.09360  1.0000
  Fe  Fe62      1.0  0.49250  0.69528  0.45856  1.0000
  S   S124      1.0  0.50117  0.66334  0.47826  1.0000
  H   H932      1.0  0.05182  0.71793  0.07187  1.0000
  C   C532      1.0  0.14507  0.67361  0.01877  1.0000
  C   C533      1.0  0.16350  0.63818  0.05336  1.0000
  H   H933      1.0  0.18108  0.53547  0.46395  1.0000
  S   S125      1.0  0.45571  0.66511  0.43078  1.0000
  H   H934      1.0  0.21568  0.70999  0.32633  1.0000
  C   C534      1.0  0.45400  0.70816  0.08100  1.0000
  H   H935      1.0  0.19148  0.69950  0.29439  1.0000
  H   H936      1.0  0.31870  0.66114  0.01152  1.0000
  H   H937      1.0  0.39865  0.66869  0.16651  1.0000
  H   H938      1.0  0.43593  0.74341  0.08961  1.0000
  H   H939      1.0  0.17928  0.65631  0.06653  1.0000
  H   H940      1.0  0.24338  0.51544  0.40820  1.0000
  C   C535      1.0  0.34909  0.56638  0.44590  1.0000
  C   C536      1.0  0.42366  0.74080  0.45592  1.0000
  C   C537      1.0  0.14888  0.70075  0.00620  1.0000
  H   H941      1.0  0.43137  0.75154  0.47884  1.0000
  H   H942      1.0  0.41806  0.65324  0.18029  1.0000
  H   H943      1.0  0.19768  0.55761  0.19949  1.0000
  C   C538      1.0  0.05226  0.70261  0.16666  1.0000
  H   H944      1.0  0.38135  0.72373  0.05559  1.0000
  H   H945      1.0  0.14963  0.58644  0.00817  1.0000
  H   H946      1.0  0.15801  0.51650  0.18546  1.0000
  C   C539      1.0  0.38129  0.73527  0.10421  1.0000
  H   H947      1.0  0.23199  0.61454  0.17503  1.0000
  H   H948      1.0  0.16774  0.71824  0.01618  1.0000
  H   H949      1.0  0.23040  0.75232  0.40022  1.0000
  H   H950      1.0  0.16713  0.57788  0.26670  1.0000
  C   C540      1.0  0.17289  0.56175  0.26793  1.0000
  H   H951      1.0  0.00767  0.69954  0.07573  1.0000
  Fe  Fe63      1.0  0.14916  0.73799  0.13426  1.0000
  H   H952      1.0  0.05194  0.72986  0.41959  1.0000
  C   C541      1.0  0.10091  0.73774  0.04622  1.0000
  H   H953      1.0  0.27946  0.60159  0.06423  1.0000
  C   C542      1.0  0.21352  0.71211  0.30052  1.0000
  C   C543      1.0  0.46116  0.72040  0.04698  1.0000
  C   C544      1.0  0.11334  0.58350  0.18293  1.0000
  H   H954      1.0  0.18180  0.61162  0.05907  1.0000
  C   C545      1.0  0.28711  0.74735  0.38552  1.0000
  H   H955      1.0  0.22259  0.60852  0.13374  1.0000
  C   C546      1.0  0.45862  0.69912  0.02292  1.0000
  H   H956      1.0  0.19541  0.57131  0.26451  1.0000
  C   C547      1.0  0.22364  0.74196  0.29178  1.0000
  C   C548      1.0  0.24866  0.74475  0.09810  1.0000
  C   C549      1.0  0.04729  0.73878  0.44048  1.0000
  C   C550      1.0  0.14402  0.52507  0.18795  1.0000
  C   C551      1.0  0.05288  0.71189  0.13245  1.0000
  C   C552      1.0  0.33583  0.51886  0.99491  1.0000
  C   C553      1.0  0.32029  0.73794  0.23492  1.0000
  H   H957      1.0  0.17848  0.56621  0.31876  1.0000
  C   C554      1.0  0.39235  0.72652  0.45468  1.0000
  H   H958      1.0  0.28320  0.67601  0.09781  1.0000
  H   H959      1.0  0.41748  0.57144  0.47382  1.0000
  H   H960      1.0  0.19218  0.62381  0.00987  1.0000
  C   C555      1.0  0.23710  0.51036  0.43344  1.0000
  C   C556      1.0  0.50225  0.56616  0.41588  1.0000
  H   H961      1.0  0.35868  0.74241  0.25275  1.0000
  H   H962      1.0  0.32569  0.72578  0.13561  1.0000
  H   H963      1.0  0.13651  0.52599  0.25171  1.0000
  H   H964      1.0  0.05091  0.68228  0.16690  1.0000
  H   H965      1.0  0.12593  0.65699  0.00830  1.0000
  C   C557      1.0  0.32871  0.50671  0.36583  1.0000
  H   H966      1.0  0.44665  0.72742  0.03981  1.0000
  C   C558      1.0  0.14326  0.59561  0.98916  1.0000
  H   H967      1.0  0.34397  0.75238  0.35584  1.0000
  C   C559      1.0  0.40204  0.51724  0.40858  1.0000
  H   H968      1.0  0.28532  0.64574  0.99478  1.0000
  C   C560      1.0  0.30385  0.64350  0.99690  1.0000
  H   H969      1.0  0.02596  0.73487  0.43822  1.0000
  H   H970      1.0  0.31171  0.75170  0.23127  1.0000
  H   H971      1.0  0.27791  0.53150  0.05333  1.0000
  H   H972      1.0  0.22090  0.74306  0.26595  1.0000
  H   H973      1.0  0.21020  0.74819  0.30418  1.0000
  C   C561      1.0  0.19338  0.64388  0.00661  1.0000
  H   H974      1.0  0.32184  0.74918  0.45445  1.0000
  H   H975      1.0  0.49264  0.71963  0.12543  1.0000
  H   H976      1.0  0.35094  0.63079  0.00320  1.0000
  N   N31       1.0  0.16753  0.64303  0.01811  1.0000
  H   H977      1.0  0.29312  0.65417  0.46553  1.0000
  H   H978      1.0  0.04041  0.74041  0.14865  1.0000
  H   H979      1.0  0.05544  0.74575  0.04902  1.0000
  H   H980      1.0  0.12366  0.61473  0.01452  1.0000
  S   S126      1.0  0.38268  0.74948  0.16691  1.0000
  C   C562      1.0  0.17045  0.67065  0.01100  1.0000
  H   H981      1.0  0.49747  0.57742  0.43398  1.0000
  H   H982      1.0  0.38715  0.74549  0.39313  1.0000
  C   C563      1.0  0.27436  0.74709  0.09282  1.0000
  C   C564      1.0  0.37033  0.75036  0.39248  1.0000
  C   C565      1.0  0.09309  0.75261  0.07057  1.0000
  H   H983      1.0  0.35381  0.50403  0.09635  1.0000
  H   H984      1.0  0.48984  0.75282  0.43697  1.0000
  H   H985      1.0  0.43670  0.53935  0.98800  1.0000
  H   H986      1.0  0.36876  0.55123  0.92706  1.0000
  H   H987      1.0  0.40004  0.71196  0.82545  1.0000
  Fe  Fe64      1.0  0.21218  0.58498  0.84102  1.0000
  S   S127      1.0  0.24347  0.60004  0.87964  1.0000
  S   S128      1.0  0.19991  0.54272  0.82206  1.0000
  Fe  Fe65      1.0  0.20150  0.63322  0.84752  1.0000
  S   S129      1.0  0.23181  0.65048  0.88755  1.0000
  S   S130      1.0  0.18646  0.66333  0.83649  1.0000
  Fe  Fe66      1.0  0.25895  0.64142  0.85751  1.0000
  S   S131      1.0  0.30426  0.67275  0.85797  1.0000
  Fe  Fe67      1.0  0.21355  0.60776  0.90594  1.0000
  S   S132      1.0  0.20889  0.59994  0.95875  1.0000
  S   S133      1.0  0.23001  0.62611  0.81624  1.0000
  S   S134      1.0  0.18086  0.59067  0.86865  1.0000
  Fe  Fe68      1.0  0.47477  0.66211  0.51871  1.0000
  S   S135      1.0  0.48583  0.66421  0.57068  1.0000
  Fe  Fe69      1.0  0.05390  0.70365  0.69773  1.0000
  S   S136      1.0  0.03128  0.67655  0.73894  1.0000
  S   S137      1.0  0.04078  0.70141  0.64669  1.0000
  H   H988      1.0  0.13951  0.63039  0.97808  1.0000
  C   C566      1.0  0.34640  0.65568  0.96625  1.0000
  Fe  Fe70      1.0  0.07240  0.68282  0.75485  1.0000
  S   S138      1.0  0.07729  0.64670  0.77006  1.0000
  C   C567      1.0  0.32157  0.69296  0.95776  1.0000
  C   C568      1.0  0.45140  0.69932  0.60429  1.0000
  H   H989      1.0  0.15791  0.60111  0.96912  1.0000
  H   H990      1.0  0.29267  0.52827  0.86765  1.0000
  C   C569      1.0  0.35485  0.53974  0.97520  1.0000
  C   C570      1.0  0.34574  0.72513  0.77013  1.0000
  H   H991      1.0  0.35614  0.67377  0.98217  1.0000
  C   C571      1.0  0.03149  0.65005  0.82989  1.0000
  H   H992      1.0  0.39377  0.63468  0.98426  1.0000
  H   H993      1.0  0.40402  0.72835  0.77199  1.0000
  C   C572      1.0  0.31096  0.66386  0.94408  1.0000
  H   H994      1.0  0.11663  0.55566  0.96890  1.0000
  C   C573      1.0  0.47929  0.72473  0.59808  1.0000
  C   C574      1.0  0.37119  0.67242  0.78041  1.0000
  H   H995      1.0  0.34197  0.55873  0.49643  1.0000
  H   H996      1.0  0.21060  0.53288  0.93952  1.0000
  H   H997      1.0  0.23619  0.56775  0.97724  1.0000
  C   C575      1.0  0.31941  0.69312  0.82413  1.0000
  C   C576      1.0  0.34627  0.71527  0.82609  1.0000
  C   C577      1.0  0.34932  0.64425  0.76704  1.0000
  H   H998      1.0  0.29636  0.52674  0.90992  1.0000
  C   C578      1.0  0.31875  0.70318  0.76827  1.0000
  C   C579      1.0  0.30552  0.68733  0.79524  1.0000
  H   H999      1.0  0.36104  0.68490  0.78288  1.0000
  H   H1000     1.0  0.19613  0.70623  0.78312  1.0000
  H   H1001     1.0  0.28484  0.67026  0.79347  1.0000
  C   C580      1.0  0.15525  0.65739  0.81907  1.0000
  C   C581      1.0  0.14922  0.67877  0.81906  1.0000
  C   C582      1.0  0.12568  0.67590  0.80380  1.0000
  C   C583      1.0  0.10752  0.65132  0.78888  1.0000
  C   C584      1.0  0.11315  0.62966  0.78954  1.0000
  C   C585      1.0  0.13701  0.63272  0.80437  1.0000
  H   H1002     1.0  0.16291  0.69769  0.83095  1.0000
  H   H1003     1.0  0.12136  0.69255  0.80392  1.0000
  H   H1004     1.0  0.09914  0.61050  0.77825  1.0000
  H   H1005     1.0  0.14133  0.61606  0.80425  1.0000
  H   H1006     1.0  0.38800  0.52508  0.84760  1.0000
  H   H1007     1.0  0.24526  0.53887  0.93880  1.0000
  C   C586      1.0  0.44217  0.74377  0.82345  1.0000
  C   C587      1.0  0.18368  0.56640  0.96955  1.0000
  C   C588      1.0  0.16637  0.54799  0.94676  1.0000
  C   C589      1.0  0.41411  0.71594  0.77623  1.0000
  C   C590      1.0  0.21588  0.50417  0.81775  1.0000
  H   H1008     1.0  0.33321  0.50735  0.90405  1.0000
  H   H1009     1.0  0.16786  0.55438  0.92237  1.0000
  C   C591      1.0  0.22451  0.53223  0.81700  1.0000
  H   H1010     1.0  0.13275  0.67753  0.70139  1.0000
  H   H1011     1.0  0.24706  0.66453  0.98512  1.0000
  Fe  Fe71      1.0  0.10194  0.74341  0.73922  1.0000
  C   C592      1.0  0.27032  0.54166  0.80264  1.0000
  C   C593      1.0  0.25198  0.55101  0.81007  1.0000
  C   C594      1.0  0.25417  0.50685  0.89335  1.0000
  H   H1012     1.0  0.29130  0.55623  0.79626  1.0000
  H   H1013     1.0  0.25881  0.57266  0.80921  1.0000
  H   H1014     1.0  0.19556  0.52306  0.73640  1.0000
  H   H1015     1.0  0.20808  0.74719  0.82889  1.0000
  C   C595      1.0  0.11520  0.57355  0.97732  1.0000
  C   C596      1.0  0.14706  0.52105  0.95544  1.0000
  H   H1016     1.0  0.30599  0.75190  0.76317  1.0000
  C   C597      1.0  0.35405  0.53520  0.94244  1.0000
  H   H1017     1.0  0.41601  0.51823  0.85061  1.0000
  C   C598      1.0  0.29849  0.58593  0.90366  1.0000
  H   H1018     1.0  0.27846  0.60942  0.94791  1.0000
  C   C599      1.0  0.22942  0.71338  0.75122  1.0000
  C   C600      1.0  0.38966  0.69135  0.72824  1.0000
  H   H1019     1.0  0.46705  0.74040  0.55934  1.0000
  C   C601      1.0  0.16537  0.70672  0.73152  1.0000
  H   H1020     1.0  0.32321  0.73115  0.94533  1.0000
  H   H1021     1.0  0.30569  0.57479  0.91908  1.0000
  H   H1022     1.0  0.01418  0.70098  0.58910  1.0000
  C   C602      1.0  0.23317  0.54723  0.98301  1.0000
  H   H1023     1.0  0.21546  0.67419  0.77494  1.0000
  C   C603      1.0  0.40289  0.71472  0.67445  1.0000
  S   S139      1.0  0.06379  0.74257  0.72223  1.0000
  H   H1024     1.0  0.04408  0.66297  0.84986  1.0000
  C   C604      1.0  0.14557  0.51198  0.98669  1.0000
  S   S140      1.0  0.43596  0.62841  0.49697  1.0000
  N   N32       1.0  0.39748  0.68798  0.76150  1.0000
  C   C605      1.0  0.23506  0.69268  0.76814  1.0000
  H   H1025     1.0  0.16639  0.69287  0.68363  1.0000
  H   H1026     1.0  0.25790  0.71166  0.88697  1.0000
  H   H1027     1.0  0.42932  0.72770  0.71453  1.0000
  C   C606      1.0  0.35611  0.63584  0.97796  1.0000
  H   H1028     1.0  0.21647  0.70295  0.73034  1.0000
  H   H1029     1.0  0.45051  0.70257  0.73807  1.0000
  H   H1030     1.0  0.33309  0.62539  0.91297  1.0000
  H   H1031     1.0  0.43918  0.70392  0.62124  1.0000
  H   H1032     1.0  0.37701  0.67113  0.71680  1.0000
  H   H1033     1.0  0.19563  0.64761  0.98052  1.0000
  H   H1034     1.0  0.38007  0.74828  0.80103  1.0000
  H   H1035     1.0  0.42522  0.51325  0.93781  1.0000
  H   H1036     1.0  0.30870  0.73889  0.81944  1.0000
  H   H1037     1.0  0.44784  0.65760  0.73058  1.0000
  H   H1038     1.0  0.30355  0.62591  0.89780  1.0000
  H   H1039     1.0  0.49040  0.71861  0.58130  1.0000
  H   H1040     1.0  0.26860  0.70191  0.85137  1.0000
  C   C607      1.0  0.28424  0.51510  0.88904  1.0000
  S   S141      1.0  0.09388  0.70655  0.71105  1.0000
  H   H1041     1.0  0.34058  0.71163  0.49364  1.0000
  H   H1042     1.0  0.24641  0.68622  0.75208  1.0000
  H   H1043     1.0  0.30651  0.74324  0.87723  1.0000
  S   S142      1.0  0.46797  0.69557  0.50021  1.0000
  C   C608      1.0  0.22620  0.53029  0.95281  1.0000
  H   H1044     1.0  0.25312  0.52583  0.89469  1.0000
  C   C609      1.0  0.15268  0.69687  0.69884  1.0000
  H   H1045     1.0  0.42029  0.72667  0.65796  1.0000
  H   H1046     1.0  0.30263  0.60119  0.96328  1.0000
  C   C610      1.0  0.19249  0.73465  0.72917  1.0000
  H   H1047     1.0  0.42303  0.69577  0.69752  1.0000
  H   H1048     1.0  0.31104  0.69211  0.98034  1.0000
  H   H1049     1.0  0.47841  0.68154  0.75135  1.0000
  C   C611      1.0  0.39345  0.50910  0.85310  1.0000
  C   C612      1.0  0.31631  0.71078  0.93466  1.0000
  C   C613      1.0  0.41342  0.70800  0.70461  1.0000
  H   H1050     1.0  0.22858  0.73277  0.79458  1.0000
  Fe  Fe72      1.0  0.04357  0.71591  0.76450  1.0000
  H   H1051     1.0  0.30516  0.58565  0.87896  1.0000
  H   H1052     1.0  0.46195  0.74803  0.81268  1.0000
  H   H1053     1.0  0.16855  0.69046  0.74195  1.0000
  H   H1054     1.0  0.28534  0.75047  0.81292  1.0000
  H   H1055     1.0  0.33448  0.62365  0.81276  1.0000
  H   H1056     1.0  0.37564  0.66852  0.80495  1.0000
  H   H1057     1.0  0.40812  0.65985  0.78415  1.0000
  C   C614      1.0  0.31046  0.61547  0.91469  1.0000
  C   C615      1.0  0.41222  0.67172  0.76166  1.0000
  H   H1058     1.0  0.24941  0.73039  0.74282  1.0000
  H   H1059     1.0  0.39389  0.65392  0.95008  1.0000
  H   H1060     1.0  0.40394  0.65601  0.74264  1.0000
  H   H1061     1.0  0.30814  0.69817  0.74579  1.0000
  H   H1062     1.0  0.37648  0.70092  0.72914  1.0000
  C   C616      1.0  0.32634  0.62834  0.79112  1.0000
  C   C617      1.0  0.47597  0.74799  0.58317  1.0000
  H   H1063     1.0  0.38758  0.69567  0.66243  1.0000
  C   C618      1.0  0.38726  0.64907  0.97519  1.0000
  H   H1064     1.0  0.45356  0.70017  0.77988  1.0000
  S   S143      1.0  0.08281  0.72000  0.78420  1.0000
  H   H1065     1.0  0.45446  0.68290  0.61463  1.0000
  H   H1066     1.0  0.03549  0.63281  0.82658  1.0000
  H   H1067     1.0  0.45983  0.74975  0.59647  1.0000
  S   S144      1.0  0.00993  0.71895  0.79036  1.0000
  C   C619      1.0  0.26158  0.51357  0.80305  1.0000
  C   C620      1.0  0.41891  0.71606  0.81244  1.0000
  H   H1068     1.0  0.43446  0.72796  0.76475  1.0000
  H   H1069     1.0  0.29408  0.70113  0.92917  1.0000
  H   H1070     1.0  0.27576  0.57529  0.90410  1.0000
  N   N33       1.0  0.20873  0.74497  0.75941  1.0000
  H   H1071     1.0  0.00771  0.73096  0.67249  1.0000
  H   H1072     1.0  0.33959  0.64713  0.74560  1.0000
  H   H1073     1.0  0.28860  0.65488  0.93909  1.0000
  H   H1074     1.0  0.24763  0.70170  0.78972  1.0000
  C   C621      1.0  0.30091  0.61677  0.94889  1.0000
  H   H1075     1.0  0.35856  0.63151  0.76081  1.0000
  H   H1076     1.0  0.49407  0.73383  0.71576  1.0000
  H   H1077     1.0  0.42401  0.70010  0.81924  1.0000
  H   H1078     1.0  0.24864  0.71897  0.84888  1.0000
  H   H1079     1.0  0.39452  0.51611  0.90305  1.0000
  H   H1080     1.0  0.49121  0.64981  0.70068  1.0000
  H   H1081     1.0  0.31630  0.64027  0.79788  1.0000
  C   C622      1.0  0.45568  0.66917  0.75300  1.0000
  H   H1082     1.0  0.45025  0.65459  0.77311  1.0000
  H   H1083     1.0  0.03804  0.66272  0.80801  1.0000
  H   H1084     1.0  0.32788  0.71378  0.91225  1.0000
  H   H1085     1.0  0.10830  0.58144  0.95729  1.0000
  H   H1086     1.0  0.14886  0.71234  0.68715  1.0000
  H   H1087     1.0  0.39332  0.72733  0.68013  1.0000
  H   H1088     1.0  0.15006  0.70868  0.74616  1.0000
  H   H1089     1.0  0.49043  0.73080  0.62090  1.0000
  C   C623      1.0  0.44394  0.68812  0.75817  1.0000
  H   H1090     1.0  0.35711  0.71986  0.84841  1.0000
  H   H1091     1.0  0.34397  0.70332  0.96221  1.0000
  H   H1092     1.0  0.17572  0.67594  0.98550  1.0000
  C   C624      1.0  0.33406  0.51022  0.92937  1.0000
  H   H1093     1.0  0.31055  0.60872  0.78058  1.0000
  H   H1094     1.0  0.32103  0.66687  0.92057  1.0000
  H   H1095     1.0  0.35616  0.66368  0.94271  1.0000
  H   H1096     1.0  0.20533  0.73327  0.71000  1.0000
  H   H1097     1.0  0.44418  0.74368  0.84961  1.0000
  H   H1098     1.0  0.34713  0.61665  0.96411  1.0000
  H   H1099     1.0  0.43986  0.69160  0.58178  1.0000
  C   C625      1.0  0.35931  0.73143  0.79926  1.0000
  N   N34       1.0  0.31578  0.64452  0.96439  1.0000
  H   H1100     1.0  0.17259  0.73155  0.78855  1.0000
  C   C626      1.0  0.26506  0.71782  0.86220  1.0000
  C   C627      1.0  0.21502  0.72410  0.77360  1.0000
  C   C628      1.0  0.41502  0.52454  0.98202  1.0000
  C   C629      1.0  0.50506  0.74876  0.73398  1.0000
  H   H1101     1.0  0.40604  0.53601  0.97051  1.0000
  C   C630      1.0  0.19193  0.75067  0.78276  1.0000
  H   H1102     1.0  0.15029  0.70145  0.97994  1.0000
  H   H1103     1.0  0.13356  0.50700  0.93772  1.0000
  C   C631      1.0  0.29156  0.74544  0.86213  1.0000
  H   H1104     1.0  0.18655  0.74954  0.72018  1.0000
  H   H1105     1.0  0.16733  0.51033  0.88485  1.0000
  S   S145      1.0  0.36228  0.74321  0.73533  1.0000
  H   H1106     1.0  0.20790  0.50663  0.89671  1.0000
  H   H1107     1.0  0.29386  0.66763  0.50460  1.0000
  C   C632      1.0  0.00845  0.74885  0.78179  1.0000
  C   C633      1.0  0.00620  0.68153  0.63496  1.0000
  Fe  Fe73      1.0  0.15778  0.94442  0.05179  1.0000
  S   S146      1.0  0.16767  0.92679  0.00988  1.0000
  Fe  Fe74      1.0  0.10016  0.89423  0.05961  1.0000
  S   S147      1.0  0.10636  0.87356  0.01739  1.0000
  S   S148      1.0  0.06209  0.86725  0.08965  1.0000
  Fe  Fe75      1.0  0.14816  0.88751  0.03746  1.0000
  S   S149      1.0  0.16846  0.86159  0.03460  1.0000
  C   C634      1.0  0.38169  0.98114  0.18173  1.0000
  S   S150      1.0  0.11597  0.93471  0.03420  1.0000
  S   S151      1.0  0.14150  0.90596  0.08110  1.0000
  Fe  Fe76      1.0  0.38992  0.79170  0.15516  1.0000
  S   S152      1.0  0.38845  0.80742  0.10681  1.0000
  H   H1108     1.0  0.34396  0.82297  0.33561  1.0000
  Fe  Fe77      1.0  0.40329  0.84537  0.18702  1.0000
  S   S153      1.0  0.40418  0.86573  0.14087  1.0000
  S   S154      1.0  0.41011  0.86560  0.23483  1.0000
  Fe  Fe78      1.0  0.36571  0.82588  0.13040  1.0000
  S   S155      1.0  0.32721  0.82634  0.11587  1.0000
  Fe  Fe79      1.0  0.42725  0.84553  0.12191  1.0000
  S   S156      1.0  0.46226  0.86164  0.08595  1.0000
  S   S157      1.0  0.36384  0.80686  0.17762  1.0000
  S   S158      1.0  0.42961  0.82852  0.16919  1.0000
  Fe  Fe80      1.0  0.31946  0.89863  0.33916  1.0000
  S   S159      1.0  0.34925  0.90055  0.37545  1.0000
  S   S160      1.0  0.32690  0.90155  0.28616  1.0000
  Fe  Fe81      1.0  0.27452  0.88411  0.38856  1.0000
  S   S161      1.0  0.30046  0.88335  0.42862  1.0000
  S   S162      1.0  0.23130  0.87745  0.38970  1.0000
  Fe  Fe82      1.0  0.33371  0.92225  0.40636  1.0000
  S   S163      1.0  0.36180  0.95517  0.44074  1.0000
  Fe  Fe83      1.0  0.31393  0.86170  0.39445  1.0000
  S   S164      1.0  0.32522  0.82889  0.40279  1.0000
  S   S165      1.0  0.30706  0.92423  0.36808  1.0000
  S   S166      1.0  0.28484  0.85867  0.35653  1.0000
  S   S167      1.0  0.14816  0.77680  0.14451  1.0000
  C   C635      1.0  0.29644  0.95987  0.45477  1.0000
  C   C636      1.0  0.03669  0.95936  0.19932  1.0000
  S   S168      1.0  0.04261  0.84063  0.45643  1.0000
  H   H1109     1.0  0.35528  0.80159  0.31703  1.0000
  H   H1110     1.0  0.47257  0.87658  0.48135  1.0000
  S   S169      1.0  0.13624  0.97258  0.45125  1.0000
  C   C637      1.0  0.40963  0.93094  0.43969  1.0000
  H   H1111     1.0  0.20011  0.99189  0.47208  1.0000
  S   S170      1.0  0.11869  0.90024  0.46213  1.0000
  C   C638      1.0  0.34344  0.81227  0.31337  1.0000
  H   H1112     1.0  0.31458  0.98069  0.45686  1.0000
  H   H1113     1.0  0.30841  0.82568  0.29058  1.0000
  C   C639      1.0  0.23201  0.98469  0.45346  1.0000
  H   H1114     1.0  0.17518  0.79347  0.39934  1.0000
  C   C640      1.0  0.49764  0.88365  0.09394  1.0000
  H   H1115     1.0  0.27352  0.76544  0.24742  1.0000
  H   H1116     1.0  0.44627  0.76370  0.14323  1.0000
  H   H1117     1.0  0.25421  0.92229  0.34300  1.0000
  H   H1118     1.0  0.05012  0.78449  0.14518  1.0000
  H   H1119     1.0  0.21018  0.95296  0.08888  1.0000
  C   C641      1.0  0.15904  0.79477  0.44602  1.0000
  H   H1120     1.0  0.17805  0.81641  0.03800  1.0000
  C   C642      1.0  0.34961  0.75548  0.24708  1.0000
  C   C643      1.0  0.21679  0.88278  0.42410  1.0000
  C   C644      1.0  0.22504  0.87992  0.45443  1.0000
  H   H1121     1.0  0.22464  0.80405  0.08139  1.0000
  H   H1122     1.0  0.32209  0.94971  0.04629  1.0000
  C   C645      1.0  0.18210  0.89122  0.44769  1.0000
  C   C646      1.0  0.19542  0.88861  0.42085  1.0000
  H   H1123     1.0  0.24136  0.87522  0.45716  1.0000
  H   H1124     1.0  0.33863  0.94004  0.07642  1.0000
  H   H1125     1.0  0.16564  0.89562  0.44478  1.0000
  H   H1126     1.0  0.18889  0.89080  0.39745  1.0000
  C   C647      1.0  0.29958  0.79464  0.39639  1.0000
  C   C648      1.0  0.30717  0.77506  0.38912  1.0000
  C   C649      1.0  0.29533  0.80220  0.19730  1.0000
  H   H1127     1.0  0.49470  0.79835  0.44809  1.0000
  H   H1128     1.0  0.42968  0.98600  0.20982  1.0000
  C   C650      1.0  0.46018  0.79696  0.11031  1.0000
  H   H1129     1.0  0.32856  0.78143  0.38574  1.0000
  H   H1130     1.0  0.49228  0.89178  0.14236  1.0000
  C   C651      1.0  0.29730  0.79440  0.11027  1.0000
  C   C652      1.0  0.25184  0.75869  0.39680  1.0000
  H   H1131     1.0  0.42212  0.94491  0.26255  1.0000
  H   H1132     1.0  0.25326  0.78017  0.23743  1.0000
  H   H1133     1.0  0.43209  0.98050  0.26841  1.0000
  C   C653      1.0  0.27159  0.79208  0.11539  1.0000
  H   H1134     1.0  0.06150  0.77729  0.46329  1.0000
  C   C654      1.0  0.47099  0.89460  0.47363  1.0000
  H   H1135     1.0  0.27047  0.80956  0.12374  1.0000
  C   C655      1.0  0.38590  0.87420  0.24889  1.0000
  C   C656      1.0  0.38885  0.88463  0.27960  1.0000
  C   C657      1.0  0.37021  0.89203  0.29160  1.0000
  C   C658      1.0  0.34872  0.88958  0.27272  1.0000
  C   C659      1.0  0.34576  0.87923  0.24188  1.0000
  C   C660      1.0  0.36412  0.87125  0.23008  1.0000
  H   H1136     1.0  0.40585  0.88724  0.29404  1.0000
  H   H1137     1.0  0.37314  0.90058  0.31505  1.0000
  H   H1138     1.0  0.32926  0.87735  0.22705  1.0000
  H   H1139     1.0  0.36172  0.86324  0.20632  1.0000
  C   C661      1.0  0.02980  0.86555  0.09305  1.0000
  C   C662      1.0  0.02510  0.88600  0.08110  1.0000
  H   H1140     1.0  0.29953  0.82754  0.23687  1.0000
  H   H1141     1.0  0.36143  0.82475  0.45961  1.0000
  H   H1142     1.0  0.43967  0.78976  0.09961  1.0000
  C   C663      1.0  0.27182  0.78648  0.39955  1.0000
  H   H1143     1.0  0.04135  0.90335  0.06867  1.0000
  H   H1144     1.0  0.48272  0.78128  0.13512  1.0000
  H   H1145     1.0  0.10206  0.86323  0.40722  1.0000
  H   H1146     1.0  0.10779  0.81632  0.02025  1.0000
  C   C664      1.0  0.16078  0.83684  0.06433  1.0000
  C   C665      1.0  0.14827  0.83738  0.09270  1.0000
  C   C666      1.0  0.14484  0.81903  0.11725  1.0000
  C   C667      1.0  0.15276  0.79931  0.11308  1.0000
  C   C668      1.0  0.16440  0.79816  0.08427  1.0000
  C   C669      1.0  0.16858  0.81703  0.06004  1.0000
  H   H1147     1.0  0.14212  0.85254  0.09617  1.0000
  H   H1148     1.0  0.13609  0.82013  0.13962  1.0000
  H   H1149     1.0  0.17068  0.78311  0.08089  1.0000
  H   H1150     1.0  0.14381  0.77255  0.44591  1.0000
  H   H1151     1.0  0.10347  0.77449  0.06336  1.0000
  C   C670      1.0  0.31388  0.79160  0.30459  1.0000
  H   H1152     1.0  0.30557  0.77561  0.32333  1.0000
  C   C671      1.0  0.23734  0.97072  0.42486  1.0000
  N   N35       1.0  0.25697  0.88587  0.09924  1.0000
  C   C672      1.0  0.23973  0.85969  0.08119  1.0000
  C   C673      1.0  0.24006  0.89940  0.10535  1.0000
  C   C674      1.0  0.28064  0.90491  0.07800  1.0000
  C   C675      1.0  0.26837  0.88137  0.12973  1.0000
  C   C676      1.0  0.25054  0.85377  0.14752  1.0000
  C   C677      1.0  0.25553  0.84573  0.06814  1.0000
  C   C678      1.0  0.29883  0.93467  0.09018  1.0000
  C   C679      1.0  0.21466  0.88389  0.12704  1.0000
  C   C680      1.0  0.19725  0.89776  0.12674  1.0000
  C   C681      1.0  0.26385  0.85296  0.17879  1.0000
  H   H1153     1.0  0.06734  0.78936  0.07481  1.0000
  C   C682      1.0  0.43114  0.97729  0.41210  1.0000
  H   H1154     1.0  0.22968  0.86351  0.06054  1.0000
  H   H1155     1.0  0.22235  0.84448  0.09580  1.0000
  H   H1156     1.0  0.25255  0.91947  0.11714  1.0000
  H   H1157     1.0  0.23318  0.90379  0.08235  1.0000
  H   H1158     1.0  0.27294  0.90638  0.05412  1.0000
  H   H1159     1.0  0.29456  0.89650  0.07386  1.0000
  H   H1160     1.0  0.28843  0.88250  0.12529  1.0000
  H   H1161     1.0  0.27299  0.89821  0.14668  1.0000
  H   H1162     1.0  0.24817  0.83629  0.13324  1.0000
  H   H1163     1.0  0.22968  0.84996  0.15279  1.0000
  H   H1164     1.0  0.26671  0.85634  0.04613  1.0000
  H   H1165     1.0  0.27087  0.84668  0.08535  1.0000
  H   H1166     1.0  0.30356  0.93503  0.11573  1.0000
  H   H1167     1.0  0.28812  0.94652  0.08657  1.0000
  H   H1168     1.0  0.20139  0.86246  0.11955  1.0000
  H   H1169     1.0  0.22126  0.88419  0.15187  1.0000
  H   H1170     1.0  0.17905  0.88626  0.14232  1.0000
  H   H1171     1.0  0.20927  0.91912  0.13546  1.0000
  H   H1172     1.0  0.18993  0.89798  0.10237  1.0000
  H   H1173     1.0  0.28416  0.85475  0.17439  1.0000
  H   H1174     1.0  0.26640  0.86973  0.19467  1.0000
  H   H1175     1.0  0.25055  0.83311  0.19093  1.0000
  H   H1176     1.0  0.35109  0.98614  0.39290  1.0000
  H   H1177     1.0  0.37744  0.76004  0.34228  1.0000
  H   H1178     1.0  0.45405  0.97161  0.24653  1.0000
  H   H1179     1.0  0.29928  0.94984  0.43373  1.0000
  H   H1180     1.0  0.43293  0.75573  0.43614  1.0000
  H   H1181     1.0  0.45279  0.92103  0.43776  1.0000
  H   H1182     1.0  0.45023  0.99386  0.40118  1.0000
  C   C683      1.0  0.11152  0.82615  0.44133  1.0000
  H   H1183     1.0  0.23779  0.98787  0.00082  1.0000
  C   C684      1.0  0.36873  0.98938  0.43898  1.0000
  N   N36       1.0  0.26881  0.78856  0.28544  1.0000
  C   C685      1.0  0.18959  0.88733  0.47801  1.0000
  C   C686      1.0  0.11083  0.82974  0.40489  1.0000
  H   H1184     1.0  0.39560  0.76589  0.44614  1.0000
  H   H1185     1.0  0.47058  0.76310  0.07812  1.0000
  H   H1186     1.0  0.22140  0.94859  0.42583  1.0000
  C   C687      1.0  0.09383  0.84297  0.39577  1.0000
  H   H1187     1.0  0.24811  0.80639  0.05093  1.0000
  H   H1188     1.0  0.09143  0.82175  0.45118  1.0000
  H   H1189     1.0  0.23096  0.78949  0.27932  1.0000
  H   H1190     1.0  0.19209  0.78757  0.43214  1.0000
  H   H1191     1.0  0.14299  0.80961  0.40962  1.0000
  C   C688      1.0  0.24917  0.95425  0.36555  1.0000
  H   H1192     1.0  0.26311  0.82931  0.24850  1.0000
  C   C689      1.0  0.40163  0.86813  0.36704  1.0000
  H   H1193     1.0  0.47625  0.80787  0.09197  1.0000
  H   H1194     1.0  0.13207  0.84315  0.39593  1.0000
  H   H1195     1.0  0.03416  0.97471  0.21311  1.0000
  H   H1196     1.0  0.31346  0.81924  0.18538  1.0000
  H   H1197     1.0  0.31404  0.78150  0.28219  1.0000
  H   H1198     1.0  0.29257  0.81009  0.32669  1.0000
  C   C690      1.0  0.29865  0.77168  0.09949  1.0000
  N   N37       1.0  0.26548  0.97354  0.42282  1.0000
  H   H1199     1.0  0.40276  0.98817  0.17268  1.0000
  H   H1200     1.0  0.34383  0.98173  0.22299  1.0000
  H   H1201     1.0  0.28804  0.96509  0.01373  1.0000
  H   H1202     1.0  0.45281  0.96346  0.44159  1.0000
  Fe  Fe84      1.0  0.12535  0.91486  0.99374  1.0000
  H   H1203     1.0  0.30289  0.96158  0.25767  1.0000
  H   H1204     1.0  0.23215  0.97464  0.47606  1.0000
  H   H1205     1.0  0.06364  0.77915  0.42119  1.0000
  C   C691      1.0  0.36527  0.98252  0.15306  1.0000
  H   H1206     1.0  0.38103  0.86443  0.36003  1.0000
  C   C692      1.0  0.46212  0.77293  0.12434  1.0000
  C   C693      1.0  0.23611  0.81571  0.06000  1.0000
  H   H1207     1.0  0.04897  0.96954  0.17776  1.0000
  H   H1208     1.0  0.39196  0.92638  0.42406  1.0000
  C   C694      1.0  0.34311  0.75579  0.46249  1.0000
  C   C695      1.0  0.21133  0.88200  0.48127  1.0000
  C   C696      1.0  0.14578  0.81198  0.43573  1.0000
  Fe  Fe85      1.0  0.11830  0.93607  0.48480  1.0000
  H   H1209     1.0  0.29506  0.78282  0.19186  1.0000
  H   H1210     1.0  0.24213  0.84392  0.30823  1.0000
  H   H1211     1.0  0.44573  0.92588  0.47727  1.0000
  H   H1212     1.0  0.01243  0.92140  0.17516  1.0000
  H   H1213     1.0  0.08905  0.78869  0.10485  1.0000
  H   H1214     1.0  0.22377  0.83003  0.27167  1.0000
  C   C697      1.0  0.24733  0.76722  0.10980  1.0000
  C   C698      1.0  0.02571  0.80694  0.47164  1.0000
  H   H1215     1.0  0.07095  0.83561  0.14283  1.0000
  C   C699      1.0  0.07967  0.82479  0.12946  1.0000
  H   H1216     1.0  0.32814  0.96131  0.99126  1.0000
  C   C700      1.0  0.12434  0.80780  0.48709  1.0000
  C   C701      1.0  0.18266  0.79973  0.42393  1.0000
  H   H1217     1.0  0.22132  0.81394  0.04147  1.0000
  H   H1218     1.0  0.09453  0.84593  0.36970  1.0000
  C   C702      1.0  0.29595  0.80534  0.30201  1.0000
  H   H1219     1.0  0.16783  0.80068  0.47017  1.0000
  N   N38       1.0  0.37037  0.95370  0.19800  1.0000
  C   C703      1.0  0.34121  0.94273  0.20927  1.0000
  C   C704      1.0  0.37217  0.93315  0.17655  1.0000
  C   C705      1.0  0.38777  0.95753  0.22691  1.0000
  H   H1220     1.0  0.34960  0.76635  0.26894  1.0000
  S   S171      1.0  0.19031  0.98788  0.06341  1.0000
  C   C706      1.0  0.33634  0.96092  0.23283  1.0000
  C   C707      1.0  0.41804  0.96528  0.22059  1.0000
  C   C708      1.0  0.34695  0.91494  0.15549  1.0000
  C   C709      1.0  0.35336  0.89824  0.13217  1.0000
  C   C710      1.0  0.27201  0.78417  0.25069  1.0000
  C   C711      1.0  0.43236  0.96560  0.25148  1.0000
  H   H1221     1.0  0.33372  0.92250  0.22100  1.0000
  H   H1222     1.0  0.32704  0.93861  0.18917  1.0000
  H   H1223     1.0  0.39057  0.94362  0.16089  1.0000
  H   H1224     1.0  0.37530  0.91825  0.19082  1.0000
  H   H1225     1.0  0.37821  0.93855  0.24159  1.0000
  H   H1226     1.0  0.38880  0.97391  0.24241  1.0000
  H   H1227     1.0  0.33758  0.97138  0.08005  1.0000
  H   H1228     1.0  0.36273  0.77092  0.22909  1.0000
  H   H1229     1.0  0.27881  0.95674  0.33038  1.0000
  C   C712      1.0  0.00843  0.84319  0.10929  1.0000
  H   H1230     1.0  0.34677  0.96260  0.25571  1.0000
  H   H1231     1.0  0.31841  0.77338  0.09520  1.0000
  H   H1232     1.0  0.49437  0.83280  0.17226  1.0000
  H   H1233     1.0  0.41954  0.95052  0.20462  1.0000
  H   H1234     1.0  0.32958  0.90016  0.17055  1.0000
  H   H1235     1.0  0.34003  0.92708  0.14175  1.0000
  H   H1236     1.0  0.37029  0.91188  0.11590  1.0000
  H   H1237     1.0  0.35931  0.88479  0.14511  1.0000
  H   H1238     1.0  0.33494  0.88502  0.11774  1.0000
  C   C713      1.0  0.32595  0.94975  0.07207  1.0000
  H   H1239     1.0  0.32770  0.79530  0.46192  1.0000
  H   H1240     1.0  0.03957  0.79666  0.11153  1.0000
  C   C714      1.0  0.43593  0.95437  0.42397  1.0000
  C   C715      1.0  0.00876  0.93553  0.18970  1.0000
  H   H1241     1.0  0.41529  0.90961  0.37916  1.0000
  H   H1242     1.0  0.22719  0.93983  0.37099  1.0000
  H   H1243     1.0  0.42524  0.98612  0.43205  1.0000
  C   C716      1.0  0.26974  0.96156  0.45294  1.0000
  C   C717      1.0  0.25168  0.80212  0.28980  1.0000
  C   C718      1.0  0.25391  0.76096  0.30185  1.0000
  C   C719      1.0  0.43799  0.91088  0.45744  1.0000
  H   H1244     1.0  0.16135  0.83385  0.43969  1.0000
  H   H1245     1.0  0.31658  0.80835  0.24111  1.0000
  H   H1246     1.0  0.43601  0.89599  0.39502  1.0000
  H   H1247     1.0  0.28370  0.84525  0.28328  1.0000
  H   H1248     1.0  0.35337  0.82755  0.29406  1.0000
  H   H1249     1.0  0.27919  0.92208  0.48239  1.0000
  N   N39       1.0  0.11905  0.80512  0.45186  1.0000
  C   C720      1.0  0.39785  0.88431  0.42164  1.0000
  H   H1250     1.0  0.29421  0.94740  0.21839  1.0000
  C   C721      1.0  0.25402  0.97929  0.09436  1.0000
  C   C722      1.0  0.27724  0.97697  0.01524  1.0000
  C   C723      1.0  0.10319  0.80112  0.00116  1.0000
  C   C724      1.0  0.36119  0.88658  0.47328  1.0000
  H   H1251     1.0  0.39957  0.84904  0.37738  1.0000
  H   H1252     1.0  0.27047  0.97381  0.47386  1.0000
  H   H1253     1.0  0.11756  0.79306  0.00315  1.0000
  N   N40       1.0  0.40954  0.90474  0.44824  1.0000
  H   H1254     1.0  0.24381  0.94059  0.31674  1.0000
  C   C725      1.0  0.34960  0.80329  0.46813  1.0000
  H   H1255     1.0  0.12631  0.84661  0.45118  1.0000
  H   H1256     1.0  0.37743  0.88101  0.41466  1.0000
  H   H1257     1.0  0.38715  0.75613  0.09837  1.0000
  C   C726      1.0  0.41480  0.89169  0.39068  1.0000
  H   H1258     1.0  0.25701  0.96352  0.10491  1.0000
  C   C727      1.0  0.24442  0.84274  0.28226  1.0000
  H   H1259     1.0  0.20243  0.99303  0.42953  1.0000
  H   H1260     1.0  0.25368  0.86378  0.27229  1.0000
  H   H1261     1.0  0.39375  0.86383  0.42970  1.0000
  H   H1262     1.0  0.41462  0.87339  0.34546  1.0000
  C   C728      1.0  0.26285  0.83075  0.27464  1.0000
  H   H1263     1.0  0.41461  0.96944  0.39403  1.0000
  H   H1264     1.0  0.24833  0.80373  0.31558  1.0000
  C   C729      1.0  0.36048  0.78618  0.45241  1.0000
  H   H1265     1.0  0.44304  0.94720  0.40368  1.0000
  H   H1266     1.0  0.19874  0.82171  0.42392  1.0000
  H   H1267     1.0  0.28859  0.96571  0.38727  1.0000
  H   H1268     1.0  0.40646  0.94047  0.46122  1.0000
  H   H1269     1.0  0.07207  0.82967  0.40301  1.0000
  H   H1270     1.0  0.38427  0.99710  0.19901  1.0000
  H   H1271     1.0  0.22761  0.76565  0.11376  1.0000
  C   C730      1.0  0.29731  0.80723  0.23298  1.0000
  H   H1272     1.0  0.25784  0.96451  0.02861  1.0000
  H   H1273     1.0  0.08898  0.83628  0.10718  1.0000
  H   H1274     1.0  0.37932  0.77219  0.39852  1.0000
  H   H1275     1.0  0.23259  0.97880  0.40330  1.0000
  H   H1276     1.0  0.10217  0.80982  0.39251  1.0000
  H   H1277     1.0  0.26009  0.93577  0.40253  1.0000
  C   C731      1.0  0.26691  0.95722  0.39514  1.0000
  C   C732      1.0  0.06718  0.78123  0.09900  1.0000
  H   H1278     1.0  0.01058  0.88584  0.19964  1.0000
  H   H1279     1.0  0.46314  0.81180  0.12916  1.0000
  H   H1280     1.0  0.04814  0.95188  0.21374  1.0000
  C   C733      1.0  0.05705  0.79558  0.12229  1.0000
  C   C734      1.0  0.30578  0.94856  0.24019  1.0000
  H   H1281     1.0  0.27659  0.80131  0.18750  1.0000
  H   H1282     1.0  0.09591  0.82459  0.14413  1.0000
  C   C735      1.0  0.22753  0.97329  0.08531  1.0000
  H   H1283     1.0  0.26577  0.80143  0.40517  1.0000
  C   C736      1.0  0.25709  0.94279  0.33726  1.0000
  H   H1284     1.0  0.18732  0.96055  0.45030  1.0000
  H   H1285     1.0  0.38924  0.87236  0.48328  1.0000
  H   H1286     1.0  0.25198  0.94054  0.45689  1.0000
  H   H1287     1.0  0.35911  0.78838  0.42658  1.0000
  H   H1288     1.0  0.25110  0.97393  0.35804  1.0000
  C   C737      1.0  0.29616  0.94361  0.48395  1.0000
  H   H1289     1.0  0.01187  0.82728  0.11866  1.0000
  H   H1290     1.0  0.48333  0.90297  0.45163  1.0000
  C   C738      1.0  0.20381  0.98238  0.45106  1.0000
  H   H1291     1.0  0.38807  0.99935  0.48485  1.0000
  H   H1292     1.0  0.36701  0.97091  0.13293  1.0000
  C   C739      1.0  0.39113  0.89235  0.47684  1.0000
  C   C740      1.0  0.09751  0.77615  0.44335  1.0000
  C   C741      1.0  0.06717  0.76957  0.44233  1.0000
  H   H1293     1.0  0.43319  0.87002  0.44913  1.0000
  H   H1294     1.0  0.29732  0.92773  0.25056  1.0000
  H   H1295     1.0  0.34989  0.87050  0.45537  1.0000
  H   H1296     1.0  0.36055  0.90518  0.46615  1.0000
  Fe  Fe86      1.0  0.07737  0.87425  0.48449  1.0000
  H   H1297     1.0  0.09865  0.76132  0.45991  1.0000
  C   C742      1.0  0.44094  0.88600  0.46770  1.0000
  C   C743      1.0  0.22340  0.99393  0.07272  1.0000
  H   H1298     1.0  0.10166  0.77059  0.41950  1.0000
  C   C744      1.0  0.36128  0.99941  0.41276  1.0000
  H   H1299     1.0  0.38228  0.79512  0.45936  1.0000
  H   H1300     1.0  0.25388  0.76356  0.32804  1.0000
  H   H1301     1.0  0.08193  0.78392  0.00457  1.0000
  H   H1302     1.0  0.34336  0.97447  0.15891  1.0000
  H   H1303     1.0  0.29058  0.99620  0.02825  1.0000
  H   H1304     1.0  0.41572  0.00267  0.01865  1.0000
  H   H1305     1.0  0.31582  0.94353  0.48540  1.0000
  H   H1306     1.0  0.07596  0.75489  0.14093  1.0000
  H   H1307     1.0  0.38506  0.75301  0.48489  1.0000
  Fe  Fe87      1.0  0.29630  0.92559  0.88043  1.0000
  S   S172      1.0  0.30899  0.93506  0.93150  1.0000
  Fe  Fe88      1.0  0.24577  0.89349  0.84011  1.0000
  S   S173      1.0  0.26969  0.90879  0.79500  1.0000
  S   S174      1.0  0.19995  0.86508  0.84369  1.0000
  Fe  Fe89      1.0  0.30078  0.90044  0.81827  1.0000
  S   S175      1.0  0.31442  0.87708  0.78617  1.0000
  Fe  Fe90      1.0  0.29140  0.94960  0.81894  1.0000
  S   S176      1.0  0.27513  0.88236  0.86217  1.0000
  S   S177      1.0  0.26475  0.93523  0.86212  1.0000
  Fe  Fe91      1.0  0.09486  0.90463  0.54659  1.0000
  S   S178      1.0  0.08172  0.90269  0.59788  1.0000
  Fe  Fe92      1.0  0.43108  0.84067  0.76028  1.0000
  S   S179      1.0  0.40851  0.82032  0.71565  1.0000
  S   S180      1.0  0.42362  0.86941  0.79131  1.0000
  Fe  Fe93      1.0  0.46328  0.80968  0.75914  1.0000
  S   S181      1.0  0.44194  0.78632  0.71551  1.0000
  H   H1308     1.0  0.00819  0.83943  0.50721  1.0000
  Fe  Fe94      1.0  0.44922  0.82693  0.69753  1.0000
  S   S182      1.0  0.46406  0.83787  0.64663  1.0000
  Fe  Fe95      1.0  0.40369  0.78191  0.73793  1.0000
  N   N41       1.0  0.40121  0.97296  0.91096  1.0000
  S   S183      1.0  0.47238  0.85072  0.74032  1.0000
  S   S184      1.0  0.42436  0.80177  0.78335  1.0000
  S   S185      1.0  0.14454  0.77977  0.73263  1.0000
  H   H1309     1.0  0.29638  0.77757  0.76821  1.0000
  H   H1310     1.0  0.32902  0.98508  0.89445  1.0000
  H   H1311     1.0  0.46160  0.77095  0.53291  1.0000
  H   H1312     1.0  0.33204  0.80802  0.72982  1.0000
  C   C745      1.0  0.35186  0.89338  0.91358  1.0000
  H   H1313     1.0  0.03053  0.76815  0.53047  1.0000
  H   H1314     1.0  0.46167  0.81471  0.53814  1.0000
  H   H1315     1.0  0.43045  0.94704  0.93412  1.0000
  H   H1316     1.0  0.06906  0.92895  0.88345  1.0000
  C   C746      1.0  0.04679  0.88996  0.60754  1.0000
  C   C747      1.0  0.03819  0.88306  0.63914  1.0000
  S   S186      1.0  0.13821  0.93331  0.52977  1.0000
  H   H1317     1.0  0.05991  0.88547  0.77499  1.0000
  C   C748      1.0  0.40647  0.98507  0.97148  1.0000
  H   H1318     1.0  0.18240  0.84483  0.66313  1.0000
  H   H1319     1.0  0.05296  0.88574  0.65717  1.0000
  S   S187      1.0  0.09481  0.86720  0.52884  1.0000
  H   H1320     1.0  0.09584  0.75853  0.65337  1.0000
  H   H1321     1.0  0.20899  0.95234  0.76073  1.0000
  H   H1322     1.0  0.22401  0.91456  0.92052  1.0000
  C   C749      1.0  0.19177  0.94713  0.89433  1.0000
  H   H1323     1.0  0.12835  0.94591  0.87986  1.0000
  H   H1324     1.0  0.13734  0.85568  0.97857  1.0000
  C   C750      1.0  0.34531  0.87598  0.78793  1.0000
  C   C751      1.0  0.36362  0.88706  0.81322  1.0000
  C   C752      1.0  0.38760  0.88501  0.81391  1.0000
  C   C753      1.0  0.39345  0.87188  0.78937  1.0000
  C   C754      1.0  0.37520  0.86099  0.76402  1.0000
  C   C755      1.0  0.35116  0.86286  0.76345  1.0000
  H   H1325     1.0  0.35928  0.89714  0.83216  1.0000
  H   H1326     1.0  0.40169  0.89361  0.83354  1.0000
  H   H1327     1.0  0.37965  0.85117  0.74480  1.0000
  H   H1328     1.0  0.33719  0.85439  0.74371  1.0000
  C   C756      1.0  0.18459  0.84116  0.81299  1.0000
  C   C757      1.0  0.15652  0.82168  0.81454  1.0000
  C   C758      1.0  0.14402  0.80229  0.79033  1.0000
  C   C759      1.0  0.15946  0.80279  0.76413  1.0000
  C   C760      1.0  0.18740  0.82235  0.76252  1.0000
  C   C761      1.0  0.20001  0.84134  0.78696  1.0000
  H   H1329     1.0  0.14436  0.82145  0.83447  1.0000
  H   H1330     1.0  0.12242  0.78721  0.79174  1.0000
  H   H1331     1.0  0.19942  0.82266  0.74242  1.0000
  H   H1332     1.0  0.22167  0.85601  0.78565  1.0000
  H   H1333     1.0  0.13232  0.99911  0.50908  1.0000
  S   S188      1.0  0.32469  0.94283  0.83856  1.0000
  H   H1334     1.0  0.19159  0.86519  0.96463  1.0000
  H   H1335     1.0  0.14859  0.95112  0.68391  1.0000
  C   C762      1.0  0.14878  0.98958  0.88771  1.0000
  C   C763      1.0  0.31390  0.77434  0.76387  1.0000
  C   C764      1.0  0.19480  0.87492  0.94099  1.0000
  H   H1336     1.0  0.47977  0.91031  0.49255  1.0000
  H   H1337     1.0  0.14404  0.97104  0.97713  1.0000
  H   H1338     1.0  0.30944  0.77497  0.71284  1.0000
  H   H1339     1.0  0.13038  0.79287  0.49548  1.0000
  C   C765      1.0  0.12032  0.85467  0.91758  1.0000
  H   H1340     1.0  0.47915  0.96222  0.92515  1.0000
  H   H1341     1.0  0.21924  0.79271  0.72440  1.0000
  C   C766      1.0  0.27136  0.98348  0.98196  1.0000
  H   H1342     1.0  0.18444  0.96531  0.72555  1.0000
  H   H1343     1.0  0.05120  0.77326  0.76993  1.0000
  H   H1344     1.0  0.49637  0.83323  0.52290  1.0000
  H   H1345     1.0  0.35955  0.92393  0.87893  1.0000
  H   H1346     1.0  0.21732  0.87903  0.50465  1.0000
  C   C767      1.0  0.23555  0.77055  0.75187  1.0000
  H   H1347     1.0  0.35357  0.76741  0.83884  1.0000
  H   H1348     1.0  0.43801  0.76042  0.81679  1.0000
  C   C768      1.0  0.02268  0.77315  0.50963  1.0000
  C   C769      1.0  0.03737  0.81630  0.63308  1.0000
  C   C770      1.0  0.05236  0.91067  0.89559  1.0000
  H   H1349     1.0  0.22709  0.80337  0.76502  1.0000
  H   H1350     1.0  0.27670  0.78304  0.82118  1.0000
  C   C771      1.0  0.13467  0.95513  0.92970  1.0000
  H   H1351     1.0  0.21153  0.94583  0.81884  1.0000
  H   H1352     1.0  0.04258  0.91741  0.91357  1.0000
  H   H1353     1.0  0.20051  0.86385  0.92365  1.0000
  C   C772      1.0  0.18337  0.85242  0.68760  1.0000
  H   H1354     1.0  0.21043  0.97545  0.69551  1.0000
  C   C773      1.0  0.18869  0.77131  0.83473  1.0000
  H   H1355     1.0  0.27586  0.93680  0.69264  1.0000
  H   H1356     1.0  0.36247  0.88874  0.93273  1.0000
  H   H1357     1.0  0.36243  0.94437  0.93213  1.0000
  C   C774      1.0  0.14515  0.97601  0.95222  1.0000
  H   H1358     1.0  0.29155  0.99678  0.97054  1.0000
  C   C775      1.0  0.47685  0.81331  0.52260  1.0000
  C   C776      1.0  0.19455  0.93030  0.75569  1.0000
  H   H1359     1.0  0.17884  0.89183  0.78263  1.0000
  C   C777      1.0  0.30287  0.75397  0.82801  1.0000
  C   C778      1.0  0.18881  0.96045  0.70156  1.0000
  N   N42       1.0  0.08494  0.82631  0.65475  1.0000
  C   C779      1.0  0.10126  0.83589  0.68511  1.0000
  C   C780      1.0  0.09744  0.84843  0.62950  1.0000
  C   C781      1.0  0.05636  0.82114  0.66202  1.0000
  C   C782      1.0  0.08225  0.79980  0.64317  1.0000
  C   C783      1.0  0.10933  0.79995  0.63635  1.0000
  C   C784      1.0  0.09260  0.81420  0.71185  1.0000
  H   H1360     1.0  0.34476  0.78290  0.86972  1.0000
  C   C785      1.0  0.12922  0.86656  0.62875  1.0000
  C   C786      1.0  0.13944  0.88341  0.59829  1.0000
  H   H1361     1.0  0.34326  0.78326  0.72553  1.0000
  C   C787      1.0  0.10716  0.82706  0.74295  1.0000
  C   C788      1.0  0.01390  0.88400  0.80194  1.0000
  H   H1362     1.0  0.10059  0.85402  0.69444  1.0000
  H   H1363     1.0  0.12327  0.84310  0.68117  1.0000
  H   H1364     1.0  0.09029  0.83943  0.60553  1.0000
  H   H1365     1.0  0.09012  0.86336  0.63256  1.0000
  H   H1366     1.0  0.05750  0.83876  0.67529  1.0000
  H   H1367     1.0  0.04509  0.80300  0.67778  1.0000
  H   H1368     1.0  0.06990  0.78287  0.66023  1.0000
  H   H1369     1.0  0.07043  0.79331  0.62072  1.0000
  H   H1370     1.0  0.12418  0.80897  0.65604  1.0000
  H   H1371     1.0  0.11878  0.81165  0.61427  1.0000
  H   H1372     1.0  0.07028  0.80353  0.71638  1.0000
  H   H1373     1.0  0.09835  0.79872  0.70519  1.0000
  C   C789      1.0  0.46763  0.96702  0.90731  1.0000
  C   C790      1.0  0.37120  0.92111  0.89832  1.0000
  H   H1374     1.0  0.13591  0.88121  0.64879  1.0000
  H   H1375     1.0  0.13967  0.85445  0.63085  1.0000
  H   H1376     1.0  0.16206  0.89690  0.59920  1.0000
  H   H1377     1.0  0.13453  0.86981  0.57749  1.0000
  H   H1378     1.0  0.13005  0.89650  0.59517  1.0000
  C   C791      1.0  0.03182  0.77277  0.77166  1.0000
  H   H1379     1.0  0.23214  0.93812  0.68777  1.0000
  H   H1380     1.0  0.25026  0.77581  0.77174  1.0000
  H   H1381     1.0  0.10269  0.84324  0.75061  1.0000
  H   H1382     1.0  0.09980  0.81107  0.76170  1.0000
  H   H1383     1.0  0.12964  0.83580  0.74045  1.0000
  H   H1384     1.0  0.46898  0.80937  0.49795  1.0000
  H   H1385     1.0  0.17725  0.93163  0.91138  1.0000
  H   H1386     1.0  0.05091  0.81634  0.51304  1.0000
  H   H1387     1.0  0.25225  0.94225  0.75617  1.0000
  H   H1388     1.0  0.25973  0.99035  0.89107  1.0000
  H   H1389     1.0  0.17789  0.88477  0.66928  1.0000
  C   C792      1.0  0.18847  0.89280  0.71977  1.0000
  H   H1390     1.0  0.11727  0.86792  0.93472  1.0000
  H   H1391     1.0  0.33350  0.89326  0.92353  1.0000
  H   H1392     1.0  0.17450  0.92582  0.81659  1.0000
  C   C793      1.0  0.15345  0.80935  0.92215  1.0000
  H   H1393     1.0  0.23779  0.90281  0.95131  1.0000
  H   H1394     1.0  0.36679  0.97375  0.88943  1.0000
  C   C794      1.0  0.09956  0.86785  0.87196  1.0000
  H   H1395     1.0  0.08286  0.84641  0.86838  1.0000
  H   H1396     1.0  0.09250  0.87814  0.88883  1.0000
  H   H1397     1.0  0.10412  0.87881  0.84889  1.0000
  C   C795      1.0  0.13519  0.83877  0.96314  1.0000
  H   H1398     1.0  0.19832  0.88555  0.73704  1.0000
  C   C796      1.0  0.27809  0.99770  0.78532  1.0000
  C   C797      1.0  0.14348  0.82824  0.90769  1.0000
  C   C798      1.0  0.27736  0.94653  0.71594  1.0000
  H   H1399     1.0  0.11598  0.79464  0.55187  1.0000
  H   H1400     1.0  0.04551  0.83498  0.61808  1.0000
  C   C799      1.0  0.21941  0.90385  0.94376  1.0000
  C   C800      1.0  0.13635  0.96196  0.89740  1.0000
  H   H1401     1.0  0.17654  0.80902  0.88085  1.0000
  S   S189      1.0  0.07497  0.91031  0.50315  1.0000
  H   H1402     1.0  0.21527  0.91570  0.96170  1.0000
  C   C801      1.0  0.24925  0.93352  0.73203  1.0000
  H   H1403     1.0  0.38879  0.92004  0.88805  1.0000
  C   C802      1.0  0.22929  0.93979  0.71358  1.0000
  C   C803      1.0  0.34538  0.87636  0.50444  1.0000
  S   S190      1.0  0.12038  0.92059  0.94151  1.0000
  N   N43       1.0  0.32684  0.78262  0.82403  1.0000
  C   C804      1.0  0.33629  0.78753  0.78982  1.0000
  C   C805      1.0  0.35005  0.78471  0.84410  1.0000
  C   C806      1.0  0.32051  0.80423  0.83535  1.0000
  C   C807      1.0  0.29497  0.80378  0.82114  1.0000
  C   C808      1.0  0.37803  0.81156  0.84047  1.0000
  C   C809      1.0  0.38101  0.94457  0.92283  1.0000
  C   C810      1.0  0.25963  0.99660  0.80841  1.0000
  C   C811      1.0  0.28731  0.82205  0.84012  1.0000
  C   C812      1.0  0.40010  0.81067  0.86068  1.0000
  H   H1404     1.0  0.34858  0.80981  0.78491  1.0000
  H   H1405     1.0  0.34450  0.85709  0.51218  1.0000
  C   C813      1.0  0.22342  0.97475  0.93934  1.0000
  C   C814      1.0  0.38811  0.97908  0.88320  1.0000
  H   H1406     1.0  0.31865  0.80360  0.86164  1.0000
  H   H1407     1.0  0.33796  0.82505  0.82998  1.0000
  C   C815      1.0  0.49635  0.78699  0.63889  1.0000
  H   H1408     1.0  0.29961  0.81192  0.79656  1.0000
  H   H1409     1.0  0.37659  0.82959  0.84811  1.0000
  H   H1410     1.0  0.38524  0.81482  0.81559  1.0000
  C   C816      1.0  0.02754  0.88671  0.58451  1.0000
  C   C817      1.0  0.10407  0.77089  0.63135  1.0000
  H   H1411     1.0  0.00989  0.83783  0.54959  1.0000
  H   H1412     1.0  0.27946  0.81310  0.86393  1.0000
  H   H1413     1.0  0.30537  0.84286  0.84299  1.0000
  H   H1414     1.0  0.27109  0.82407  0.82749  1.0000
  H   H1415     1.0  0.39467  0.80893  0.88621  1.0000
  H   H1416     1.0  0.40272  0.79313  0.85379  1.0000
  H   H1417     1.0  0.41999  0.82985  0.85695  1.0000
  C   C818      1.0  0.48165  0.79021  0.53371  1.0000
  H   H1418     1.0  0.15680  0.83902  0.88704  1.0000
  C   C819      1.0  0.19379  0.92498  0.81542  1.0000
  H   H1419     1.0  0.06173  0.89999  0.90809  1.0000
  H   H1420     1.0  0.12295  0.81423  0.89733  1.0000
  C   C820      1.0  0.32680  0.96992  0.94187  1.0000
  C   C821      1.0  0.42747  0.97490  0.89929  1.0000
  H   H1421     1.0  0.44210  0.99611  0.89128  1.0000
  C   C822      1.0  0.18334  0.93059  0.69971  1.0000
  H   H1422     1.0  0.19361  0.91186  0.83514  1.0000
  N   N44       1.0  0.14226  0.84883  0.92942  1.0000
  H   H1423     1.0  0.40033  0.90590  0.49780  1.0000
  N   N45       1.0  0.19936  0.92322  0.72258  1.0000
  H   H1424     1.0  0.28586  0.96881  0.71238  1.0000
  H   H1425     1.0  0.17225  0.82071  0.93644  1.0000
  H   H1426     1.0  0.18774  0.92768  0.67478  1.0000
  H   H1427     1.0  0.23700  0.96192  0.71725  1.0000
  C   C823      1.0  0.15944  0.79421  0.89620  1.0000
  H   H1428     1.0  0.16630  0.88145  0.72624  1.0000
  H   H1429     1.0  0.17453  0.88406  0.90472  1.0000
  H   H1430     1.0  0.03986  0.88894  0.74371  1.0000
  H   H1431     1.0  0.42355  0.96205  0.87784  1.0000
  H   H1432     1.0  0.28693  0.76053  0.87302  1.0000
  H   H1433     1.0  0.38628  0.96609  0.86252  1.0000
  H   H1434     1.0  0.45215  0.98320  0.94220  1.0000
  C   C824      1.0  0.20589  0.76275  0.81500  1.0000
  H   H1435     1.0  0.17982  0.94802  0.87390  1.0000
  H   H1436     1.0  0.27720  0.82476  0.75301  1.0000
  H   H1437     1.0  0.17361  0.92772  0.75763  1.0000
  H   H1438     1.0  0.10011  0.79841  0.95022  1.0000
  H   H1439     1.0  0.35519  0.89208  0.52319  1.0000
  H   H1440     1.0  0.17500  0.98644  0.68013  1.0000
  C   C825      1.0  0.16911  0.87562  0.92919  1.0000
  H   H1441     1.0  0.10021  0.83538  0.91618  1.0000
  H   H1442     1.0  0.16087  0.91665  0.70331  1.0000
  C   C826      1.0  0.49376  0.79574  0.56767  1.0000
  C   C827      1.0  0.44350  0.96750  0.92335  1.0000
  H   H1443     1.0  0.03498  0.92307  0.77542  1.0000
  H   H1444     1.0  0.13741  0.79373  0.93787  1.0000
  H   H1445     1.0  0.29186  0.94360  0.73106  1.0000
  H   H1446     1.0  0.13188  0.85829  0.86687  1.0000
  H   H1447     1.0  0.19883  0.77941  0.85789  1.0000
  H   H1448     1.0  0.14153  0.89038  0.88593  1.0000
  H   H1449     1.0  0.16308  0.83966  0.69909  1.0000
  C   C828      1.0  0.19140  0.88260  0.68667  1.0000
  H   H1450     1.0  0.18670  0.78765  0.82238  1.0000
  H   H1451     1.0  0.19905  0.84997  0.70079  1.0000
  C   C829      1.0  0.12539  0.86852  0.88445  1.0000
  C   C830      1.0  0.19615  0.91326  0.78375  1.0000
  C   C831      1.0  0.05393  0.89958  0.76381  1.0000
  C   C832      1.0  0.20675  0.97506  0.91021  1.0000
  H   H1452     1.0  0.34488  0.87706  0.89541  1.0000
  H   H1453     1.0  0.32405  0.87221  0.50107  1.0000
  H   H1454     1.0  0.24183  0.91134  0.73381  1.0000
  H   H1455     1.0  0.21553  0.91273  0.78373  1.0000
  H   H1456     1.0  0.20825  0.96201  0.95796  1.0000
  H   H1457     1.0  0.21281  0.89416  0.67784  1.0000
  H   H1458     1.0  0.47936  0.76610  0.64458  1.0000
  S   S191      1.0  0.17152  0.88772  0.51214  1.0000
  H   H1459     1.0  0.15021  0.99475  0.86282  1.0000
  C   C833      1.0  0.32544  0.78592  0.73106  1.0000
  H   H1460     1.0  0.47809  0.79653  0.58295  1.0000
  C   C834      1.0  0.17063  0.96498  0.67830  1.0000
  S   S192      1.0  0.30369  0.98947  0.79391  1.0000
  C   C835      1.0  0.40683  0.99392  0.93650  1.0000
  H   H1461     1.0  0.22650  0.78098  0.81194  1.0000
  H   H1462     1.0  0.42968  0.87687  0.49010  1.0000
  H   H1463     1.0  0.16696  0.89105  0.94352  1.0000
  S   S193      1.0  0.49690  0.80586  0.78394  1.0000
  Fe  Fe96      1.0  0.13614  0.89610  0.50789  1.0000
  H   H1464     1.0  0.18505  0.76431  0.77199  1.0000
  H   H1465     1.0  0.35051  0.77951  0.78518  1.0000
  C   C836      1.0  0.03029  0.79637  0.76478  1.0000
  C   C837      1.0  0.10892  0.80873  0.54328  1.0000
  C   C838      1.0  0.25486  0.99871  0.98335  1.0000
  H   H1466     1.0  0.20658  0.94103  0.88567  1.0000
  C   C839      1.0  0.03455  0.80045  0.49956  1.0000
  H   H1467     1.0  0.35160  0.80313  0.49429  1.0000
  H   H1468     1.0  0.03521  0.79928  0.61806  1.0000
  H   H1469     1.0  0.24568  0.76697  0.73125  1.0000
  H   H1470     1.0  0.48190  0.98725  0.89650  1.0000
  H   H1471     1.0  0.05517  0.92020  0.80687  1.0000
  N   N46       1.0  0.50167  0.77556  0.58050  1.0000
  H   H1472     1.0  0.29377  0.95301  0.50591  1.0000
  H   H1473     1.0  0.04853  0.81505  0.75780  1.0000
  H   H1474     1.0  0.03286  0.92625  0.84761  1.0000
  C   C840      1.0  0.10582  0.81430  0.96865  1.0000
  H   H1475     1.0  0.49290  0.85024  0.58743  1.0000
  H   H1476     1.0  0.49929  0.80095  0.68733  1.0000
  H   H1477     1.0  0.19098  0.98002  0.91791  1.0000
  H   H1478     1.0  0.09126  0.80566  0.55806  1.0000
  H   H1479     1.0  0.26034  0.83891  0.73000  1.0000
  H   H1480     1.0  0.14992  0.83308  0.97295  1.0000
  H   H1481     1.0  0.04216  0.88515  0.85483  1.0000
  H   H1482     1.0  0.12577  0.83021  0.54603  1.0000
  H   H1483     1.0  0.07267  0.91765  0.75432  1.0000
  C   C841      1.0  0.01049  0.87256  0.64758  1.0000
  H   H1484     1.0  0.46021  0.95105  0.88866  1.0000
  C   C842      1.0  0.33406  0.97717  0.97355  1.0000
  H   H1485     1.0  0.03401  0.89234  0.56019  1.0000
  H   H1486     1.0  0.26043  0.96384  0.96912  1.0000
  H   H1487     1.0  0.23378  0.96321  0.93268  1.0000
  H   H1488     1.0  0.09202  0.81651  0.50195  1.0000
  C   C843      1.0  0.03117  0.89133  0.87166  1.0000
  H   H1489     1.0  0.26901  0.81530  0.71187  1.0000
  C   C844      1.0  0.04004  0.90886  0.78798  1.0000
  C   C845      1.0  0.23381  0.79651  0.74399  1.0000
  H   H1490     1.0  0.16554  0.78010  0.90710  1.0000
  H   H1491     1.0  0.17476  0.96137  0.65357  1.0000
  H   H1492     1.0  0.47704  0.76442  0.73445  1.0000
  H   H1493     1.0  0.38918  0.93864  0.94337  1.0000
  C   C846      1.0  0.26183  0.82022  0.73409  1.0000
  C   C847      1.0  0.49546  0.76612  0.74445  1.0000
  H   H1494     1.0  0.41862  0.97481  0.97508  1.0000
  H   H1495     1.0  0.09071  0.82152  0.96786  1.0000
  H   H1496     1.0  0.14098  0.78203  0.88135  1.0000
  H   H1497     1.0  0.28378  0.99287  0.92002  1.0000
  H   H1498     1.0  0.02025  0.86945  0.81071  1.0000
  H   H1499     1.0  0.26046  0.98979  0.83212  1.0000
  H   H1500     1.0  0.00962  0.82402  0.66186  1.0000
  C   C848      1.0  0.01683  0.90522  0.85482  1.0000
  H   H1501     1.0  0.01581  0.87313  0.88509  1.0000
  C   C849      1.0  0.00861  0.80921  0.64394  1.0000
  H   H1502     1.0  0.48740  0.79982  0.63217  1.0000
  H   H1503     1.0  0.38500  0.97056  0.97892  1.0000
  H   H1504     1.0  0.38477  0.99833  0.82351  1.0000
  H   H1505     1.0  0.08348  0.78123  0.50737  1.0000
  H   H1506     1.0  0.21984  0.99061  0.89234  1.0000
  C   C850      1.0  0.49963  0.85497  0.63779  1.0000
  C   C851      1.0  0.10008  0.80291  0.50864  1.0000
  H   H1507     1.0  0.16789  0.75353  0.83915  1.0000
  H   H1508     1.0  0.39097  0.00026  0.93593  1.0000
  H   H1509     1.0  0.08919  0.76062  0.61182  1.0000
  H   H1510     1.0  0.14196  0.82854  0.49248  1.0000
  H   H1511     1.0  0.49567  0.78870  0.51652  1.0000
  H   H1512     1.0  0.12358  0.77154  0.62518  1.0000
  C   C852      1.0  0.33468  0.99049  0.91895  1.0000
  N   N47       1.0  0.24354  0.00249  0.95246  1.0000
  H   H1513     1.0  0.34239  0.75531  0.48892  1.0000
  H   H1514     1.0  0.00728  0.92901  0.80611  1.0000
  Fe  Fe97      1.0  0.88585  0.16439  0.05591  1.0000
  S   S194      1.0  0.90338  0.15277  0.09701  1.0000
  S   S195      1.0  0.87434  0.19750  0.05279  1.0000
  H   H1515     1.0  0.79869  0.01143  0.36968  1.0000
  S   S196      1.0  0.90500  0.10702  0.04887  1.0000
  C   C853      1.0  0.74752  0.24793  0.33694  1.0000
  Fe  Fe98      1.0  0.87440  0.10949  0.08097  1.0000
  S   S197      1.0  0.84795  0.07522  0.11455  1.0000
  Fe  Fe99      1.0  0.93264  0.15146  0.06155  1.0000
  S   S198      1.0  0.97949  0.17268  0.06352  1.0000
  S   S199      1.0  0.85468  0.12134  0.04294  1.0000
  S   S200      1.0  0.91691  0.16614  0.02127  1.0000
  H   H1516     1.0  0.75804  0.14572  0.02535  1.0000
  H   H1517     1.0  0.79191  0.15434  0.10210  1.0000
  Fe  Fe100     1.0  0.59599  0.21399  0.15670  1.0000
  S   S201      1.0  0.60008  0.23439  0.20356  1.0000
  S   S202      1.0  0.55993  0.20229  0.12360  1.0000
  Fe  Fe101     1.0  0.65603  0.22768  0.15815  1.0000
  H   H1518     1.0  0.79720  0.18739  0.17735  1.0000
  S   S203      1.0  0.68931  0.22478  0.13171  1.0000
  Fe  Fe102     1.0  0.62352  0.21353  0.21881  1.0000
  S   S204      1.0  0.61712  0.19441  0.26750  1.0000
  C   C854      1.0  0.86502  0.23436  0.08409  1.0000
  S   S205      1.0  0.61648  0.19057  0.17312  1.0000
  H   H1519     1.0  0.59804  0.05802  0.06446  1.0000
  Fe  Fe103     1.0  0.72156  0.19048  0.43100  1.0000
  S   S206      1.0  0.75008  0.19572  0.39111  1.0000
  S   S207      1.0  0.71472  0.22370  0.45158  1.0000
  Fe  Fe104     1.0  0.69431  0.12784  0.43043  1.0000
  S   S208      1.0  0.72005  0.12831  0.38942  1.0000
  C   C855      1.0  0.56927  0.11014  0.17570  1.0000
  Fe  Fe105     1.0  0.75499  0.16295  0.41552  1.0000
  S   S209      1.0  0.79594  0.16468  0.41184  1.0000
  Fe  Fe106     1.0  0.71314  0.16113  0.36820  1.0000
  S   S210      1.0  0.70727  0.16649  0.31600  1.0000
  S   S211      1.0  0.72968  0.16069  0.45796  1.0000
  S   S212      1.0  0.68430  0.15754  0.40662  1.0000
  H   H1520     1.0  0.67681  0.07005  0.05735  1.0000
  C   C856      1.0  0.51733  0.12387  0.03741  1.0000
  H   H1521     1.0  0.80752  0.05179  0.46111  1.0000
  H   H1522     1.0  0.61325  0.16627  0.10613  1.0000
  H   H1523     1.0  0.54370  0.24837  0.16702  1.0000
  S   S213      1.0  0.89922  0.08023  0.43023  1.0000
  H   H1524     1.0  0.81602  0.15320  0.07579  1.0000
  H   H1525     1.0  0.00403  0.14473  0.38017  1.0000
  S   S214      1.0  0.92201  0.15318  0.45839  1.0000
  H   H1526     1.0  0.54496  0.09904  0.05933  1.0000
  C   C857      1.0  0.78111  0.11322  0.03748  1.0000
  S   S215      1.0  0.00466  0.20541  0.47046  1.0000
  H   H1527     1.0  0.73940  0.23089  0.17364  1.0000
  H   H1528     1.0  0.82157  0.01359  0.42450  1.0000
  C   C858      1.0  0.67626  0.05352  0.44478  1.0000
  C   C859      1.0  0.67496  0.02813  0.44932  1.0000
  H   H1529     1.0  0.54849  0.15521  0.06610  1.0000
  H   H1530     1.0  0.86305  0.24116  0.06073  1.0000
  C   C860      1.0  0.81558  0.16256  0.44309  1.0000
  C   C861      1.0  0.53764  0.13256  0.06486  1.0000
  H   H1531     1.0  0.61155  0.19793  0.48449  1.0000
  C   C862      1.0  0.78919  0.18694  0.20150  1.0000
  C   C863      1.0  0.85264  0.15467  0.45945  1.0000
  C   C864      1.0  0.83594  0.15604  0.43569  1.0000
  H   H1532     1.0  0.81263  0.16832  0.02097  1.0000
  C   C865      1.0  0.60790  0.08051  0.06786  1.0000
  H   H1533     1.0  0.86831  0.14976  0.45329  1.0000
  H   H1534     1.0  0.83893  0.15216  0.41133  1.0000
  C   C866      1.0  0.64154  0.18572  0.28072  1.0000
  C   C867      1.0  0.64124  0.17803  0.31248  1.0000
  C   C868      1.0  0.66123  0.17205  0.32379  1.0000
  C   C869      1.0  0.68152  0.17358  0.30330  1.0000
  C   C870      1.0  0.68158  0.18106  0.27160  1.0000
  C   C871      1.0  0.66178  0.18718  0.26026  1.0000
  H   H1535     1.0  0.62558  0.17678  0.32837  1.0000
  H   H1536     1.0  0.66081  0.16613  0.34822  1.0000
  H   H1537     1.0  0.69709  0.18210  0.25584  1.0000
  H   H1538     1.0  0.66219  0.19307  0.23577  1.0000
  H   H1539     1.0  0.96939  0.22731  0.45176  1.0000
  H   H1540     1.0  0.79207  0.19983  0.09902  1.0000
  C   C872      1.0  0.88661  0.04474  0.43521  1.0000
  C   C873      1.0  0.87523  0.02734  0.40902  1.0000
  H   H1541     1.0  0.52553  0.12409  0.08689  1.0000
  H   H1542     1.0  0.72914  0.23224  0.38316  1.0000
  H   H1543     1.0  0.81858  0.24696  0.26088  1.0000
  H   H1544     1.0  0.87448  0.03590  0.38631  1.0000
  Fe  Fe107     1.0  0.91710  0.11175  0.46968  1.0000
  H   H1545     1.0  0.79096  0.24547  0.13677  1.0000
  H   H1546     1.0  0.86775  0.02915  0.04785  1.0000
  H   H1547     1.0  0.78464  0.10984  0.46930  1.0000
  C   C874      1.0  0.52743  0.17210  0.12304  1.0000
  H   H1548     1.0  0.57328  0.07707  0.09321  1.0000
  H   H1549     1.0  0.81729  0.21240  0.00357  1.0000
  H   H1550     1.0  0.69056  0.06816  0.42787  1.0000
  H   H1551     1.0  0.53492  0.15209  0.16208  1.0000
  H   H1552     1.0  0.62066  0.09084  0.04663  1.0000
  H   H1553     1.0  0.96733  0.15761  0.13075  1.0000
  C   C875      1.0  0.75507  0.03966  0.10767  1.0000
  C   C876      1.0  0.76796  0.04309  0.13695  1.0000
  C   C877      1.0  0.79623  0.05298  0.13855  1.0000
  C   C878      1.0  0.81217  0.06081  0.11098  1.0000
  C   C879      1.0  0.79936  0.05722  0.08147  1.0000
  C   C880      1.0  0.59576  0.16050  0.08971  1.0000
  H   H1554     1.0  0.75609  0.03851  0.15858  1.0000
  H   H1555     1.0  0.80597  0.05566  0.16139  1.0000
  H   H1556     1.0  0.57074  0.23766  0.30584  1.0000
  C   C881      1.0  0.87067  0.21289  0.08722  1.0000
  C   C882      1.0  0.87310  0.20416  0.11746  1.0000
  C   C883      1.0  0.86953  0.21663  0.14442  1.0000
  H   H1557     1.0  0.51362  0.18629  0.08344  1.0000
  H   H1558     1.0  0.65124  0.22376  0.41773  1.0000
  H   H1559     1.0  0.89627  0.04672  0.48476  1.0000
  H   H1560     1.0  0.87771  0.18782  0.12012  1.0000
  H   H1561     1.0  0.87130  0.20972  0.16779  1.0000
  H   H1562     1.0  0.80893  0.23579  0.08972  1.0000
  H   H1563     1.0  0.60938  0.17772  0.42520  1.0000
  H   H1564     1.0  0.80704  0.22619  0.14783  1.0000
  H   H1565     1.0  0.72236  0.08017  0.03999  1.0000
  H   H1566     1.0  0.99821  0.15469  0.34168  1.0000
  H   H1567     1.0  0.80932  0.00816  0.46490  1.0000
  C   C884      1.0  0.73195  0.18153  0.19702  1.0000
  H   H1568     1.0  0.94469  0.25088  0.01734  1.0000
  H   H1569     1.0  0.55465  0.12792  0.12577  1.0000
  C   C885      1.0  0.61999  0.12834  0.46350  1.0000
  H   H1570     1.0  0.82295  0.02645  0.05701  1.0000
  H   H1571     1.0  0.62314  0.17272  0.04799  1.0000
  H   H1572     1.0  0.70069  0.19422  0.19679  1.0000
  S   S216      1.0  0.72073  0.03207  0.10722  1.0000
  C   C886      1.0  0.87746  0.00517  0.46734  1.0000
  H   H1573     1.0  0.95960  0.22835  0.10189  1.0000
  C   C887      1.0  0.75164  0.08233  0.43874  1.0000
  C   C888      1.0  0.76640  0.08869  0.40679  1.0000
  H   H1574     1.0  0.77216  0.21583  0.08789  1.0000
  C   C889      1.0  0.86426  0.23835  0.14126  1.0000
  C   C890      1.0  0.80062  0.17621  0.03338  1.0000
  C   C891      1.0  0.72105  0.09585  0.05454  1.0000
  C   C892      1.0  0.85584  0.01974  0.06987  1.0000
  H   H1575     1.0  0.59246  0.25006  0.08560  1.0000
  H   H1576     1.0  0.80376  0.12244  0.03581  1.0000
  H   H1577     1.0  0.56039  0.17251  0.48357  1.0000
  H   H1578     1.0  0.77718  0.21022  0.23106  1.0000
  H   H1579     1.0  0.80044  0.22984  0.20058  1.0000
  H   H1580     1.0  0.63826  0.13133  0.44995  1.0000
  H   H1581     1.0  0.67908  0.14567  0.21811  1.0000
  H   H1582     1.0  0.73104  0.18029  0.22336  1.0000
  H   H1583     1.0  0.81698  0.17452  0.22110  1.0000
  C   C893      1.0  0.78166  0.20975  0.20545  1.0000
  H   H1584     1.0  0.76084  0.04393  0.05712  1.0000
  C   C894      1.0  0.77262  0.15255  0.04545  1.0000
  H   H1585     1.0  0.82506  0.14933  0.14206  1.0000
  H   H1586     1.0  0.73194  0.16261  0.18959  1.0000
  H   H1587     1.0  0.77659  0.01587  0.41139  1.0000
  H   H1588     1.0  0.76033  0.18259  0.14723  1.0000
  C   C895      1.0  0.62352  0.20821  0.06630  1.0000
  H   H1589     1.0  0.74506  0.20235  0.13690  1.0000
  C   C896      1.0  0.68014  0.15051  0.19245  1.0000
  H   H1590     1.0  0.68177  0.13457  0.17883  1.0000
  C   C897      1.0  0.98936  0.16876  0.12755  1.0000
  H   H1591     1.0  0.77113  0.16639  0.20569  1.0000
  C   C898      1.0  0.70455  0.17885  0.18513  1.0000
  C   C899      1.0  0.77068  0.04615  0.07978  1.0000
  H   H1592     1.0  0.78696  0.02777  0.02082  1.0000
  Fe  Fe108     1.0  0.96253  0.17060  0.48338  1.0000
  H   H1593     1.0  0.66080  0.14995  0.18563  1.0000
  H   H1594     1.0  0.76430  0.16161  0.06250  1.0000
  H   H1595     1.0  0.68242  0.03793  0.00300  1.0000
  H   H1596     1.0  0.93453  0.23473  0.05587  1.0000
  H   H1597     1.0  0.76637  0.00412  0.45047  1.0000
  H   H1598     1.0  0.69111  0.23360  0.30444  1.0000
  C   C900      1.0  0.74640  0.11008  0.07645  1.0000
  H   H1599     1.0  0.70541  0.21988  0.35101  1.0000
  H   H1600     1.0  0.55071  0.08949  0.17470  1.0000
  Fe  Fe109     1.0  0.88703  0.12185  0.01161  1.0000
  H   H1601     1.0  0.59639  0.07442  0.44318  1.0000
  C   C901      1.0  0.79715  0.11917  0.10810  1.0000
  C   C902      1.0  0.80832  0.01656  0.44144  1.0000
  C   C903      1.0  0.69447  0.08084  0.07372  1.0000
  C   C904      1.0  0.55790  0.12172  0.06042  1.0000
  C   C905      1.0  0.59510  0.08850  0.42566  1.0000
  C   C906      1.0  0.82353  0.13225  0.12754  1.0000
  C   C907      1.0  0.88753  0.03351  0.46447  1.0000
  C   C908      1.0  0.75582  0.23208  0.18924  1.0000
  H   H1602     1.0  0.74691  0.09290  0.08887  1.0000
  H   H1603     1.0  0.78535  0.20408  0.02271  1.0000
  C   C909      1.0  0.79524  0.14041  0.08641  1.0000
  H   H1604     1.0  0.84166  0.13998  0.11166  1.0000
  H   H1605     1.0  0.64052  0.21333  0.08324  1.0000
  H   H1606     1.0  0.77353  0.09203  0.04637  1.0000
  H   H1607     1.0  0.69490  0.06532  0.08963  1.0000
  C   C910      1.0  0.58415  0.23120  0.29388  1.0000
  C   C911      1.0  0.97434  0.22850  0.11943  1.0000
  H   H1608     1.0  0.81161  0.06339  0.06012  1.0000
  H   H1609     1.0  0.79694  0.10274  0.09381  1.0000
  H   H1610     1.0  0.77968  0.10992  0.12505  1.0000
  C   C912      1.0  0.51942  0.24099  0.12580  1.0000
  H   H1611     1.0  0.73478  0.06089  0.43779  1.0000
  H   H1612     1.0  0.91421  0.20623  0.46522  1.0000
  H   H1613     1.0  0.59203  0.12487  0.42421  1.0000
  H   H1614     1.0  0.69132  0.09548  0.08811  1.0000
  H   H1615     1.0  0.74241  0.23940  0.10614  1.0000
  N   N48       1.0  0.75790  0.20660  0.18579  1.0000
  H   H1616     1.0  0.56314  0.12540  0.18226  1.0000
  C   C913      1.0  0.76187  0.20282  0.15119  1.0000
  C   C914      1.0  0.82051  0.04739  0.44531  1.0000
  C   C915      1.0  0.79050  0.21859  0.10097  1.0000
  H   H1617     1.0  0.97676  0.21050  0.11484  1.0000
  H   H1618     1.0  0.63242  0.22008  0.04415  1.0000
  H   H1619     1.0  0.99341  0.12077  0.34794  1.0000
  H   H1620     1.0  0.77493  0.25046  0.18102  1.0000
  H   H1621     1.0  0.66151  0.17883  0.44891  1.0000
  H   H1622     1.0  0.78328  0.13132  0.99046  1.0000
  H   H1623     1.0  0.86345  0.03569  0.08852  1.0000
  H   H1624     1.0  0.64941  0.19879  0.46657  1.0000
  H   H1625     1.0  0.75303  0.12175  0.48723  1.0000
  H   H1626     1.0  0.74937  0.10578  0.00119  1.0000
  H   H1627     1.0  0.82000  0.03390  0.00706  1.0000
  H   H1628     1.0  0.57545  0.10298  0.45748  1.0000
  C   C916      1.0  0.86208  0.24721  0.11101  1.0000
  H   H1629     1.0  0.59114  0.10261  0.13918  1.0000
  C   C917      1.0  0.77160  0.08732  0.46657  1.0000
  C   C918      1.0  0.59889  0.11992  0.07620  1.0000
  H   H1630     1.0  0.79626  0.17269  0.48054  1.0000
  H   H1631     1.0  0.70483  0.18206  0.15921  1.0000
  H   H1632     1.0  0.83002  0.21086  0.22215  1.0000
  H   H1633     1.0  0.73468  0.22079  0.23578  1.0000
  C   C919      1.0  0.95191  0.25064  0.04177  1.0000
  C   C920      1.0  0.81130  0.19051  0.22513  1.0000
  H   H1634     1.0  0.84128  0.05638  0.45593  1.0000
  S   S217      1.0  0.66443  0.24889  0.20501  1.0000
  C   C921      1.0  0.78905  0.22501  0.13581  1.0000
  H   H1635     1.0  0.56754  0.12801  0.03655  1.0000
  H   H1636     1.0  0.82367  0.11666  0.14360  1.0000
  H   H1637     1.0  0.60926  0.21442  0.07650  1.0000
  C   C922      1.0  0.65876  0.05973  0.46177  1.0000
  H   H1638     1.0  0.61628  0.12733  0.09321  1.0000
  C   C923      1.0  0.58584  0.08847  0.07238  1.0000
  H   H1639     1.0  0.82253  0.05735  0.42192  1.0000
  C   C924      1.0  0.00045  0.17806  0.09733  1.0000
  H   H1640     1.0  0.75233  0.08772  0.38774  1.0000
  H   H1641     1.0  0.66866  0.20755  0.39979  1.0000
  H   H1642     1.0  0.78469  0.10949  0.40667  1.0000
  H   H1643     1.0  0.77304  0.07359  0.40156  1.0000
  N   N49       1.0  0.77366  0.12883  0.06070  1.0000
  H   H1644     1.0  0.72780  0.03495  0.47839  1.0000
  C   C925      1.0  0.60823  0.17760  0.05905  1.0000
  H   H1645     1.0  0.58310  0.16811  0.10135  1.0000
  C   C926      1.0  0.52045  0.15042  0.14413  1.0000
  H   H1646     1.0  0.54882  0.09562  0.11362  1.0000
  H   H1647     1.0  0.75071  0.23040  0.33179  1.0000
  H   H1648     1.0  0.60862  0.12891  0.05299  1.0000
  H   H1649     1.0  0.57623  0.07670  0.41135  1.0000
  H   H1650     1.0  0.76231  0.06952  0.99505  1.0000
  H   H1651     1.0  0.51195  0.25099  0.10915  1.0000
  C   C927      1.0  0.81183  0.16752  0.47465  1.0000
  N   N50       1.0  0.57948  0.12980  0.08572  1.0000
  H   H1652     1.0  0.62760  0.16211  0.40749  1.0000
  H   H1653     1.0  0.61316  0.09653  0.40956  1.0000
  H   H1654     1.0  0.74216  0.12146  0.09505  1.0000
  H   H1655     1.0  0.80366  0.18848  0.24983  1.0000
  S   S218      1.0  0.65988  0.09157  0.45691  1.0000
  H   H1656     1.0  0.74241  0.09563  0.44127  1.0000
  H   H1657     1.0  0.81310  0.18868  0.05367  1.0000
  H   H1658     1.0  0.96816  0.24496  0.04053  1.0000
  H   H1659     1.0  0.77007  0.24702  0.23733  1.0000
  C   C928      1.0  0.98996  0.24416  0.45553  1.0000
  H   H1660     1.0  0.57245  0.08143  0.05114  1.0000
  H   H1661     1.0  0.85940  0.00299  0.07784  1.0000
  H   H1662     1.0  0.57425  0.22083  0.27139  1.0000
  H   H1663     1.0  0.87639  0.06248  0.99655  1.0000
  S   S219      1.0  0.63520  0.24907  0.13750  1.0000
  C   C929      1.0  0.75090  0.23891  0.22327  1.0000
  H   H1664     1.0  0.58307  0.11006  0.19447  1.0000
  C   C930      1.0  0.50833  0.16969  0.09999  1.0000
  H   H1665     1.0  0.71914  0.11059  0.03887  1.0000
  H   H1666     1.0  0.59214  0.17393  0.04147  1.0000
  H   H1667     1.0  0.58613  0.21616  0.30911  1.0000
  H   H1668     1.0  0.60285  0.13797  0.14629  1.0000
  C   C931      1.0  0.58429  0.11761  0.14386  1.0000
  H   H1669     1.0  0.96550  0.22655  0.14348  1.0000
  H   H1670     1.0  0.62132  0.08610  0.08905  1.0000
  H   H1671     1.0  0.53179  0.23395  0.11268  1.0000
  C   C932      1.0  0.79778  0.02351  0.00180  1.0000
  C   C933      1.0  0.56542  0.11724  0.11680  1.0000
  H   H1672     1.0  0.78609  0.08048  0.45880  1.0000
  H   H1673     1.0  0.63895  0.20541  0.38097  1.0000
  C   C934      1.0  0.62964  0.17916  0.42241  1.0000
  H   H1674     1.0  0.68829  0.02334  0.43575  1.0000
  H   H1675     1.0  0.99803  0.16645  0.17695  1.0000
  C   C935      1.0  0.64829  0.20563  0.40421  1.0000
  H   H1676     1.0  0.95369  0.12623  0.00050  1.0000
  H   H1677     1.0  0.92565  0.23915  0.44639  1.0000
  H   H1678     1.0  0.61741  0.11378  0.48296  1.0000
  C   C936      1.0  0.90992  0.22332  0.46226  1.0000
  C   C937      1.0  0.69109  0.25146  0.29351  1.0000
  C   C938      1.0  0.77112  0.11134  0.00276  1.0000
  C   C939      1.0  0.59423  0.11202  0.44246  1.0000
  H   H1679     1.0  0.95667  0.07436  0.00448  1.0000
  H   H1680     1.0  0.58521  0.14949  0.46362  1.0000
  H   H1681     1.0  0.52831  0.13218  0.01461  1.0000
  H   H1682     1.0  0.88952  0.21512  0.45087  1.0000
  C   C940      1.0  0.79686  0.19533  0.01086  1.0000
  H   H1683     1.0  0.92608  0.07629  0.01234  1.0000
  H   H1684     1.0  0.68183  0.24539  0.26965  1.0000
  C   C941      1.0  0.64235  0.17877  0.45474  1.0000
  H   H1685     1.0  0.62468  0.24854  0.27425  1.0000
  C   C942      1.0  0.93801  0.07297  0.99372  1.0000
  C   C943      1.0  0.82529  0.00894  0.06428  1.0000
  C   C944      1.0  0.59823  0.15389  0.48495  1.0000
  C   C945      1.0  0.65625  0.00869  0.47089  1.0000
  H   H1686     1.0  0.65375  0.24228  0.31667  1.0000
  N   N51       1.0  0.62509  0.15534  0.47697  1.0000
  H   H1687     1.0  0.97646  0.17574  0.99225  1.0000
  C   C946      1.0  0.63980  0.04017  0.48311  1.0000
  C   C947      1.0  0.72377  0.23815  0.36043  1.0000
  H   H1688     1.0  0.76049  0.03829  0.48252  1.0000
  H   H1689     1.0  0.98278  0.12404  0.98829  1.0000
  H   H1690     1.0  0.78566  0.18416  0.98924  1.0000
  H   H1691     1.0  0.85425  0.07638  0.90391  1.0000
  H   H1692     1.0  0.76077  0.12078  0.52838  1.0000
  Fe  Fe110     1.0  0.72550  0.09751  0.81206  1.0000
  S   S220      1.0  0.75222  0.11449  0.85470  1.0000
  S   S221      1.0  0.71964  0.05929  0.78760  1.0000
  Fe  Fe111     1.0  0.71170  0.14408  0.80961  1.0000
  S   S222      1.0  0.73717  0.16386  0.85301  1.0000
  S   S223      1.0  0.69791  0.16784  0.77742  1.0000
  Fe  Fe112     1.0  0.76848  0.15543  0.83102  1.0000
  S   S224      1.0  0.81365  0.18714  0.83412  1.0000
  Fe  Fe113     1.0  0.71862  0.12108  0.87293  1.0000
  S   S225      1.0  0.70845  0.11182  0.92506  1.0000
  S   S226      1.0  0.74445  0.13794  0.78660  1.0000
  S   S227      1.0  0.69033  0.10161  0.83134  1.0000
  Fe  Fe114     1.0  0.93971  0.12913  0.53667  1.0000
  S   S228      1.0  0.95185  0.11912  0.58384  1.0000
  Fe  Fe115     1.0  0.57475  0.22614  0.68223  1.0000
  S   S229      1.0  0.54905  0.20094  0.72283  1.0000
  S   S230      1.0  0.56726  0.21173  0.63122  1.0000
  H   H1693     1.0  0.95171  0.10674  0.73307  1.0000
  H   H1694     1.0  0.55738  0.09694  0.71950  1.0000
  Fe  Fe116     1.0  0.58854  0.21546  0.74917  1.0000
  S   S231      1.0  0.59369  0.18438  0.77875  1.0000
  H   H1695     1.0  0.73772  0.03164  0.74617  1.0000
  H   H1696     1.0  0.77456  0.01987  0.75035  1.0000
  H   H1697     1.0  0.60538  0.12020  0.67160  1.0000
  C   C948      1.0  0.98862  0.17308  0.97309  1.0000
  H   H1698     1.0  0.98202  0.17221  0.65580  1.0000
  H   H1699     1.0  0.98142  0.12736  0.64203  1.0000
  H   H1700     1.0  0.77240  0.02978  0.96796  1.0000
  C   C949      1.0  0.53329  0.18850  0.61938  1.0000
  S   S232      1.0  0.87554  0.10659  0.96116  1.0000
  C   C950      1.0  0.62627  0.19402  0.65881  1.0000
  H   H1701     1.0  0.86990  0.06884  0.83914  1.0000
  H   H1702     1.0  0.54254  0.19619  0.56953  1.0000
  C   C951      1.0  0.77929  0.04618  0.82385  1.0000
  H   H1703     1.0  0.51453  0.21902  0.68112  1.0000
  H   H1704     1.0  0.51370  0.23028  0.64151  1.0000
  S   S233      1.0  0.58740  0.25181  0.76974  1.0000
  H   H1705     1.0  0.54909  0.09871  0.64709  1.0000
  C   C952      1.0  0.83093  0.20421  0.79911  1.0000
  C   C953      1.0  0.81881  0.19536  0.76940  1.0000
  C   C954      1.0  0.83304  0.20923  0.74186  1.0000
  C   C955      1.0  0.85945  0.23210  0.74382  1.0000
  C   C956      1.0  0.87178  0.24077  0.77348  1.0000
  C   C957      1.0  0.85752  0.22686  0.80106  1.0000
  H   H1706     1.0  0.79850  0.17781  0.76754  1.0000
  H   H1707     1.0  0.82343  0.20234  0.71897  1.0000
  H   H1708     1.0  0.86705  0.23378  0.82397  1.0000
  C   C958      1.0  0.66826  0.17130  0.77791  1.0000
  C   C959      1.0  0.66593  0.18827  0.75507  1.0000
  C   C960      1.0  0.64317  0.19231  0.75490  1.0000
  C   C961      1.0  0.62246  0.17946  0.77762  1.0000
  C   C962      1.0  0.62460  0.16225  0.80023  1.0000
  C   C963      1.0  0.64738  0.15817  0.80042  1.0000
  H   H1709     1.0  0.68193  0.19842  0.73747  1.0000
  H   H1710     1.0  0.64172  0.20543  0.73726  1.0000
  H   H1711     1.0  0.60864  0.15212  0.81788  1.0000
  H   H1712     1.0  0.64888  0.14502  0.81808  1.0000
  S   S234      1.0  0.94509  0.17101  0.53094  1.0000
  C   C964      1.0  0.74486  0.11063  0.50992  1.0000
  H   H1713     1.0  0.64792  0.18124  0.51651  1.0000
  C   C965      1.0  0.69575  0.07738  0.93638  1.0000
  C   C966      1.0  0.68710  0.05675  0.91366  1.0000
  C   C967      1.0  0.54674  0.13859  0.70750  1.0000
  H   H1714     1.0  0.76114  0.01319  0.91312  1.0000
  H   H1715     1.0  0.58698  0.14196  0.64497  1.0000
  H   H1716     1.0  0.68823  0.06185  0.88876  1.0000
  C   C968      1.0  0.74430  0.04901  0.79283  1.0000
  C   C969      1.0  0.73550  0.02621  0.52532  1.0000
  C   C970      1.0  0.82209  0.08743  0.54863  1.0000
  H   H1717     1.0  0.97672  0.11241  0.85447  1.0000
  H   H1718     1.0  0.79649  0.09590  0.98308  1.0000
  C   C971      1.0  0.75907  0.05386  0.82106  1.0000
  H   H1719     1.0  0.90390  0.09019  0.82347  1.0000
  C   C972      1.0  0.64103  0.16029  0.50744  1.0000
  H   H1720     1.0  0.81641  0.08864  0.49860  1.0000
  C   C973      1.0  0.86627  0.07269  0.95127  1.0000
  H   H1721     1.0  0.80236  0.03070  0.95069  1.0000
  S   S235      1.0  0.89678  0.10759  0.51686  1.0000
  H   H1722     1.0  0.71076  0.21380  0.87182  1.0000
  C   C974      1.0  0.84865  0.03616  0.91204  1.0000
  C   C975      1.0  0.85636  0.06309  0.92075  1.0000
  H   H1723     1.0  0.81043  0.07650  0.57024  1.0000
  H   H1724     1.0  0.84072  0.02889  0.88855  1.0000
  C   C976      1.0  0.78519  0.03418  0.79823  1.0000
  C   C977      1.0  0.94836  0.13676  0.70402  1.0000
  H   H1725     1.0  0.91939  0.09349  0.71276  1.0000
  H   H1726     1.0  0.74290  0.04267  0.93727  1.0000
  H   H1727     1.0  0.52523  0.08636  0.67858  1.0000
  C   C978      1.0  0.94575  0.09395  0.96698  1.0000
  H   H1728     1.0  0.79132  0.05085  0.84526  1.0000
  H   H1729     1.0  0.93977  0.18045  0.70969  1.0000
  H   H1730     1.0  0.99717  0.11143  0.88672  1.0000
  C   C979      1.0  0.98893  0.12369  0.87552  1.0000
  H   H1731     1.0  0.73332  0.04693  0.89775  1.0000
  C   C980      1.0  0.57179  0.17613  0.50618  1.0000
  C   C981      1.0  0.52278  0.11746  0.72855  1.0000
  C   C982      1.0  0.60590  0.09648  0.71096  1.0000
  H   H1732     1.0  0.96597  0.17765  0.90876  1.0000
  H   H1733     1.0  0.82643  0.17106  0.52270  1.0000
  H   H1734     1.0  0.79529  0.05573  0.51720  1.0000
  N   N52       1.0  0.84448  0.12705  0.83399  1.0000
  C   C983      1.0  0.83141  0.11620  0.80212  1.0000
  C   C984      1.0  0.85672  0.11021  0.84592  1.0000
  C   C985      1.0  0.82204  0.12278  0.85698  1.0000
  C   C986      1.0  0.86568  0.15725  0.83324  1.0000
  C   C987      1.0  0.88190  0.16910  0.80189  1.0000
  C   C988      1.0  0.81207  0.12642  0.78998  1.0000
  C   C989      1.0  0.83060  0.12901  0.89231  1.0000
  C   C990      1.0  0.87920  0.10992  0.82513  1.0000
  C   C991      1.0  0.88771  0.09005  0.83864  1.0000
  C   C992      1.0  0.90607  0.19801  0.80675  1.0000
  C   C993      1.0  0.80478  0.11938  0.75515  1.0000
  C   C994      1.0  0.80897  0.13144  0.91167  1.0000
  H   H1735     1.0  0.81914  0.09351  0.80276  1.0000
  H   H1736     1.0  0.84699  0.12059  0.78356  1.0000
  H   H1737     1.0  0.86635  0.11753  0.86952  1.0000
  H   H1738     1.0  0.84013  0.08852  0.84939  1.0000
  H   H1739     1.0  0.80465  0.10132  0.85579  1.0000
  H   H1740     1.0  0.81330  0.13595  0.85024  1.0000
  H   H1741     1.0  0.85601  0.16993  0.83833  1.0000
  H   H1742     1.0  0.88079  0.16217  0.85267  1.0000
  H   H1743     1.0  0.86838  0.17041  0.78364  1.0000
  H   H1744     1.0  0.89007  0.15642  0.79221  1.0000
  H   H1745     1.0  0.79250  0.11643  0.80354  1.0000
  H   H1746     1.0  0.82165  0.14883  0.79282  1.0000
  H   H1747     1.0  0.85032  0.14844  0.89488  1.0000
  H   H1748     1.0  0.83284  0.11216  0.90291  1.0000
  H   H1749     1.0  0.87197  0.10329  0.80060  1.0000
  H   H1750     1.0  0.89779  0.13052  0.82476  1.0000
  C   C995      1.0  0.59015  0.10451  0.68788  1.0000
  H   H1751     1.0  0.62761  0.14577  0.52619  1.0000
  H   H1752     1.0  0.57122  0.16144  0.65405  1.0000
  H   H1753     1.0  0.91657  0.20658  0.78381  1.0000
  H   H1754     1.0  0.89884  0.21168  0.81619  1.0000
  H   H1755     1.0  0.92115  0.19771  0.82348  1.0000
  H   H1756     1.0  0.82342  0.12996  0.74007  1.0000
  H   H1757     1.0  0.79480  0.09689  0.75162  1.0000
  H   H1758     1.0  0.79015  0.12613  0.74769  1.0000
  H   H1759     1.0  0.78876  0.11240  0.90983  1.0000
  H   H1760     1.0  0.81519  0.13495  0.93695  1.0000
  H   H1761     1.0  0.80692  0.14899  0.90309  1.0000
  H   H1762     1.0  0.94129  0.22956  0.51581  1.0000
  C   C996      1.0  0.86122  0.02837  0.96421  1.0000
  C   C997      1.0  0.76979  0.02858  0.77046  1.0000
  H   H1763     1.0  0.95216  0.22154  0.67741  1.0000
  H   H1764     1.0  0.62970  0.24098  0.80087  1.0000
  H   H1765     1.0  0.83908  0.08304  0.54526  1.0000
  H   H1766     1.0  0.66876  0.01346  0.90542  1.0000
  Fe  Fe117     1.0  0.55000  0.23924  0.73917  1.0000
  C   C998      1.0  0.93785  0.24711  0.51116  1.0000
  H   H1767     1.0  0.68857  0.18543  0.54470  1.0000
  H   H1768     1.0  0.63804  0.22334  0.83072  1.0000
  C   C999      1.0  0.86873  0.05526  0.97300  1.0000
  C   C1000     1.0  0.99600  0.13973  0.62394  1.0000
  H   H1769     1.0  0.58636  0.12971  0.72453  1.0000
  C   C1001     1.0  0.99340  0.06708  0.59873  1.0000
  C   C1002     1.0  0.74752  0.04265  0.91170  1.0000
  C   C1003     1.0  0.51034  0.13131  0.74813  1.0000
  H   H1770     1.0  0.92043  0.20372  0.65565  1.0000
  H   H1771     1.0  0.95329  0.10773  0.90525  1.0000
  H   H1772     1.0  0.60158  0.18202  0.70106  1.0000
  H   H1773     1.0  0.97103  0.14987  0.70328  1.0000
  C   C1004     1.0  0.53878  0.10522  0.66471  1.0000
  H   H1774     1.0  0.53014  0.10746  0.74549  1.0000
  C   C1005     1.0  0.78032  0.08518  0.52298  1.0000
  H   H1775     1.0  0.61609  0.20456  0.64784  1.0000
  C   C1006     1.0  0.94911  0.17099  0.92629  1.0000
  H   H1776     1.0  0.98045  0.19405  0.68440  1.0000
  C   C1007     1.0  0.89659  0.23412  0.61855  1.0000
  C   C1008     1.0  0.61679  0.24341  0.84763  1.0000
  H   H1777     1.0  0.99972  0.15393  0.54518  1.0000
  H   H1778     1.0  0.00034  0.13610  0.93621  1.0000
  C   C1009     1.0  0.69299  0.24549  0.81237  1.0000
  H   H1779     1.0  0.96204  0.13920  0.88593  1.0000
  H   H1780     1.0  0.77097  0.20205  0.79081  1.0000
  H   H1781     1.0  0.70432  0.10529  0.50135  1.0000
  S   S236      1.0  0.61443  0.23821  0.70725  1.0000
  H   H1782     1.0  0.57426  0.24277  0.56718  1.0000
  H   H1783     1.0  0.92641  0.09092  0.95647  1.0000
  H   H1784     1.0  0.95720  0.08915  0.94916  1.0000
  H   H1785     1.0  0.93285  0.14455  0.96710  1.0000
  H   H1786     1.0  0.58892  0.24880  0.52772  1.0000
  H   H1787     1.0  0.77092  0.07891  0.54697  1.0000
  C   C1010     1.0  0.60690  0.17197  0.68211  1.0000
  C   C1011     1.0  0.94513  0.14585  0.94583  1.0000
  H   H1788     1.0  0.76885  0.05925  0.90692  1.0000
  H   H1789     1.0  0.97776  0.05184  0.61520  1.0000
  C   C1012     1.0  0.98730  0.14468  0.92817  1.0000
  C   C1013     1.0  0.97068  0.12806  0.89882  1.0000
  H   H1790     1.0  0.57637  0.08616  0.67372  1.0000
  C   C1014     1.0  0.70219  0.21499  0.84856  1.0000
  H   H1791     1.0  0.99027  0.08500  0.59659  1.0000
  H   H1792     1.0  0.98157  0.19864  0.61146  1.0000
  H   H1793     1.0  0.72703  0.07026  0.53001  1.0000
  C   C1015     1.0  0.67622  0.02934  0.92316  1.0000
  C   C1016     1.0  0.58060  0.15013  0.66520  1.0000
  H   H1794     1.0  0.56224  0.15365  0.72403  1.0000
  H   H1795     1.0  0.63284  0.18489  0.63989  1.0000
  C   C1017     1.0  0.85093  0.01865  0.93381  1.0000
  H   H1796     1.0  0.67401  0.22607  0.80659  1.0000
  H   H1797     1.0  0.99499  0.19073  0.95667  1.0000
  C   C1018     1.0  0.52034  0.11340  0.64561  1.0000
  H   H1798     1.0  0.97522  0.22304  0.72591  1.0000
  H   H1799     1.0  0.50777  0.11833  0.66159  1.0000
  H   H1800     1.0  0.83110  0.10980  0.55202  1.0000
  C   C1019     1.0  0.52679  0.18497  0.58701  1.0000
  C   C1020     1.0  0.77340  0.22253  0.79524  1.0000
  C   C1021     1.0  0.99261  0.24156  0.73429  1.0000
  H   H1801     1.0  0.61083  0.18426  0.52344  1.0000
  H   H1802     1.0  0.79107  0.10795  0.52306  1.0000
  C   C1022     1.0  0.68199  0.16410  0.53748  1.0000
  S   S237      1.0  0.81579  0.03274  0.79776  1.0000
  H   H1803     1.0  0.78497  0.23486  0.74703  1.0000
  H   H1804     1.0  0.71462  0.21280  0.82958  1.0000
  C   C1023     1.0  0.69389  0.07044  0.96862  1.0000
  H   H1805     1.0  0.62076  0.11451  0.72495  1.0000
  H   H1806     1.0  0.91784  0.23229  0.69767  1.0000
  H   H1807     1.0  0.91938  0.22350  0.56587  1.0000
  H   H1808     1.0  0.54023  0.23710  0.53663  1.0000
  N   N53       1.0  0.94126  0.16676  0.66234  1.0000
  C   C1024     1.0  0.92884  0.16423  0.62997  1.0000
  C   C1025     1.0  0.97224  0.18470  0.66089  1.0000
  C   C1026     1.0  0.93470  0.13843  0.67269  1.0000
  C   C1027     1.0  0.92921  0.17739  0.68657  1.0000
  H   H1809     1.0  0.89405  0.19676  0.70542  1.0000
  C   C1028     1.0  0.89723  0.14570  0.62789  1.0000
  H   H1810     1.0  0.55977  0.15862  0.52252  1.0000
  H   H1811     1.0  0.68080  0.19766  0.84710  1.0000
  C   C1029     1.0  0.88691  0.14708  0.59492  1.0000
  H   H1812     1.0  0.93811  0.15617  0.61285  1.0000
  H   H1813     1.0  0.93382  0.18450  0.62032  1.0000
  C   C1030     1.0  0.74592  0.04333  0.49432  1.0000
  H   H1814     1.0  0.71776  0.02730  0.53513  1.0000
  H   H1815     1.0  0.94050  0.12863  0.65361  1.0000
  H   H1816     1.0  0.91225  0.12491  0.67630  1.0000
  H   H1817     1.0  0.90744  0.16191  0.69168  1.0000
  H   H1818     1.0  0.97505  0.22072  0.63603  1.0000
  H   H1819     1.0  0.61754  0.08864  0.69761  1.0000
  C   C1031     1.0  0.74917  0.03559  0.76797  1.0000
  H   H1820     1.0  0.89099  0.12396  0.63242  1.0000
  H   H1821     1.0  0.88660  0.15212  0.64499  1.0000
  H   H1822     1.0  0.94060  0.14324  0.72446  1.0000
  H   H1823     1.0  0.75169  0.03334  0.54365  1.0000
  H   H1824     1.0  0.91682  0.14777  0.89186  1.0000
  H   H1825     1.0  0.66839  0.14962  0.55600  1.0000
  H   H1826     1.0  0.92648  0.18334  0.89513  1.0000
  C   C1032     1.0  0.68369  0.04307  0.97812  1.0000
  H   H1827     1.0  0.89248  0.16842  0.58878  1.0000
  H   H1828     1.0  0.89571  0.13932  0.57693  1.0000
  H   H1829     1.0  0.86423  0.13420  0.59422  1.0000
  C   C1033     1.0  0.91618  0.21239  0.70383  1.0000
  C   C1034     1.0  0.91930  0.24322  0.56434  1.0000
  H   H1830     1.0  0.51749  0.17549  0.66655  1.0000
  C   C1035     1.0  0.98462  0.20775  0.63548  1.0000
  H   H1831     1.0  0.99029  0.05758  0.57499  1.0000
  H   H1832     1.0  0.61850  0.16292  0.69296  1.0000
  H   H1833     1.0  0.87758  0.23297  0.60923  1.0000
  S   S238      1.0  0.50713  0.23101  0.75125  1.0000
  H   H1834     1.0  0.92510  0.05202  0.98413  1.0000
  C   C1036     1.0  0.60029  0.17985  0.50022  1.0000
  C   C1037     1.0  0.72050  0.11385  0.51976  1.0000
  C   C1038     1.0  0.57316  0.11492  0.70600  1.0000
  N   N54       1.0  0.55983  0.12715  0.68586  1.0000
  H   H1835     1.0  0.71170  0.10322  0.54262  1.0000
  C   C1039     1.0  0.94189  0.10745  0.71054  1.0000
  H   H1836     1.0  0.89320  0.21895  0.50876  1.0000
  H   H1837     1.0  0.75505  0.06372  0.84054  1.0000
  C   C1040     1.0  0.93056  0.20479  0.67846  1.0000
  C   C1041     1.0  0.50654  0.23538  0.56206  1.0000
  C   C1042     1.0  0.66730  0.15771  0.50558  1.0000
  N   N55       1.0  0.97115  0.14643  0.95585  1.0000
  H   H1838     1.0  0.94997  0.10016  0.69115  1.0000
  H   H1839     1.0  0.57378  0.19489  0.51721  1.0000
  C   C1043     1.0  0.51278  0.17318  0.64162  1.0000
  H   H1840     1.0  0.64481  0.20948  0.67155  1.0000
  H   H1841     1.0  0.92593  0.21452  0.72729  1.0000
  C   C1044     1.0  0.67462  0.02239  0.95537  1.0000
  H   H1842     1.0  0.62294  0.24376  0.87270  1.0000
  C   C1045     1.0  0.98707  0.13910  0.59279  1.0000
  H   H1843     1.0  0.74700  0.01561  0.87613  1.0000
  H   H1844     1.0  0.70017  0.08628  0.98623  1.0000
  C   C1046     1.0  0.73611  0.07993  0.50679  1.0000
  H   H1845     1.0  0.70057  0.16206  0.53542  1.0000
  H   H1846     1.0  0.59156  0.08017  0.72747  1.0000
  H   H1847     1.0  0.53285  0.13146  0.63027  1.0000
  S   S239      1.0  0.87178  0.16091  0.52061  1.0000
  H   H1848     1.0  0.90592  0.15954  0.92577  1.0000
  C   C1047     1.0  0.92293  0.16494  0.90869  1.0000
  H   H1849     1.0  0.95440  0.18844  0.94246  1.0000
  N   N56       1.0  0.75849  0.07394  0.49771  1.0000
  H   H1850     1.0  0.68956  0.24289  0.86460  1.0000
  Fe  Fe118     1.0  0.90400  0.14984  0.50682  1.0000
  H   H1851     1.0  0.89590  0.09604  0.86303  1.0000
  C   C1048     1.0  0.61564  0.25127  0.56530  1.0000
  H   H1852     1.0  0.67511  0.24918  0.71129  1.0000
  H   H1853     1.0  0.53929  0.15040  0.69369  1.0000
  H   H1854     1.0  0.75289  0.22073  0.79331  1.0000
  H   H1855     1.0  0.59633  0.22494  0.84407  1.0000
  C   C1049     1.0  0.70275  0.24229  0.84551  1.0000
  H   H1856     1.0  0.93154  0.12710  0.93227  1.0000
  H   H1857     1.0  0.90413  0.25159  0.49051  1.0000
  H   H1858     1.0  0.52612  0.14713  0.76382  1.0000
  H   H1859     1.0  0.60921  0.22921  0.56379  1.0000
  H   H1860     1.0  0.76698  0.08918  0.95958  1.0000
  H   H1861     1.0  0.51255  0.23075  0.58529  1.0000
  H   H1862     1.0  0.00210  0.16551  0.91895  1.0000
  H   H1863     1.0  0.72730  0.13588  0.52272  1.0000
  H   H1864     1.0  0.70850  0.24633  0.79545  1.0000
  C   C1050     1.0  0.79324  0.24300  0.77093  1.0000
  H   H1865     1.0  0.86353  0.01509  0.98090  1.0000
  H   H1866     1.0  0.66233  0.13671  0.49897  1.0000
  H   H1867     1.0  0.89849  0.23773  0.55570  1.0000
  C   C1051     1.0  0.53164  0.25068  0.54070  1.0000
  H   H1868     1.0  0.80609  0.05909  0.97369  1.0000
  H   H1869     1.0  0.89936  0.24141  0.64342  1.0000
  H   H1870     1.0  0.58616  0.13634  0.50138  1.0000
  H   H1871     1.0  0.51117  0.24879  0.67523  1.0000
  C   C1052     1.0  0.80347  0.07802  0.51961  1.0000
  S   S240      1.0  0.87617  0.24931  0.70871  1.0000
  H   H1872     1.0  0.51189  0.08497  0.60665  1.0000
  C   C1053     1.0  0.96395  0.12349  0.97931  1.0000
  C   C1054     1.0  0.79438  0.03646  0.97159  1.0000
  H   H1873     1.0  0.66260  0.24791  0.76769  1.0000
  C   C1055     1.0  0.77452  0.09013  0.98408  1.0000
  C   C1056     1.0  0.82892  0.16658  0.49844  1.0000
  H   H1874     1.0  0.78143  0.22878  0.81965  1.0000
  H   H1875     1.0  0.81305  0.24357  0.77336  1.0000
  H   H1876     1.0  0.62607  0.04472  0.49626  1.0000
  C   C1057     1.0  0.90967  0.23551  0.49443  1.0000
  C   C1058     1.0  0.74429  0.01510  0.90209  1.0000
  H   H1877     1.0  0.89409  0.21331  0.61836  1.0000
  C   C1059     1.0  0.63755  0.24233  0.82522  1.0000
  S   S241      1.0  0.95945  0.12959  0.49035  1.0000
  H   H1878     1.0  0.50607  0.10142  0.71413  1.0000
  C   C1060     1.0  0.84955  0.16041  0.49081  1.0000
  H   H1879     1.0  0.71881  0.07043  0.48970  1.0000
  C   C1061     1.0  0.63855  0.01476  0.48771  1.0000
  H   H1880     1.0  0.68215  0.17213  0.48802  1.0000
  Fe  Fe119     1.0  0.67421  0.47093  0.07803  1.0000
  S   S242      1.0  0.67890  0.44928  0.03633  1.0000
  Fe  Fe120     1.0  0.61234  0.42913  0.08558  1.0000
  S   S243      1.0  0.61292  0.40543  0.04307  1.0000
  S   S244      1.0  0.57772  0.41536  0.12210  1.0000
  Fe  Fe121     1.0  0.65204  0.41077  0.06393  1.0000
  S   S245      1.0  0.66120  0.37601  0.06576  1.0000
  Fe  Fe122     1.0  0.63982  0.44669  0.01999  1.0000
  C   C1062     1.0  0.78659  0.30081  0.30172  1.0000
  S   S246      1.0  0.65069  0.43275  0.10719  1.0000
  Fe  Fe123     1.0  0.86531  0.29611  0.17119  1.0000
  S   S247      1.0  0.86657  0.31840  0.12644  1.0000
  H   H1881     1.0  0.68487  0.26581  0.33751  1.0000
  Fe  Fe124     1.0  0.87253  0.34274  0.21344  1.0000
  S   S248      1.0  0.87568  0.36917  0.17221  1.0000
  S   S249      1.0  0.87264  0.35558  0.26404  1.0000
  Fe  Fe125     1.0  0.83995  0.33089  0.15307  1.0000
  S   S250      1.0  0.80376  0.33488  0.13731  1.0000
  Fe  Fe126     1.0  0.90233  0.35468  0.14960  1.0000
  S   S251      1.0  0.93878  0.38361  0.11897  1.0000
  S   S252      1.0  0.83537  0.30523  0.19574  1.0000
  S   S253      1.0  0.90257  0.33154  0.19289  1.0000
  Fe  Fe127     1.0  0.79045  0.41135  0.34362  1.0000
  S   S254      1.0  0.81688  0.41915  0.38661  1.0000
  S   S255      1.0  0.80434  0.41482  0.29252  1.0000
  Fe  Fe128     1.0  0.73811  0.38974  0.38297  1.0000
  S   S256      1.0  0.76020  0.39388  0.42863  1.0000
  S   S257      1.0  0.69280  0.37465  0.37677  1.0000
  Fe  Fe129     1.0  0.79156  0.43535  0.40934  1.0000
  S   S258      1.0  0.80202  0.46971  0.44474  1.0000
  Fe  Fe130     1.0  0.78334  0.37736  0.40190  1.0000
  S   S259      1.0  0.79760  0.34771  0.41604  1.0000
  S   S260      1.0  0.76818  0.43153  0.36459  1.0000
  S   S261      1.0  0.75815  0.36915  0.35802  1.0000
  S   S262      1.0  0.65406  0.31248  0.19306  1.0000
  H   H1882     1.0  0.60919  0.26953  0.27070  1.0000
  H   H1883     1.0  0.75869  0.28000  0.21195  1.0000
  H   H1884     1.0  0.84340  0.25488  0.29219  1.0000
  Fe  Fe131     1.0  0.56789  0.41878  0.45234  1.0000
  H   H1885     1.0  0.96997  0.27707  0.08139  1.0000
  S   S263      1.0  0.58025  0.45258  0.41555  1.0000
  H   H1886     1.0  0.61385  0.27865  0.32876  1.0000
  H   H1887     1.0  0.71308  0.43505  0.36189  1.0000
  S   S264      1.0  0.56914  0.38098  0.43773  1.0000
  C   C1063     1.0  0.97765  0.34010  0.42169  1.0000
  H   H1888     1.0  0.83801  0.43018  0.19237  1.0000
  H   H1889     1.0  0.60257  0.47978  0.47573  1.0000
  H   H1890     1.0  0.92993  0.49766  0.22785  1.0000
  H   H1891     1.0  0.71977  0.36633  0.20025  1.0000
  H   H1892     1.0  0.52471  0.43318  0.38431  1.0000
  H   H1893     1.0  0.69623  0.31041  0.40125  1.0000
  H   H1894     1.0  0.83503  0.32701  0.32670  1.0000
  H   H1895     1.0  0.73806  0.26471  0.24696  1.0000
  N   N57       1.0  0.94862  0.31326  0.07649  1.0000
  H   H1896     1.0  0.98118  0.29340  0.04298  1.0000
  C   C1064     1.0  0.99496  0.40176  0.30715  1.0000
  H   H1897     1.0  0.66736  0.32993  0.07871  1.0000
  S   S265      1.0  0.52581  0.39468  0.47412  1.0000
  C   C1065     1.0  0.67474  0.37710  0.40953  1.0000
  C   C1066     1.0  0.68791  0.38811  0.43827  1.0000
  H   H1898     1.0  0.87389  0.31068  0.05442  1.0000
  C   C1067     1.0  0.64480  0.38006  0.46141  1.0000
  C   C1068     1.0  0.63161  0.36909  0.43266  1.0000
  C   C1069     1.0  0.64655  0.36760  0.40679  1.0000
  H   H1899     1.0  0.70963  0.39557  0.44063  1.0000
  H   H1900     1.0  0.60054  0.38244  0.33623  1.0000
  H   H1901     1.0  0.60983  0.36136  0.43054  1.0000
  H   H1902     1.0  0.63622  0.35890  0.38468  1.0000
  C   C1070     1.0  0.77402  0.31331  0.42548  1.0000
  C   C1071     1.0  0.74594  0.30386  0.42861  1.0000
  C   C1072     1.0  0.72784  0.27630  0.43665  1.0000
  H   H1903     1.0  0.64668  0.41188  0.35809  1.0000
  C   C1073     1.0  0.77307  0.49547  0.07887  1.0000
  C   C1074     1.0  0.78379  0.29502  0.42994  1.0000
  H   H1904     1.0  0.73840  0.31798  0.42563  1.0000
  H   H1905     1.0  0.88757  0.33450  0.02177  1.0000
  C   C1075     1.0  0.77216  0.30411  0.13561  1.0000
  C   C1076     1.0  0.76987  0.28111  0.12036  1.0000
  H   H1906     1.0  0.92691  0.33365  0.09231  1.0000
  C   C1077     1.0  0.67463  0.26025  0.31413  1.0000
  H   H1907     1.0  0.70636  0.48545  0.35196  1.0000
  C   C1078     1.0  0.74871  0.30306  0.14846  1.0000
  H   H1908     1.0  0.78781  0.28210  0.10965  1.0000
  Fe  Fe132     1.0  0.58867  0.38476  0.48513  1.0000
  H   H1909     1.0  0.75041  0.32073  0.16033  1.0000
  C   C1079     1.0  0.85250  0.37082  0.27183  1.0000
  C   C1080     1.0  0.85179  0.37978  0.30254  1.0000
  C   C1081     1.0  0.83640  0.39255  0.30919  1.0000
  C   C1082     1.0  0.82239  0.39733  0.28494  1.0000
  C   C1083     1.0  0.82322  0.38853  0.25412  1.0000
  C   C1084     1.0  0.83764  0.37464  0.24777  1.0000
  H   H1910     1.0  0.86329  0.37701  0.32129  1.0000
  H   H1911     1.0  0.83594  0.39925  0.33301  1.0000
  H   H1912     1.0  0.81221  0.39190  0.23530  1.0000
  H   H1913     1.0  0.83758  0.36728  0.22414  1.0000
  C   C1085     1.0  0.54178  0.39321  0.11769  1.0000
  C   C1086     1.0  0.52944  0.38442  0.08803  1.0000
  H   H1914     1.0  0.63199  0.43162  0.34231  1.0000
  C   C1087     1.0  0.97310  0.39159  0.12547  1.0000
  H   H1915     1.0  0.94105  0.41441  0.26094  1.0000
  H   H1916     1.0  0.99788  0.27212  0.11999  1.0000
  H   H1917     1.0  0.54199  0.39105  0.06685  1.0000
  C   C1088     1.0  0.56301  0.34546  0.09024  1.0000
  H   H1918     1.0  0.96497  0.36848  0.16873  1.0000
  H   H1919     1.0  0.53443  0.39121  0.16801  1.0000
  C   C1089     1.0  0.65915  0.35906  0.10170  1.0000
  C   C1090     1.0  0.65411  0.36763  0.13074  1.0000
  C   C1091     1.0  0.65318  0.35369  0.15888  1.0000
  C   C1092     1.0  0.65657  0.33068  0.15798  1.0000
  C   C1093     1.0  0.66177  0.32232  0.12898  1.0000
  C   C1094     1.0  0.66322  0.33653  0.10103  1.0000
  H   H1920     1.0  0.65094  0.38497  0.13155  1.0000
  H   H1921     1.0  0.64941  0.36053  0.18123  1.0000
  H   H1922     1.0  0.66538  0.30529  0.12807  1.0000
  H   H1923     1.0  0.73075  0.33548  0.23009  1.0000
  H   H1924     1.0  0.74389  0.44541  0.12651  1.0000
  C   C1095     1.0  0.82541  0.46924  0.02684  1.0000
  C   C1096     1.0  0.63518  0.43171  0.39466  1.0000
  C   C1097     1.0  0.65984  0.46914  0.43179  1.0000
  H   H1925     1.0  0.65925  0.26941  0.37270  1.0000
  H   H1926     1.0  0.92182  0.27014  0.06679  1.0000
  C   C1098     1.0  0.68618  0.45892  0.39322  1.0000
  C   C1099     1.0  0.65950  0.45014  0.45864  1.0000
  H   H1927     1.0  0.83202  0.46138  0.12532  1.0000
  C   C1100     1.0  0.77147  0.31571  0.31385  1.0000
  C   C1101     1.0  0.59969  0.27132  0.07754  1.0000
  H   H1928     1.0  0.80553  0.30239  0.42829  1.0000
  N   N58       1.0  0.79649  0.28866  0.32684  1.0000
  H   H1929     1.0  0.76516  0.37901  0.09216  1.0000
  H   H1930     1.0  0.98113  0.41043  0.30480  1.0000
  H   H1931     1.0  0.63595  0.41704  0.41160  1.0000
  H   H1932     1.0  0.61628  0.43239  0.40078  1.0000
  H   H1933     1.0  0.76890  0.40517  0.19456  1.0000
  C   C1102     1.0  0.52509  0.38447  0.14497  1.0000
  C   C1103     1.0  0.83672  0.30394  0.36664  1.0000
  Fe  Fe133     1.0  0.64069  0.26782  0.18540  1.0000
  C   C1104     1.0  0.51005  0.41122  0.38928  1.0000
  H   H1934     1.0  0.86955  0.41558  0.20875  1.0000
  H   H1935     1.0  0.70622  0.26918  0.43974  1.0000
  C   C1105     1.0  0.85872  0.32914  0.38394  1.0000
  H   H1936     1.0  0.67490  0.44369  0.45449  1.0000
  H   H1937     1.0  0.63888  0.43166  0.46026  1.0000
  H   H1938     1.0  0.62108  0.28455  0.08555  1.0000
  H   H1939     1.0  0.90583  0.48655  0.16043  1.0000
  H   H1940     1.0  0.72868  0.43321  0.05393  1.0000
  C   C1106     1.0  0.62672  0.27093  0.31781  1.0000
  C   C1107     1.0  0.87950  0.43612  0.19743  1.0000
  H   H1941     1.0  0.57371  0.34596  0.13882  1.0000
  C   C1108     1.0  0.91938  0.43306  0.23922  1.0000
  H   H1942     1.0  0.71253  0.26833  0.29120  1.0000
  H   H1943     1.0  0.81274  0.32354  0.35815  1.0000
  C   C1109     1.0  0.74838  0.49731  0.47063  1.0000
  C   C1110     1.0  0.57185  0.33376  0.11737  1.0000
  C   C1111     1.0  0.93123  0.28768  0.13030  1.0000
  C   C1112     1.0  0.99235  0.36528  0.40021  1.0000
  H   H1944     1.0  0.93696  0.44636  0.22367  1.0000
  H   H1945     1.0  0.98247  0.37921  0.30428  1.0000
  C   C1113     1.0  0.97264  0.33820  0.06152  1.0000
  H   H1946     1.0  0.92382  0.26753  0.11890  1.0000
  H   H1947     1.0  0.71866  0.25448  0.36488  1.0000
  H   H1948     1.0  0.72081  0.39809  0.05210  1.0000
  C   C1114     1.0  0.91259  0.49895  0.18234  1.0000
  H   H1949     1.0  0.84281  0.47462  0.28248  1.0000
  H   H1950     1.0  0.95658  0.34316  0.48630  1.0000
  H   H1951     1.0  0.85786  0.26380  0.10837  1.0000
  H   H1952     1.0  0.75291  0.33868  0.29535  1.0000
  C   C1115     1.0  0.58258  0.28409  0.12708  1.0000
  C   C1116     1.0  0.85629  0.43587  0.17727  1.0000
  H   H1953     1.0  0.83116  0.41518  0.13627  1.0000
  C   C1117     1.0  0.81090  0.45337  0.99630  1.0000
  H   H1954     1.0  0.80420  0.31610  0.28722  1.0000
  N   N59       1.0  0.75087  0.40089  0.14812  1.0000
  H   H1955     1.0  0.74304  0.42493  0.18206  1.0000
  H   H1956     1.0  0.80199  0.44392  0.17318  1.0000
  H   H1957     1.0  0.72311  0.25332  0.20864  1.0000
  H   H1958     1.0  0.91069  0.30738  0.02576  1.0000
  H   H1959     1.0  0.91389  0.29161  0.13306  1.0000
  H   H1960     1.0  0.63555  0.28095  0.38133  1.0000
  C   C1118     1.0  0.74761  0.35459  0.21954  1.0000
  H   H1961     1.0  0.75573  0.37071  0.23804  1.0000
  H   H1962     1.0  0.71881  0.34464  0.07178  1.0000
  H   H1963     1.0  0.77060  0.42935  0.10921  1.0000
  H   H1964     1.0  0.71217  0.41464  0.11822  1.0000
  H   H1965     1.0  0.78011  0.34054  0.27121  1.0000
  H   H1966     1.0  0.99086  0.38211  0.41172  1.0000
  H   H1967     1.0  0.76648  0.49436  0.46968  1.0000
  H   H1968     1.0  0.76907  0.28556  0.36469  1.0000
  H   H1969     1.0  0.72952  0.46131  0.33214  1.0000
  H   H1970     1.0  0.71476  0.36306  0.13501  1.0000
  H   H1971     1.0  0.93400  0.34321  0.03250  1.0000
  N   N60       1.0  0.66004  0.45982  0.39830  1.0000
  H   H1972     1.0  0.85031  0.46830  0.06540  1.0000
  C   C1119     1.0  0.73658  0.36323  0.19138  1.0000
  H   H1973     1.0  0.78973  0.41499  0.12456  1.0000
  C   C1120     1.0  0.74919  0.36479  0.10904  1.0000
  H   H1974     1.0  0.71356  0.32378  0.10677  1.0000
  C   C1121     1.0  0.82015  0.31190  0.34392  1.0000
  H   H1975     1.0  0.59249  0.33682  0.11181  1.0000
  H   H1976     1.0  0.84563  0.50087  0.39845  1.0000
  H   H1977     1.0  0.86479  0.41886  0.13517  1.0000
  H   H1978     1.0  0.75277  0.30175  0.32755  1.0000
  H   H1979     1.0  0.62533  0.25493  0.33430  1.0000
  C   C1122     1.0  0.61239  0.25592  0.28686  1.0000
  H   H1980     1.0  0.98803  0.41650  0.08328  1.0000
  H   H1981     1.0  0.59420  0.28344  0.19053  1.0000
  H   H1982     1.0  0.97283  0.30836  0.11343  1.0000
  H   H1983     1.0  0.90621  0.41363  0.22649  1.0000
  H   H1984     1.0  0.68204  0.45105  0.34136  1.0000
  C   C1123     1.0  0.76233  0.32683  0.28622  1.0000
  C   C1124     1.0  0.80503  0.27011  0.31113  1.0000
  C   C1125     1.0  0.73317  0.41176  0.16105  1.0000
  C   C1126     1.0  0.94080  0.28594  0.16366  1.0000
  H   H1985     1.0  0.86259  0.45599  0.16635  1.0000
  C   C1127     1.0  0.99627  0.27126  0.44941  1.0000
  C   C1128     1.0  0.67292  0.38935  0.46421  1.0000
  H   H1986     1.0  0.87330  0.34446  0.36671  1.0000
  H   H1987     1.0  0.77597  0.47794  0.07980  1.0000
  H   H1988     1.0  0.78518  0.33323  0.32917  1.0000
  H   H1989     1.0  0.54189  0.34159  0.09429  1.0000
  C   C1129     1.0  0.76563  0.45204  0.00268  1.0000
  H   H1990     1.0  0.67820  0.48954  0.43604  1.0000
  Fe  Fe134     1.0  0.52926  0.35745  0.46423  1.0000
  H   H1991     1.0  0.89743  0.34670  0.06164  1.0000
  H   H1992     1.0  0.96027  0.33049  0.12320  1.0000
  C   C1130     1.0  0.88331  0.48666  0.26319  1.0000
  C   C1131     1.0  0.79412  0.44905  0.15169  1.0000
  C   C1132     1.0  0.72311  0.27903  0.14655  1.0000
  C   C1133     1.0  0.98043  0.38140  0.15165  1.0000
  C   C1134     1.0  0.91662  0.32437  0.04273  1.0000
  H   H1993     1.0  0.94493  0.29463  0.48494  1.0000
  C   C1135     1.0  0.63095  0.41800  0.36186  1.0000
  H   H1994     1.0  0.84168  0.49041  0.02060  1.0000
  H   H1995     1.0  0.90523  0.29843  0.08384  1.0000
  C   C1136     1.0  0.72550  0.42805  0.13744  1.0000
  H   H1996     1.0  0.66724  0.28855  0.42595  1.0000
  H   H1997     1.0  0.76909  0.46866  0.01947  1.0000
  C   C1137     1.0  0.76562  0.26731  0.43690  1.0000
  H   H1998     1.0  0.70521  0.27850  0.15660  1.0000
  C   C1138     1.0  0.73437  0.37890  0.12431  1.0000
  H   H1999     1.0  0.98045  0.27527  0.44106  1.0000
  C   C1139     1.0  0.72095  0.45706  0.35655  1.0000
  H   H2000     1.0  0.77314  0.28500  0.28446  1.0000
  H   H2001     1.0  0.74116  0.25345  0.31471  1.0000
  H   H2002     1.0  0.60333  0.30168  0.13208  1.0000
  H   H2003     1.0  0.97103  0.35683  0.06615  1.0000
  C   C1140     1.0  0.74416  0.25709  0.11813  1.0000
  H   H2004     1.0  0.95594  0.33472  0.42507  1.0000
  C   C1141     1.0  0.77613  0.42305  0.13181  1.0000
  C   C1142     1.0  0.72919  0.33932  0.09058  1.0000
  N   N61       1.0  0.65592  0.29409  0.31448  1.0000
  C   C1143     1.0  0.60289  0.39204  0.35979  1.0000
  C   C1144     1.0  0.66695  0.30696  0.34649  1.0000
  C   C1145     1.0  0.65559  0.31564  0.29332  1.0000
  C   C1146     1.0  0.67434  0.28514  0.29915  1.0000
  C   C1147     1.0  0.96326  0.27868  0.05730  1.0000
  H   H2005     1.0  0.93233  0.47718  0.19816  1.0000
  C   C1148     1.0  0.68361  0.34239  0.28871  1.0000
  C   C1149     1.0  0.65742  0.28784  0.37605  1.0000
  C   C1150     1.0  0.67406  0.30276  0.40534  1.0000
  H   H2006     1.0  0.82354  0.43496  0.05307  1.0000
  H   H2007     1.0  0.97213  0.33606  0.03527  1.0000
  C   C1151     1.0  0.68026  0.36346  0.26929  1.0000
  H   H2008     1.0  0.98108  0.35996  0.37741  1.0000
  H   H2009     1.0  0.59136  0.27487  0.44590  1.0000
  H   H2010     1.0  0.68983  0.31861  0.34621  1.0000
  H   H2011     1.0  0.66063  0.32235  0.35178  1.0000
  H   H2012     1.0  0.64062  0.32142  0.30258  1.0000
  H   H2013     1.0  0.64858  0.30756  0.26904  1.0000
  H   H2014     1.0  0.66921  0.28075  0.27356  1.0000
  H   H2015     1.0  0.69603  0.30210  0.29945  1.0000
  H   H2016     1.0  0.81212  0.47625  0.11097  1.0000
  C   C1152     1.0  0.83914  0.45566  0.04458  1.0000
  H   H2017     1.0  0.58916  0.30567  0.44137  1.0000
  C   C1153     1.0  0.59464  0.31038  0.22705  1.0000
  H   H2018     1.0  0.69825  0.33820  0.27572  1.0000
  H   H2019     1.0  0.69295  0.35200  0.31167  1.0000
  C   C1154     1.0  0.84724  0.41464  0.15087  1.0000
  H   H2020     1.0  0.91403  0.41301  0.28514  1.0000
  H   H2021     1.0  0.57693  0.36789  0.08912  1.0000
  H   H2022     1.0  0.78154  0.26273  0.36858  1.0000
  H   H2023     1.0  0.52240  0.26349  0.16848  1.0000
  H   H2024     1.0  0.58304  0.26599  0.13707  1.0000
  H   H2025     1.0  0.56415  0.33645  0.06736  1.0000
  C   C1155     1.0  0.00189  0.34613  0.07318  1.0000
  C   C1156     1.0  0.57238  0.30413  0.17334  1.0000
  C   C1157     1.0  0.95469  0.31096  0.11087  1.0000
  C   C1158     1.0  0.60185  0.29719  0.45071  1.0000
  H   H2026     1.0  0.70062  0.38210  0.26586  1.0000
  H   H2027     1.0  0.67151  0.35513  0.24561  1.0000
  H   H2028     1.0  0.66666  0.36936  0.28186  1.0000
  H   H2029     1.0  0.54298  0.29331  0.10006  1.0000
  C   C1159     1.0  0.75965  0.38964  0.17545  1.0000
  C   C1160     1.0  0.72080  0.25584  0.13173  1.0000
  C   C1161     1.0  0.51640  0.28833  0.44945  1.0000
  C   C1162     1.0  0.93081  0.42600  0.26834  1.0000
  H   H2030     1.0  0.83138  0.48853  0.14701  1.0000
  H   H2031     1.0  0.72252  0.45405  0.17357  1.0000
  H   H2032     1.0  0.69033  0.42348  0.16444  1.0000
  H   H2033     1.0  0.77633  0.38562  0.16816  1.0000
  C   C1163     1.0  0.92396  0.31721  0.07558  1.0000
  H   H2034     1.0  0.72934  0.47167  0.08718  1.0000
  S   S266      1.0  0.63604  0.47011  0.06075  1.0000
  H   H2035     1.0  0.72769  0.34588  0.17453  1.0000
  H   H2036     1.0  0.75923  0.35838  0.12692  1.0000
  H   H2037     1.0  0.68345  0.43896  0.40182  1.0000
  H   H2038     1.0  0.70310  0.47465  0.40789  1.0000
  C   C1164     1.0  0.89237  0.32932  0.04544  1.0000
  C   C1165     1.0  0.83646  0.26372  0.27321  1.0000
  H   H2039     1.0  0.78243  0.45911  0.15917  1.0000
  H   H2040     1.0  0.82338  0.29312  0.26706  1.0000
  H   H2041     1.0  0.53439  0.30678  0.44128  1.0000
  H   H2042     1.0  0.85411  0.45397  0.02894  1.0000
  H   H2043     1.0  0.77024  0.42994  0.04316  1.0000
  C   C1166     1.0  0.82906  0.28419  0.28709  1.0000
  H   H2044     1.0  0.70503  0.45203  0.13727  1.0000
  H   H2045     1.0  0.72799  0.38735  0.10437  1.0000
  H   H2046     1.0  0.52998  0.32437  0.02533  1.0000
  H   H2047     1.0  0.71215  0.41269  0.01936  1.0000
  C   C1167     1.0  0.94146  0.28767  0.05808  1.0000
  H   H2048     1.0  0.87033  0.32306  0.40012  1.0000
  H   H2049     1.0  0.67117  0.32034  0.41117  1.0000
  H   H2050     1.0  0.71336  0.39464  0.17001  1.0000
  H   H2051     1.0  0.64171  0.47180  0.43555  1.0000
  C   C1168     1.0  0.75574  0.42596  0.02342  1.0000
  C   C1169     1.0  0.70988  0.44004  0.15434  1.0000
  H   H2052     1.0  0.74715  0.30996  0.27123  1.0000
  H   H2053     1.0  0.84916  0.33868  0.39828  1.0000
  H   H2054     1.0  0.60078  0.37704  0.37825  1.0000
  H   H2055     1.0  0.94801  0.30558  0.17636  1.0000
  H   H2056     1.0  0.75407  0.40850  0.00982  1.0000
  C   C1170     1.0  0.72770  0.41709  0.03806  1.0000
  H   H2057     1.0  0.80117  0.43120  0.00153  1.0000
  C   C1171     1.0  0.99350  0.40846  0.10357  1.0000
  H   H2058     1.0  0.52123  0.39972  0.38706  1.0000
  C   C1172     1.0  0.69781  0.46370  0.35897  1.0000
  N   N62       1.0  0.89307  0.45822  0.22226  1.0000
  C   C1173     1.0  0.87263  0.46529  0.23613  1.0000
  C   C1174     1.0  0.60159  0.48738  0.42590  1.0000
  C   C1175     1.0  0.90270  0.44709  0.24896  1.0000
  C   C1176     1.0  0.91792  0.48305  0.20871  1.0000
  H   H2059     1.0  0.73774  0.46969  0.37336  1.0000
  C   C1177     1.0  0.74225  0.26063  0.22258  1.0000
  H   H2060     1.0  0.55766  0.30974  0.18384  1.0000
  H   H2061     1.0  0.95758  0.28100  0.16268  1.0000
  C   C1178     1.0  0.51669  0.26358  0.45128  1.0000
  H   H2062     1.0  0.74053  0.33014  0.07930  1.0000
  H   H2063     1.0  0.58091  0.31716  0.23747  1.0000
  H   H2064     1.0  0.93749  0.29021  0.03287  1.0000
  H   H2065     1.0  0.85458  0.44641  0.24565  1.0000
  H   H2066     1.0  0.86413  0.47301  0.21774  1.0000
  H   H2067     1.0  0.98774  0.34430  0.44523  1.0000
  C   C1179     1.0  0.74668  0.49186  0.08303  1.0000
  H   H2068     1.0  0.88480  0.43176  0.26313  1.0000
  H   H2069     1.0  0.91578  0.46369  0.26577  1.0000
  H   H2070     1.0  0.84776  0.30077  0.29836  1.0000
  H   H2071     1.0  0.60017  0.30027  0.24583  1.0000
  C   C1180     1.0  0.81889  0.46997  0.13253  1.0000
  C   C1181     1.0  0.55056  0.30315  0.12337  1.0000
  C   C1182     1.0  0.73765  0.25796  0.44072  1.0000
  C   C1183     1.0  0.77422  0.27208  0.35065  1.0000
  H   H2072     1.0  0.58622  0.39699  0.36282  1.0000
  H   H2073     1.0  0.53239  0.30255  0.13481  1.0000
  H   H2074     1.0  0.89521  0.43637  0.18110  1.0000
  H   H2075     1.0  0.62185  0.30731  0.43801  1.0000
  H   H2076     1.0  0.82334  0.28893  0.38475  1.0000
  H   H2077     1.0  0.83855  0.39375  0.16111  1.0000
  H   H2078     1.0  0.81033  0.25908  0.32922  1.0000
  H   H2079     1.0  0.76417  0.35059  0.21182  1.0000
  H   H2080     1.0  0.88884  0.47868  0.28432  1.0000
  H   H2081     1.0  0.59139  0.32382  0.16787  1.0000
  H   H2082     1.0  0.92337  0.26950  0.17721  1.0000
  H   H2083     1.0  0.63624  0.47674  0.37845  1.0000
  N   N63       1.0  0.56065  0.28774  0.14339  1.0000
  H   H2084     1.0  0.99235  0.40066  0.35782  1.0000
  H   H2085     1.0  0.81077  0.47073  0.04315  1.0000
  H   H2086     1.0  0.58771  0.30181  0.07937  1.0000
  H   H2087     1.0  0.61378  0.32857  0.21861  1.0000
  H   H2088     1.0  0.65865  0.47465  0.35107  1.0000
  H   H2089     1.0  0.94604  0.44491  0.28062  1.0000
  C   C1184     1.0  0.58101  0.28150  0.09036  1.0000
  H   H2090     1.0  0.84728  0.29489  0.35345  1.0000
  H   H2091     1.0  0.56181  0.27250  0.21012  1.0000
  H   H2092     1.0  0.53497  0.26303  0.44466  1.0000
  C   C1185     1.0  0.58029  0.29037  0.19989  1.0000
  H   H2093     1.0  0.85543  0.50227  0.25378  1.0000
  C   C1186     1.0  0.65718  0.47937  0.37619  1.0000
  C   C1187     1.0  0.86132  0.49334  0.27370  1.0000
  H   H2094     1.0  0.97795  0.32228  0.41100  1.0000
  H   H2095     1.0  0.59946  0.27153  0.05124  1.0000
  C   C1188     1.0  0.53660  0.26037  0.15288  1.0000
  H   H2096     1.0  0.85340  0.27428  0.25574  1.0000
  C   C1189     1.0  0.60974  0.49511  0.45721  1.0000
  H   H2097     1.0  0.73775  0.49147  0.44747  1.0000
  H   H2098     1.0  0.56004  0.26731  0.08187  1.0000
  H   H2099     1.0  0.60481  0.50185  0.37785  1.0000
  C   C1190     1.0  0.00194  0.25498  0.11635  1.0000
  C   C1191     1.0  0.50756  0.31439  0.02107  1.0000
  S   S267      1.0  0.86058  0.25403  0.17546  1.0000
  H   H2100     1.0  0.81024  0.50162  0.00127  1.0000
  H   H2101     1.0  0.77338  0.25338  0.44035  1.0000
  H   H2102     1.0  0.68322  0.39771  0.48645  1.0000
  H   H2103     1.0  0.78747  0.25367  0.29785  1.0000
  C   C1192     1.0  0.60670  0.30266  0.48622  1.0000
  H   H2104     1.0  0.00541  0.32855  0.07385  1.0000
  H   H2105     1.0  0.00503  0.35455  0.09754  1.0000
  H   H2106     1.0  0.74804  0.44924  0.98787  1.0000
  Fe  Fe135     1.0  0.82826  0.44815  0.85643  1.0000
  S   S268      1.0  0.84923  0.46016  0.90392  1.0000
  Fe  Fe136     1.0  0.77431  0.41446  0.82166  1.0000
  S   S269      1.0  0.79278  0.43374  0.77460  1.0000
  S   S270      1.0  0.73045  0.38200  0.83295  1.0000
  Fe  Fe137     1.0  0.82786  0.42749  0.78937  1.0000
  S   S271      1.0  0.84325  0.41046  0.75058  1.0000
  Fe  Fe138     1.0  0.81466  0.47336  0.80137  1.0000
  S   S272      1.0  0.80806  0.40602  0.83502  1.0000
  S   S273      1.0  0.79293  0.45481  0.84708  1.0000
  Fe  Fe139     1.0  0.54785  0.39642  0.51894  1.0000
  S   S274      1.0  0.53386  0.40341  0.56611  1.0000
  Fe  Fe140     1.0  0.94324  0.34989  0.72770  1.0000
  S   S275      1.0  0.91870  0.32597  0.68555  1.0000
  S   S276      1.0  0.93819  0.38100  0.75685  1.0000
  Fe  Fe141     1.0  0.97631  0.32042  0.72929  1.0000
  S   S277      1.0  0.95358  0.29371  0.68834  1.0000
  C   C1193     1.0  0.55931  0.39028  0.63886  1.0000
  Fe  Fe142     1.0  0.95868  0.33201  0.66608  1.0000
  S   S278      1.0  0.96918  0.33492  0.61385  1.0000
  Fe  Fe143     1.0  0.91586  0.28968  0.71126  1.0000
  H   H2107     1.0  0.00257  0.27087  0.62380  1.0000
  S   S279      1.0  0.98376  0.35933  0.70585  1.0000
  S   S280      1.0  0.93809  0.31304  0.75461  1.0000
  S   S281      1.0  0.64964  0.31509  0.72078  1.0000
  H   H2108     1.0  0.55064  0.41102  0.68586  1.0000
  C   C1194     1.0  0.93706  0.28687  0.53641  1.0000
  H   H2109     1.0  0.77547  0.26854  0.76915  1.0000
  H   H2110     1.0  0.83003  0.26990  0.72903  1.0000
  H   H2111     1.0  0.57651  0.31712  0.72500  1.0000
  C   C1195     1.0  0.76777  0.41617  0.94795  1.0000
  H   H2112     1.0  0.62160  0.29927  0.54732  1.0000
  H   H2113     1.0  0.53663  0.29028  0.75905  1.0000
  N   N64       1.0  0.68864  0.26960  0.80758  1.0000
  H   H2114     1.0  0.56127  0.40944  0.76001  1.0000
  C   C1196     1.0  0.65878  0.49121  0.95580  1.0000
  C   C1197     1.0  0.51459  0.33105  0.63953  1.0000
  H   H2115     1.0  0.89778  0.46378  0.78043  1.0000
  H   H2116     1.0  0.75261  0.38372  0.91291  1.0000
  H   H2117     1.0  0.58184  0.44039  0.60498  1.0000
  H   H2118     1.0  0.59005  0.36994  0.56690  1.0000
  H   H2119     1.0  0.70797  0.31680  0.85265  1.0000
  H   H2120     1.0  0.65129  0.49655  0.84607  1.0000
  H   H2121     1.0  0.97399  0.44963  0.71026  1.0000
  H   H2122     1.0  0.63834  0.48518  0.91094  1.0000
  C   C1198     1.0  0.54085  0.40385  0.75012  1.0000
  H   H2123     1.0  0.79884  0.27659  0.80093  1.0000
  H   H2124     1.0  0.82679  0.28410  0.65912  1.0000
  C   C1199     1.0  0.86743  0.39931  0.75426  1.0000
  C   C1200     1.0  0.88278  0.40372  0.78181  1.0000
  C   C1201     1.0  0.90385  0.39715  0.78260  1.0000
  C   C1202     1.0  0.90918  0.38537  0.75624  1.0000
  C   C1203     1.0  0.89287  0.37967  0.72922  1.0000
  C   C1204     1.0  0.87232  0.38695  0.72814  1.0000
  H   H2125     1.0  0.87890  0.41283  0.80217  1.0000
  H   H2126     1.0  0.91637  0.40159  0.80360  1.0000
  H   H2127     1.0  0.89704  0.37095  0.70863  1.0000
  H   H2128     1.0  0.86055  0.38353  0.70668  1.0000
  C   C1205     1.0  0.70838  0.36285  0.80174  1.0000
  C   C1206     1.0  0.68132  0.34241  0.80860  1.0000
  C   C1207     1.0  0.66316  0.32718  0.78409  1.0000
  C   C1208     1.0  0.67194  0.33254  0.75253  1.0000
  C   C1209     1.0  0.69904  0.35283  0.74575  1.0000
  C   C1210     1.0  0.71726  0.36779  0.77024  1.0000
  H   H2129     1.0  0.67428  0.33860  0.83292  1.0000
  H   H2130     1.0  0.64223  0.31177  0.78952  1.0000
  H   H2131     1.0  0.70593  0.35715  0.72139  1.0000
  H   H2132     1.0  0.73801  0.38345  0.76465  1.0000
  H   H2133     1.0  0.55442  0.27581  0.58091  1.0000
  H   H2134     1.0  0.97418  0.31524  0.50938  1.0000
  H   H2135     1.0  0.98023  0.26751  0.65604  1.0000
  H   H2136     1.0  0.73619  0.46924  0.90098  1.0000
  H   H2137     1.0  0.73277  0.29489  0.80359  1.0000
  H   H2138     1.0  0.89863  0.49050  0.60914  1.0000
  H   H2139     1.0  0.71216  0.43178  0.94071  1.0000
  C   C1211     1.0  0.71497  0.29645  0.81251  1.0000
  C   C1212     1.0  0.88238  0.48253  0.72766  1.0000
  H   H2140     1.0  0.72430  0.25872  0.84921  1.0000
  N   N65       1.0  0.71916  0.48629  0.86778  1.0000
  C   C1213     1.0  0.53299  0.38269  0.72385  1.0000
  H   H2141     1.0  0.80098  0.45622  0.93394  1.0000
  H   H2142     1.0  0.60377  0.37077  0.60573  1.0000
  H   H2143     1.0  0.67057  0.28241  0.77061  1.0000
  H   H2144     1.0  0.75552  0.34760  0.83189  1.0000
  C   C1214     1.0  0.56169  0.34208  0.70276  1.0000
  H   H2145     1.0  0.89497  0.30044  0.80939  1.0000
  C   C1215     1.0  0.70184  0.27712  0.74765  1.0000
  H   H2146     1.0  0.54123  0.42254  0.74099  1.0000
  H   H2147     1.0  0.99520  0.29336  0.51467  1.0000
  C   C1216     1.0  0.58919  0.41493  0.63797  1.0000
  H   H2148     1.0  0.59170  0.41768  0.58634  1.0000
  H   H2149     1.0  0.51199  0.37703  0.71581  1.0000
  C   C1217     1.0  0.72011  0.47524  0.90030  1.0000
  C   C1218     1.0  0.59256  0.32414  0.54507  1.0000
  H   H2150     1.0  0.71469  0.31303  0.79828  1.0000
  H   H2151     1.0  0.54121  0.32386  0.69884  1.0000
  H   H2152     1.0  0.58139  0.33163  0.53002  1.0000
  H   H2153     1.0  0.90074  0.45068  0.83778  1.0000
  C   C1219     1.0  0.56955  0.36305  0.67552  1.0000
  H   H2154     1.0  0.62451  0.37569  0.57114  1.0000
  H   H2155     1.0  0.71668  0.29939  0.74874  1.0000
  H   H2156     1.0  0.66355  0.44963  0.50965  1.0000
  C   C1220     1.0  0.75113  0.33128  0.84954  1.0000
  H   H2157     1.0  0.59060  0.37989  0.68106  1.0000
  S   S282      1.0  0.57379  0.26380  0.69675  1.0000
  H   H2158     1.0  0.96267  0.46991  0.75474  1.0000
  H   H2159     1.0  0.94370  0.30018  0.55770  1.0000
  N   N66       1.0  0.58103  0.29379  0.54011  1.0000
  C   C1221     1.0  0.58237  0.33207  0.70524  1.0000
  H   H2160     1.0  0.52030  0.32381  0.75935  1.0000
  H   H2161     1.0  0.95177  0.45504  0.68410  1.0000
  C   C1222     1.0  0.66548  0.46431  0.49080  1.0000
  H   H2162     1.0  0.79077  0.49867  0.93300  1.0000
  N   N67       1.0  0.92989  0.49633  0.75254  1.0000
  H   H2163     1.0  0.92360  0.48527  0.85067  1.0000
  H   H2164     1.0  0.57190  0.35348  0.65363  1.0000
  H   H2165     1.0  0.75466  0.34045  0.87351  1.0000
  H   H2166     1.0  0.55771  0.37688  0.61874  1.0000
  C   C1223     1.0  0.99090  0.26544  0.73736  1.0000
  C   C1224     1.0  0.65518  0.49946  0.92557  1.0000
  H   H2167     1.0  0.60330  0.34938  0.71010  1.0000
  H   H2168     1.0  0.51334  0.34012  0.68881  1.0000
  S   S283      1.0  0.54893  0.35790  0.51044  1.0000
  C   C1225     1.0  0.55348  0.39420  0.69565  1.0000
  H   H2169     1.0  0.89966  0.33043  0.78864  1.0000
  H   H2170     1.0  0.74698  0.40726  0.95854  1.0000
  H   H2171     1.0  0.61688  0.44789  0.60665  1.0000
  H   H2172     1.0  0.61999  0.29446  0.49421  1.0000
  Fe  Fe144     1.0  0.61119  0.27373  0.72585  1.0000
  H   H2173     1.0  0.84562  0.27690  0.79936  1.0000
  N   N68       1.0  0.81831  0.29529  0.75606  1.0000
  C   C1226     1.0  0.59216  0.33347  0.57960  1.0000
  N   N69       1.0  0.79065  0.46051  0.98206  1.0000
  C   C1227     1.0  0.80811  0.31487  0.74829  1.0000
  C   C1228     1.0  0.84427  0.31065  0.77510  1.0000
  C   C1229     1.0  0.85895  0.29462  0.78401  1.0000
  C   C1230     1.0  0.84499  0.30701  0.70249  1.0000
  C   C1231     1.0  0.80015  0.32671  0.77694  1.0000
  C   C1232     1.0  0.88498  0.31250  0.80294  1.0000
  C   C1233     1.0  0.78253  0.44779  0.94957  1.0000
  C   C1234     1.0  0.78501  0.34139  0.76580  1.0000
  H   H2174     1.0  0.95230  0.34146  0.52859  1.0000
  H   H2175     1.0  0.76818  0.45327  0.93799  1.0000
  C   C1235     1.0  0.94548  0.32928  0.50642  1.0000
  S   S284      1.0  0.58976  0.42381  0.49836  1.0000
  H   H2176     1.0  0.79014  0.30484  0.73204  1.0000
  H   H2177     1.0  0.82403  0.33320  0.73551  1.0000
  H   H2178     1.0  0.85926  0.32974  0.76258  1.0000
  H   H2179     1.0  0.83996  0.31765  0.79787  1.0000
  H   H2180     1.0  0.91217  0.49636  0.79804  1.0000
  H   H2181     1.0  0.99219  0.29621  0.62927  1.0000
  H   H2182     1.0  0.83986  0.32290  0.69575  1.0000
  H   H2183     1.0  0.86552  0.31705  0.71376  1.0000
  H   H2184     1.0  0.81895  0.34199  0.78950  1.0000
  H   H2185     1.0  0.78675  0.31067  0.79417  1.0000
  H   H2186     1.0  0.51576  0.34063  0.61612  1.0000
  H   H2187     1.0  0.54516  0.39812  0.63305  1.0000
  C   C1236     1.0  0.59516  0.43112  0.60706  1.0000
  C   C1237     1.0  0.60329  0.36435  0.58083  1.0000
  H   H2188     1.0  0.50783  0.36132  0.66249  1.0000
  C   C1238     1.0  0.82326  0.28510  0.72506  1.0000
  H   H2189     1.0  0.79665  0.35634  0.74670  1.0000
  H   H2190     1.0  0.76444  0.32647  0.75662  1.0000
  H   H2191     1.0  0.78258  0.35275  0.78576  1.0000
  C   C1239     1.0  0.76395  0.40645  0.91361  1.0000
  H   H2192     1.0  0.82738  0.45742  0.97875  1.0000
  C   C1240     1.0  0.93124  0.47605  0.73020  1.0000
  H   H2193     1.0  0.95625  0.49185  0.80797  1.0000
  H   H2194     1.0  0.92947  0.48130  0.70514  1.0000
  H   H2195     1.0  0.70678  0.45646  0.96248  1.0000
  C   C1241     1.0  0.00308  0.35682  0.60059  1.0000
  H   H2196     1.0  0.63470  0.26320  0.55117  1.0000
  C   C1242     1.0  0.57916  0.28895  0.50476  1.0000
  C   C1243     1.0  0.69141  0.48352  0.86212  1.0000
  C   C1244     1.0  0.84684  0.29402  0.67155  1.0000
  C   C1245     1.0  0.72140  0.30819  0.84668  1.0000
  H   H2197     1.0  0.93759  0.43109  0.71669  1.0000
  C   C1246     1.0  0.68934  0.27142  0.71452  1.0000
  C   C1247     1.0  0.65799  0.48848  0.82611  1.0000
  H   H2198     1.0  0.88011  0.31978  0.82509  1.0000
  H   H2199     1.0  0.72615  0.49152  0.91856  1.0000
  C   C1248     1.0  0.96889  0.27136  0.55624  1.0000
  H   H2200     1.0  0.69355  0.48747  0.80984  1.0000
  H   H2201     1.0  0.57464  0.40459  0.70555  1.0000
  C   C1249     1.0  0.66635  0.26797  0.82899  1.0000
  C   C1250     1.0  0.79616  0.27172  0.77517  1.0000
  C   C1251     1.0  0.67944  0.26877  0.77369  1.0000
  H   H2202     1.0  0.76549  0.32342  0.84580  1.0000
  H   H2203     1.0  0.52903  0.32307  0.63960  1.0000
  H   H2204     1.0  0.97547  0.49320  0.72173  1.0000
  C   C1252     1.0  0.50613  0.30269  0.75380  1.0000
  H   H2205     1.0  0.88365  0.46932  0.70911  1.0000
  H   H2206     1.0  0.85307  0.27852  0.67619  1.0000
  H   H2207     1.0  0.84474  0.47747  0.70738  1.0000
  H   H2208     1.0  0.66408  0.28628  0.82505  1.0000
  H   H2209     1.0  0.60522  0.32895  0.59527  1.0000
  H   H2210     1.0  0.86496  0.28757  0.76257  1.0000
  H   H2211     1.0  0.59306  0.42933  0.65770  1.0000
  H   H2212     1.0  0.52544  0.39507  0.76954  1.0000
  H   H2213     1.0  0.92212  0.27402  0.59889  1.0000
  C   C1253     1.0  0.92252  0.46727  0.83864  1.0000
  H   H2214     1.0  0.67179  0.26873  0.85432  1.0000
  H   H2215     1.0  0.67809  0.28269  0.71057  1.0000
  H   H2216     1.0  0.89224  0.25821  0.77520  1.0000
  H   H2217     1.0  0.56915  0.26685  0.49910  1.0000
  H   H2218     1.0  0.60424  0.40775  0.63961  1.0000
  C   C1254     1.0  0.59272  0.25574  0.55266  1.0000
  C   C1255     1.0  0.72673  0.47258  0.84230  1.0000
  C   C1256     1.0  0.70639  0.44192  0.83629  1.0000
  S   S285      1.0  0.63642  0.45725  0.96886  1.0000
  C   C1257     1.0  0.69312  0.45074  0.91331  1.0000
  C   C1258     1.0  0.69807  0.43996  0.94445  1.0000
  C   C1259     1.0  0.71413  0.43240  0.80612  1.0000
  C   C1260     1.0  0.52105  0.35205  0.66645  1.0000
  C   C1261     1.0  0.55274  0.27877  0.55504  1.0000
  H   H2219     1.0  0.67475  0.46187  0.86329  1.0000
  H   H2220     1.0  0.58280  0.32185  0.68299  1.0000
  H   H2221     1.0  0.78420  0.41389  0.90198  1.0000
  H   H2222     1.0  0.73012  0.48372  0.81958  1.0000
  H   H2223     1.0  0.74676  0.47400  0.84764  1.0000
  H   H2224     1.0  0.68509  0.43764  0.83314  1.0000
  H   H2225     1.0  0.70713  0.42943  0.85624  1.0000
  H   H2226     1.0  0.71793  0.29264  0.86484  1.0000
  H   H2227     1.0  0.91335  0.45511  0.73418  1.0000
  H   H2228     1.0  0.67790  0.45733  0.91833  1.0000
  H   H2229     1.0  0.68383  0.43359  0.89632  1.0000
  C   C1262     1.0  0.95501  0.45104  0.70905  1.0000
  H   H2230     1.0  0.67823  0.42320  0.95373  1.0000
  N   N70       1.0  0.55065  0.37439  0.66967  1.0000
  H   H2231     1.0  0.73520  0.43553  0.80796  1.0000
  H   H2232     1.0  0.69959  0.41026  0.80247  1.0000
  H   H2233     1.0  0.71305  0.44377  0.78514  1.0000
  C   C1263     1.0  0.93483  0.47502  0.80531  1.0000
  C   C1264     1.0  0.51543  0.28369  0.75379  1.0000
  C   C1265     1.0  0.99353  0.27912  0.53363  1.0000
  H   H2234     1.0  0.77054  0.48472  0.76505  1.0000
  H   H2235     1.0  0.76797  0.49300  0.96601  1.0000
  H   H2236     1.0  0.61498  0.26180  0.84265  1.0000
  H   H2237     1.0  0.57110  0.32333  0.58960  1.0000
  S   S286      1.0  0.85125  0.46887  0.81215  1.0000
  H   H2238     1.0  0.75200  0.41386  0.90005  1.0000
  S   S287      1.0  0.62658  0.38179  0.49442  1.0000
  H   H2239     1.0  0.54250  0.29131  0.55307  1.0000
  H   H2240     1.0  0.56198  0.35164  0.72570  1.0000
  H   H2241     1.0  0.68683  0.49380  0.88154  1.0000
  H   H2242     1.0  0.87944  0.49251  0.95754  1.0000
  N   N71       1.0  0.94116  0.26259  0.54142  1.0000
  H   H2243     1.0  0.64424  0.46597  0.82456  1.0000
  H   H2244     1.0  0.61438  0.33587  0.53736  1.0000
  H   H2245     1.0  0.97462  0.28868  0.57287  1.0000
  C   C1266     1.0  0.95772  0.47390  0.73067  1.0000
  C   C1267     1.0  0.68776  0.49552  0.83058  1.0000
  H   H2246     1.0  0.86238  0.31005  0.65571  1.0000
  H   H2247     1.0  0.77947  0.40784  0.96012  1.0000
  H   H2248     1.0  0.65622  0.49799  0.80379  1.0000
  H   H2249     1.0  0.70587  0.27837  0.69645  1.0000
  H   H2250     1.0  0.53206  0.36433  0.73435  1.0000
  H   H2251     1.0  0.80360  0.27398  0.71174  1.0000
  H   H2252     1.0  0.61800  0.32513  0.48924  1.0000
  H   H2253     1.0  0.91482  0.27997  0.53399  1.0000
  H   H2254     1.0  0.60111  0.28971  0.58179  1.0000
  C   C1268     1.0  0.95173  0.30582  0.50767  1.0000
  C   C1269     1.0  0.60019  0.28594  0.55588  1.0000
  H   H2255     1.0  0.97224  0.26531  0.73102  1.0000
  H   H2256     1.0  0.65060  0.47133  0.49587  1.0000
  H   H2257     1.0  0.99513  0.33768  0.55498  1.0000
  C   C1270     1.0  0.91758  0.48306  0.78401  1.0000
  H   H2258     1.0  0.73415  0.48341  0.48915  1.0000
  C   C1271     1.0  0.99796  0.28238  0.64161  1.0000
  H   H2259     1.0  0.87093  0.46943  0.74804  1.0000
  H   H2260     1.0  0.93417  0.45995  0.85295  1.0000
  H   H2261     1.0  0.93482  0.45686  0.79534  1.0000
  C   C1272     1.0  0.86523  0.49443  0.71448  1.0000
  H   H2262     1.0  0.68662  0.48215  0.49134  1.0000
  H   H2263     1.0  0.56564  0.29603  0.49403  1.0000
  H   H2264     1.0  0.94006  0.25657  0.61067  1.0000
  H   H2265     1.0  0.99121  0.26034  0.52223  1.0000
  C   C1273     1.0  0.80534  0.49124  0.97781  1.0000
  C   C1274     1.0  0.85982  0.49423  0.91445  1.0000
  H   H2266     1.0  0.92314  0.32121  0.50320  1.0000
  H   H2267     1.0  0.52442  0.25401  0.51754  1.0000
  H   H2268     1.0  0.61986  0.25744  0.59057  1.0000
  H   H2269     1.0  0.71327  0.26596  0.75013  1.0000
  H   H2270     1.0  0.73399  0.49660  0.75682  1.0000
  H   H2271     1.0  0.96783  0.25446  0.57110  1.0000
  H   H2272     1.0  0.84233  0.50257  0.87346  1.0000
  H   H2273     1.0  0.95371  0.26018  0.49359  1.0000
  H   H2274     1.0  0.82545  0.49858  0.96584  1.0000
  C   C1275     1.0  0.92139  0.25401  0.59867  1.0000
  C   C1276     1.0  0.78977  0.50261  0.95856  1.0000
  Fe  Fe145     1.0  0.87933  0.62704  0.03832  1.0000
  S   S288      1.0  0.88464  0.60644  0.08110  1.0000
  S   S289      1.0  0.86502  0.65812  0.03625  1.0000
  H   H2275     1.0  0.54449  0.75077  0.12377  1.0000
  S   S290      1.0  0.90012  0.57083  0.03220  1.0000
  C   C1277     1.0  0.54158  0.61130  0.39569  1.0000
  Fe  Fe146     1.0  0.86196  0.56744  0.05355  1.0000
  C   C1278     1.0  0.83010  0.72778  0.36019  1.0000
  Fe  Fe147     1.0  0.92266  0.61196  0.05613  1.0000
  S   S291      1.0  0.95942  0.62681  0.08916  1.0000
  S   S292      1.0  0.85337  0.58748  0.01297  1.0000
  S   S293      1.0  0.91849  0.63498  0.01470  1.0000
  H   H2276     1.0  0.75809  0.70497  0.22671  1.0000
  C   C1279     1.0  0.61101  0.50765  0.40215  1.0000
  Fe  Fe148     1.0  0.60299  0.73139  0.15466  1.0000
  Fe  Fe149     1.0  0.89268  0.59329  0.99293  1.0000
  S   S294      1.0  0.56941  0.71618  0.11734  1.0000
  H   H2277     1.0  0.80141  0.71070  0.30362  1.0000
  H   H2278     1.0  0.64160  0.73065  0.02816  1.0000
  C   C1280     1.0  0.97258  0.70432  0.08154  1.0000
  Fe  Fe150     1.0  0.62501  0.73447  0.22191  1.0000
  S   S295      1.0  0.61863  0.72023  0.27328  1.0000
  C   C1281     1.0  0.00384  0.63867  0.04978  1.0000
  S   S296      1.0  0.61723  0.70619  0.18116  1.0000
  H   H2279     1.0  0.51458  0.74301  0.07742  1.0000
  Fe  Fe151     1.0  0.69963  0.67601  0.41503  1.0000
  S   S297      1.0  0.72153  0.68057  0.36909  1.0000
  S   S298      1.0  0.69834  0.71231  0.43519  1.0000
  Fe  Fe152     1.0  0.67788  0.61414  0.41871  1.0000
  S   S299      1.0  0.69770  0.61431  0.37249  1.0000
  S   S300      1.0  0.65720  0.57775  0.45228  1.0000
  Fe  Fe153     1.0  0.73449  0.65232  0.39109  1.0000
  S   S301      1.0  0.77748  0.65849  0.38487  1.0000
  Fe  Fe154     1.0  0.68273  0.64261  0.35551  1.0000
  S   S302      1.0  0.66366  0.63987  0.30746  1.0000
  S   S303      1.0  0.71546  0.65082  0.43828  1.0000
  S   S304      1.0  0.65998  0.63937  0.40037  1.0000
  H   H2280     1.0  0.61827  0.69910  0.41927  1.0000
  H   H2281     1.0  0.76222  0.55798  0.07574  1.0000
  H   H2282     1.0  0.76523  0.58494  0.00231  1.0000
  H   H2283     1.0  0.57590  0.67104  0.38434  1.0000
  C   C1282     1.0  0.79567  0.52171  0.07385  1.0000
  S   S305      1.0  0.89915  0.59347  0.44222  1.0000
  H   H2284     1.0  0.70580  0.56345  0.45243  1.0000
  H   H2285     1.0  0.91389  0.54417  0.44780  1.0000
  S   S306      1.0  0.91208  0.66661  0.46401  1.0000
  H   H2286     1.0  0.68642  0.74064  0.28200  1.0000
  H   H2287     1.0  0.67188  0.51755  0.40275  1.0000
  H   H2288     1.0  0.95822  0.68185  0.08155  1.0000
  C   C1283     1.0  0.62839  0.53546  0.40967  1.0000
  C   C1284     1.0  0.63624  0.54316  0.44110  1.0000
  C   C1285     1.0  0.62694  0.52285  0.46473  1.0000
  C   C1286     1.0  0.67787  0.51021  0.38143  1.0000
  C   C1287     1.0  0.59356  0.58684  0.34187  1.0000
  H   H2289     1.0  0.63542  0.55095  0.39128  1.0000
  C   C1288     1.0  0.79770  0.66244  0.41875  1.0000
  C   C1289     1.0  0.82429  0.66643  0.41503  1.0000
  C   C1290     1.0  0.84041  0.66872  0.44169  1.0000
  H   H2290     1.0  0.56762  0.71639  0.37203  1.0000
  C   C1291     1.0  0.74292  0.51455  0.08294  1.0000
  C   C1292     1.0  0.78762  0.66127  0.44934  1.0000
  H   H2291     1.0  0.83234  0.66747  0.39148  1.0000
  H   H2292     1.0  0.86081  0.67172  0.43861  1.0000
  S   S307      1.0  0.71086  0.51109  0.09236  1.0000
  H   H2293     1.0  0.76735  0.65836  0.45266  1.0000
  C   C1293     1.0  0.62933  0.69644  0.28298  1.0000
  C   C1294     1.0  0.63537  0.69364  0.31453  1.0000
  C   C1295     1.0  0.64600  0.67643  0.32246  1.0000
  C   C1296     1.0  0.64970  0.66115  0.29892  1.0000
  C   C1297     1.0  0.64233  0.66294  0.26765  1.0000
  C   C1298     1.0  0.63253  0.68074  0.25965  1.0000
  H   H2294     1.0  0.63267  0.70551  0.33274  1.0000
  H   H2295     1.0  0.65150  0.67512  0.34669  1.0000
  H   H2296     1.0  0.64497  0.65109  0.24932  1.0000
  H   H2297     1.0  0.62767  0.68238  0.23533  1.0000
  C   C1299     1.0  0.91264  0.52741  0.46288  1.0000
  H   H2298     1.0  0.59134  0.58117  0.03761  1.0000
  C   C1300     1.0  0.87126  0.55950  0.44234  1.0000
  C   C1301     1.0  0.86854  0.54190  0.41739  1.0000
  C   C1302     1.0  0.84736  0.51434  0.41758  1.0000
  H   H2299     1.0  0.78395  0.56708  0.00678  1.0000
  S   S308      1.0  0.82869  0.52584  0.07037  1.0000
  H   H2300     1.0  0.88315  0.54951  0.39804  1.0000
  H   H2301     1.0  0.60034  0.71901  0.36255  1.0000
  H   H2302     1.0  0.94636  0.53940  0.19483  1.0000
  H   H2303     1.0  0.59946  0.66466  0.36342  1.0000
  C   C1303     1.0  0.52470  0.67783  0.15220  1.0000
  C   C1304     1.0  0.53443  0.69128  0.12318  1.0000
  H   H2304     1.0  0.81683  0.51429  0.48704  1.0000
  N   N72       1.0  0.78617  0.57672  0.45707  1.0000
  H   H2305     1.0  0.53130  0.64491  0.36338  1.0000
  H   H2306     1.0  0.53859  0.68292  0.17200  1.0000
  H   H2307     1.0  0.52349  0.69455  0.07506  1.0000
  H   H2308     1.0  0.99012  0.63448  0.03002  1.0000
  H   H2309     1.0  0.78967  0.73460  0.26882  1.0000
  C   C1305     1.0  0.77695  0.57705  0.98931  1.0000
  C   C1306     1.0  0.79170  0.54426  0.07229  1.0000
  H   H2310     1.0  0.80846  0.61344  0.42903  1.0000
  H   H2311     1.0  0.99832  0.70115  0.11635  1.0000
  Fe  Fe155     1.0  0.90514  0.62514  0.47914  1.0000
  H   H2312     1.0  0.97443  0.74268  0.45231  1.0000
  H   H2313     1.0  0.80898  0.56452  0.06811  1.0000
  C   C1307     1.0  0.74362  0.73985  0.15147  1.0000
  C   C1308     1.0  0.86911  0.67844  0.06977  1.0000
  C   C1309     1.0  0.87651  0.67271  0.09922  1.0000
  C   C1310     1.0  0.87721  0.68770  0.12611  1.0000
  C   C1311     1.0  0.87147  0.70915  0.12351  1.0000
  C   C1312     1.0  0.86499  0.71549  0.09384  1.0000
  C   C1313     1.0  0.86348  0.69995  0.06717  1.0000
  H   H2314     1.0  0.88131  0.65647  0.10135  1.0000
  H   H2315     1.0  0.88232  0.68272  0.14895  1.0000
  H   H2316     1.0  0.76812  0.53940  0.42955  1.0000
  H   H2317     1.0  0.85775  0.70455  0.04450  1.0000
  C   C1314     1.0  0.67813  0.52755  0.35337  1.0000
  H   H2318     1.0  0.69250  0.54954  0.35816  1.0000
  C   C1315     1.0  0.83647  0.71751  0.32964  1.0000
  N   N73       1.0  0.61178  0.66398  0.08992  1.0000
  C   C1316     1.0  0.58296  0.65061  0.10307  1.0000
  C   C1317     1.0  0.63148  0.66735  0.11615  1.0000
  C   C1318     1.0  0.61909  0.69238  0.07880  1.0000
  C   C1319     1.0  0.61468  0.64853  0.06237  1.0000
  C   C1320     1.0  0.59635  0.61684  0.06287  1.0000
  C   C1321     1.0  0.56096  0.64993  0.08027  1.0000
  C   C1322     1.0  0.64942  0.71145  0.06872  1.0000
  C   C1323     1.0  0.62669  0.64116  0.13371  1.0000
  C   C1324     1.0  0.64560  0.64836  0.16244  1.0000
  H   H2319     1.0  0.95513  0.52134  0.16590  1.0000
  H   H2320     1.0  0.93462  0.53632  0.15458  1.0000
  H   H2321     1.0  0.60375  0.59846  0.31993  1.0000
  H   H2322     1.0  0.58245  0.66145  0.12492  1.0000
  H   H2323     1.0  0.57582  0.62931  0.11085  1.0000
  H   H2324     1.0  0.65289  0.67705  0.10702  1.0000
  H   H2325     1.0  0.63164  0.68171  0.13415  1.0000
  H   H2326     1.0  0.61440  0.70325  0.09768  1.0000
  H   H2327     1.0  0.60618  0.69116  0.05820  1.0000
  H   H2328     1.0  0.61002  0.65537  0.03956  1.0000
  H   H2329     1.0  0.70615  0.57080  0.41091  1.0000
  H   H2330     1.0  0.57465  0.61075  0.05813  1.0000
  H   H2331     1.0  0.59683  0.60776  0.08592  1.0000
  H   H2332     1.0  0.56276  0.67043  0.07916  1.0000
  H   H2333     1.0  0.56352  0.64444  0.05583  1.0000
  C   C1325     1.0  0.60525  0.60372  0.03734  1.0000
  H   H2334     1.0  0.72553  0.59831  0.43797  1.0000
  H   H2335     1.0  0.60541  0.62877  0.14261  1.0000
  H   H2336     1.0  0.63163  0.62863  0.11777  1.0000
  H   H2337     1.0  0.64194  0.62933  0.17462  1.0000
  H   H2338     1.0  0.66747  0.66002  0.15498  1.0000
  H   H2339     1.0  0.64158  0.66085  0.17961  1.0000
  H   H2340     1.0  0.69897  0.51389  0.38506  1.0000
  H   H2341     1.0  0.56160  0.64584  0.30157  1.0000
  S   S309      1.0  0.68877  0.72206  0.15508  1.0000
  C   C1326     1.0  0.54118  0.63601  0.34833  1.0000
  H   H2342     1.0  0.63755  0.68470  0.40148  1.0000
  S   S310      1.0  0.52937  0.73406  0.44111  1.0000
  H   H2343     1.0  0.53466  0.62306  0.41054  1.0000
  H   H2344     1.0  0.55246  0.59711  0.33529  1.0000
  C   C1327     1.0  0.75716  0.52700  0.47860  1.0000
  C   C1328     1.0  0.71884  0.57657  0.43265  1.0000
  C   C1329     1.0  0.72129  0.56262  0.15834  1.0000
  C   C1330     1.0  0.70621  0.71548  0.24494  1.0000
  H   H2345     1.0  0.79147  0.65684  0.01039  1.0000
  H   H2346     1.0  0.81627  0.71398  0.22021  1.0000
  H   H2347     1.0  0.57440  0.56781  0.33550  1.0000
  H   H2348     1.0  0.68497  0.52184  0.33146  1.0000
  C   C1331     1.0  0.76217  0.58172  0.45744  1.0000
  H   H2349     1.0  0.86560  0.70641  0.22773  1.0000
  H   H2350     1.0  0.90146  0.50609  0.25546  1.0000
  H   H2351     1.0  0.52022  0.57204  0.36978  1.0000
  H   H2352     1.0  0.71688  0.71314  0.22412  1.0000
  H   H2353     1.0  0.57724  0.59169  0.38555  1.0000
  H   H2354     1.0  0.89748  0.72308  0.47941  1.0000
  C   C1332     1.0  0.83121  0.52198  0.46748  1.0000
  H   H2355     1.0  0.85414  0.63200  0.40261  1.0000
  H   H2356     1.0  0.58064  0.65181  0.43293  1.0000
  H   H2357     1.0  0.70553  0.56892  0.15636  1.0000
  C   C1333     1.0  0.58253  0.65559  0.38107  1.0000
  H   H2358     1.0  0.53116  0.67593  0.32184  1.0000
  H   H2359     1.0  0.57467  0.67468  0.32762  1.0000
  H   H2360     1.0  0.83800  0.72157  0.38086  1.0000
  H   H2361     1.0  0.84410  0.59982  0.44752  1.0000
  C   C1334     1.0  0.77551  0.72566  0.22102  1.0000
  C   C1335     1.0  0.77724  0.54682  0.45335  1.0000
  H   H2362     1.0  0.75505  0.58564  0.40681  1.0000
  C   C1336     1.0  0.56962  0.61454  0.34786  1.0000
  H   H2363     1.0  0.63643  0.65356  0.05999  1.0000
  H   H2364     1.0  0.71114  0.54025  0.15396  1.0000
  H   H2365     1.0  0.73899  0.72250  0.16651  1.0000
  H   H2366     1.0  0.72978  0.56663  0.18272  1.0000
  C   C1337     1.0  0.53701  0.66488  0.30460  1.0000
  C   C1338     1.0  0.53192  0.62958  0.09160  1.0000
  C   C1339     1.0  0.76536  0.54064  0.07695  1.0000
  H   H2367     1.0  0.82782  0.57124  0.42087  1.0000
  C   C1340     1.0  0.51609  0.68435  0.09766  1.0000
  C   C1341     1.0  0.84863  0.61045  0.39831  1.0000
  H   H2368     1.0  0.85896  0.72667  0.32788  1.0000
  C   C1342     1.0  0.80384  0.59186  0.42881  1.0000
  H   H2369     1.0  0.97353  0.71213  0.05710  1.0000
  H   H2370     1.0  0.76982  0.60399  0.46081  1.0000
  H   H2371     1.0  0.96427  0.71386  0.09783  1.0000
  C   C1343     1.0  0.00096  0.71023  0.09233  1.0000
  C   C1344     1.0  0.74369  0.57284  0.42760  1.0000
  H   H2372     1.0  0.62649  0.60799  0.04181  1.0000
  H   H2373     1.0  0.73831  0.52853  0.48027  1.0000
  H   H2374     1.0  0.81592  0.61405  0.99065  1.0000
  H   H2375     1.0  0.52863  0.63441  0.11615  1.0000
  H   H2376     1.0  0.83722  0.60339  0.37566  1.0000
  H   H2377     1.0  0.59973  0.63778  0.41500  1.0000
  Fe  Fe156     1.0  0.65973  0.73777  0.16556  1.0000
  C   C1345     1.0  0.82402  0.72415  0.30042  1.0000
  C   C1346     1.0  0.59517  0.65467  0.41346  1.0000
  H   H2378     1.0  0.55363  0.60586  0.41189  1.0000
  H   H2379     1.0  0.70392  0.70034  0.26336  1.0000
  H   H2380     1.0  0.51613  0.55957  0.42641  1.0000
  H   H2381     1.0  0.58288  0.62843  0.32862  1.0000
  C   C1347     1.0  0.83150  0.59211  0.42577  1.0000
  H   H2382     1.0  0.79273  0.58301  0.40629  1.0000
  N   N74       1.0  0.78213  0.62652  0.11688  1.0000
  C   C1348     1.0  0.75881  0.60923  0.13928  1.0000
  C   C1349     1.0  0.79666  0.65560  0.12880  1.0000
  C   C1350     1.0  0.77040  0.62459  0.08424  1.0000
  C   C1351     1.0  0.80259  0.61672  0.11526  1.0000
  C   C1352     1.0  0.81478  0.61468  0.14744  1.0000
  C   C1353     1.0  0.74411  0.57783  0.13394  1.0000
  C   C1354     1.0  0.79109  0.64319  0.05845  1.0000
  C   C1355     1.0  0.78020  0.67089  0.12674  1.0000
  C   C1356     1.0  0.79703  0.70011  0.13906  1.0000
  C   C1357     1.0  0.83271  0.60163  0.14336  1.0000
  C   C1358     1.0  0.77617  0.64443  0.02883  1.0000
  H   H2383     1.0  0.74264  0.61504  0.13762  1.0000
  H   H2384     1.0  0.76580  0.61332  0.16434  1.0000
  H   H2385     1.0  0.80258  0.65623  0.15406  1.0000
  H   H2386     1.0  0.81649  0.66806  0.11623  1.0000
  H   H2387     1.0  0.75297  0.62863  0.08515  1.0000
  H   H2388     1.0  0.76124  0.60334  0.07508  1.0000
  H   H2389     1.0  0.79358  0.59658  0.10328  1.0000
  H   H2390     1.0  0.82031  0.63063  0.09998  1.0000
  H   H2391     1.0  0.79855  0.60197  0.16482  1.0000
  H   H2392     1.0  0.82779  0.63537  0.15762  1.0000
  H   H2393     1.0  0.73452  0.57244  0.11017  1.0000
  H   H2394     1.0  0.75849  0.56984  0.13613  1.0000
  H   H2395     1.0  0.80463  0.63498  0.05154  1.0000
  H   H2396     1.0  0.80417  0.66452  0.06654  1.0000
  H   H2397     1.0  0.77455  0.67236  0.10194  1.0000
  H   H2398     1.0  0.76117  0.66030  0.14115  1.0000
  H   H2399     1.0  0.80374  0.70021  0.16380  1.0000
  H   H2400     1.0  0.81540  0.71220  0.12392  1.0000
  H   H2401     1.0  0.78439  0.71016  0.13841  1.0000
  H   H2402     1.0  0.82054  0.58059  0.13367  1.0000
  H   H2403     1.0  0.85003  0.61416  0.12711  1.0000
  H   H2404     1.0  0.84126  0.60042  0.16661  1.0000
  H   H2405     1.0  0.65734  0.52476  0.34959  1.0000
  H   H2406     1.0  0.76244  0.62360  0.01944  1.0000
  H   H2407     1.0  0.60763  0.58110  0.35368  1.0000
  H   H2408     1.0  0.51817  0.64688  0.29537  1.0000
  C   C1359     1.0  0.83667  0.69546  0.26778  1.0000
  C   C1360     1.0  0.55581  0.65594  0.32012  1.0000
  C   C1361     1.0  0.80965  0.71405  0.24504  1.0000
  C   C1362     1.0  0.65299  0.73668  0.05091  1.0000
  H   H2409     1.0  0.60735  0.62211  0.37090  1.0000
  C   C1363     1.0  0.84569  0.68896  0.23570  1.0000
  C   C1364     1.0  0.93883  0.52558  0.17402  1.0000
  C   C1365     1.0  0.72911  0.74331  0.42918  1.0000
  H   H2410     1.0  0.54796  0.67893  0.28446  1.0000
  C   C1366     1.0  0.84941  0.66400  0.23861  1.0000
  H   H2411     1.0  0.86935  0.50843  0.29329  1.0000
  H   H2412     1.0  0.81731  0.67690  0.27547  1.0000
  H   H2413     1.0  0.85214  0.69753  0.28544  1.0000
  H   H2414     1.0  0.78320  0.72548  0.19687  1.0000
  C   C1367     1.0  0.62185  0.68144  0.41960  1.0000
  H   H2415     1.0  0.79187  0.69318  0.24963  1.0000
  H   H2416     1.0  0.70827  0.73343  0.30515  1.0000
  H   H2417     1.0  0.52829  0.60835  0.09095  1.0000
  H   H2418     1.0  0.66277  0.71885  0.08999  1.0000
  H   H2419     1.0  0.75302  0.72423  0.41819  1.0000
  H   H2420     1.0  0.83022  0.68437  0.21695  1.0000
  C   C1368     1.0  0.51547  0.58411  0.38664  1.0000
  H   H2421     1.0  0.51670  0.63080  0.07595  1.0000
  C   C1369     1.0  0.72236  0.74464  0.25760  1.0000
  H   H2422     1.0  0.52410  0.61725  0.33758  1.0000
  N   N75       1.0  0.83268  0.72004  0.26785  1.0000
  H   H2423     1.0  0.82732  0.69495  0.33202  1.0000
  H   H2424     1.0  0.65682  0.70068  0.05315  1.0000
  H   H2425     1.0  0.80759  0.71875  0.36328  1.0000
  S   S311      1.0  0.87033  0.72612  0.15804  1.0000
  H   H2426     1.0  0.86558  0.66777  0.25623  1.0000
  H   H2427     1.0  0.82986  0.64564  0.24583  1.0000
  H   H2428     1.0  0.85582  0.65989  0.21532  1.0000
  C   C1370     1.0  0.90558  0.74553  0.47843  1.0000
  C   C1371     1.0  0.99393  0.63626  0.08072  1.0000
  N   N76       1.0  0.55904  0.62904  0.36856  1.0000
  H   H2429     1.0  0.73596  0.55101  0.42204  1.0000
  C   C1372     1.0  0.58737  0.60429  0.36427  1.0000
  H   H2430     1.0  0.68567  0.71114  0.23684  1.0000
  C   C1373     1.0  0.83011  0.66736  0.47224  1.0000
  H   H2431     1.0  0.86040  0.73187  0.09155  1.0000
  H   H2432     1.0  0.76379  0.65427  0.03427  1.0000
  H   H2433     1.0  0.86791  0.60969  0.39613  1.0000
  C   C1374     1.0  0.75309  0.74336  0.42042  1.0000
  H   H2434     1.0  0.79536  0.54390  0.45406  1.0000
  C   C1375     1.0  0.80379  0.66387  0.47590  1.0000
  H   H2435     1.0  0.63014  0.68053  0.44318  1.0000
  H   H2436     1.0  0.60430  0.61160  0.01349  1.0000
  C   C1376     1.0  0.85224  0.54954  0.46714  1.0000
  H   H2437     1.0  0.74843  0.57142  0.47791  1.0000
  H   H2438     1.0  0.82809  0.74555  0.30281  1.0000
  H   H2439     1.0  0.83999  0.75045  0.35989  1.0000
  H   H2440     1.0  0.76788  0.74034  0.22109  1.0000
  C   C1377     1.0  0.72251  0.74478  0.14237  1.0000
  C   C1378     1.0  0.79842  0.73424  0.24538  1.0000
  H   H2441     1.0  0.88856  0.73701  0.27851  1.0000
  H   H2442     1.0  0.89081  0.51115  0.46557  1.0000
  H   H2443     1.0  0.71140  0.74980  0.36435  1.0000
  H   H2444     1.0  0.81896  0.61036  0.48313  1.0000
  H   H2445     1.0  0.64541  0.74794  0.06541  1.0000
  H   H2446     1.0  0.68087  0.73298  0.34138  1.0000
  H   H2447     1.0  0.92385  0.51852  0.45066  1.0000
  H   H2448     1.0  0.00459  0.64011  0.13019  1.0000
  H   H2449     1.0  0.89164  0.74938  0.46343  1.0000
  H   H2450     1.0  0.67508  0.75064  0.04566  1.0000
  H   H2451     1.0  0.67171  0.73817  0.39743  1.0000
  H   H2452     1.0  0.86163  0.74394  0.23078  1.0000
  C   C1379     1.0  0.85791  0.74564  0.25639  1.0000
  C   C1380     1.0  0.70844  0.74819  0.28759  1.0000
  C   C1381     1.0  0.80331  0.58835  0.48672  1.0000
  H   H2453     1.0  0.89706  0.50450  0.18950  1.0000
  H   H2454     1.0  0.57995  0.72203  0.33167  1.0000
  H   H2455     1.0  0.85386  0.56307  0.48606  1.0000
  H   H2456     1.0  0.74335  0.74887  0.26338  1.0000
  C   C1382     1.0  0.58624  0.72685  0.35684  1.0000
  C   C1383     1.0  0.82872  0.50422  0.44279  1.0000
  H   H2457     1.0  0.68329  0.50392  0.99812  1.0000
  H   H2458     1.0  0.87336  0.70377  0.98860  1.0000
  C   C1384     1.0  0.69488  0.75223  0.35355  1.0000
  H   H2459     1.0  0.74978  0.75042  0.32363  1.0000
  H   H2460     1.0  0.80193  0.53845  0.98780  1.0000
  H   H2461     1.0  0.85735  0.55032  0.88880  1.0000
  C   C1385     1.0  0.91083  0.53351  0.60267  1.0000
  Fe  Fe157     1.0  0.73140  0.57831  0.80038  1.0000
  S   S312      1.0  0.75863  0.59684  0.84236  1.0000
  S   S313      1.0  0.73065  0.54432  0.77147  1.0000
  Fe  Fe158     1.0  0.70211  0.61107  0.80976  1.0000
  S   S314      1.0  0.72686  0.63191  0.85321  1.0000
  S   S315      1.0  0.66780  0.61536  0.78634  1.0000
  Fe  Fe159     1.0  0.76280  0.63634  0.82505  1.0000
  S   S316      1.0  0.80340  0.67527  0.83107  1.0000
  Fe  Fe160     1.0  0.72081  0.59067  0.86747  1.0000
  S   S317      1.0  0.71892  0.57795  0.91904  1.0000
  S   S318      1.0  0.73872  0.61851  0.78047  1.0000
  S   S319      1.0  0.69292  0.56917  0.82652  1.0000
  Fe  Fe161     1.0  0.91270  0.64029  0.54952  1.0000
  S   S320      1.0  0.91749  0.63015  0.60017  1.0000
  Fe  Fe162     1.0  0.61440  0.73919  0.67150  1.0000
  S   S321      1.0  0.59457  0.70982  0.71192  1.0000
  S   S322      1.0  0.60855  0.72646  0.62013  1.0000
  H   H2462     1.0  0.88984  0.52970  0.60760  1.0000
  H   H2463     1.0  0.95222  0.53620  0.80223  1.0000
  Fe  Fe163     1.0  0.63438  0.73519  0.73787  1.0000
  S   S323      1.0  0.66129  0.72437  0.76817  1.0000
  H   H2464     1.0  0.95797  0.70410  0.66533  1.0000
  S   S324      1.0  0.53823  0.72617  0.73652  1.0000
  C   C1386     1.0  0.58682  0.64987  0.64144  1.0000
  H   H2465     1.0  0.55704  0.71441  0.64986  1.0000
  C   C1387     1.0  0.95155  0.65021  0.61374  1.0000
  H   H2466     1.0  0.90293  0.67428  0.64818  1.0000
  C   C1388     1.0  0.56928  0.70421  0.57368  1.0000
  C   C1389     1.0  0.57475  0.71234  0.60546  1.0000
  H   H2467     1.0  0.85162  0.65013  0.95823  1.0000
  H   H2468     1.0  0.96949  0.74490  0.54961  1.0000
  C   C1390     1.0  0.54129  0.63156  0.61555  1.0000
  H   H2469     1.0  0.58598  0.70778  0.55801  1.0000
  H   H2470     1.0  0.81819  0.67041  0.89792  1.0000
  H   H2471     1.0  0.94361  0.63010  0.65921  1.0000
  C   C1391     1.0  0.86953  0.54955  0.55930  1.0000
  H   H2472     1.0  0.93468  0.51425  0.61621  1.0000
  H   H2473     1.0  0.78783  0.63872  0.89421  1.0000
  C   C1392     1.0  0.82136  0.69389  0.79723  1.0000
  C   C1393     1.0  0.84133  0.72152  0.80051  1.0000
  C   C1394     1.0  0.85643  0.73692  0.77415  1.0000
  C   C1395     1.0  0.85210  0.72465  0.74444  1.0000
  C   C1396     1.0  0.83224  0.69691  0.74115  1.0000
  C   C1397     1.0  0.81663  0.68162  0.76741  1.0000
  H   H2474     1.0  0.84504  0.73110  0.82352  1.0000
  C   C1398     1.0  0.91415  0.65859  0.70425  1.0000
  H   H2475     1.0  0.80145  0.66021  0.76479  1.0000
  C   C1399     1.0  0.66580  0.64564  0.78230  1.0000
  C   C1400     1.0  0.64522  0.64531  0.76301  1.0000
  C   C1401     1.0  0.64351  0.66919  0.75829  1.0000
  C   C1402     1.0  0.66222  0.69359  0.77313  1.0000
  C   C1403     1.0  0.68264  0.69384  0.79260  1.0000
  C   C1404     1.0  0.68450  0.67005  0.79711  1.0000
  H   H2476     1.0  0.63060  0.62647  0.75158  1.0000
  H   H2477     1.0  0.62756  0.66865  0.74352  1.0000
  H   H2478     1.0  0.69707  0.71257  0.80439  1.0000
  H   H2479     1.0  0.70023  0.67049  0.81222  1.0000
  H   H2480     1.0  0.92702  0.66356  0.83280  1.0000
  H   H2481     1.0  0.95453  0.64085  0.82755  1.0000
  C   C1405     1.0  0.00109  0.75222  0.49256  1.0000
  C   C1406     1.0  0.69520  0.54459  0.93280  1.0000
  H   H2482     1.0  0.97305  0.51599  0.76540  1.0000
  N   N77       1.0  0.55609  0.63369  0.64630  1.0000
  C   C1407     1.0  0.93539  0.65895  0.85429  1.0000
  H   H2483     1.0  0.77004  0.69043  0.65334  1.0000
  H   H2484     1.0  0.77105  0.69184  0.92853  1.0000
  C   C1408     1.0  0.75740  0.53703  0.77650  1.0000
  C   C1409     1.0  0.78339  0.68546  0.91414  1.0000
  C   C1410     1.0  0.88476  0.63332  0.70374  1.0000
  H   H2485     1.0  0.96130  0.57353  0.53611  1.0000
  C   C1411     1.0  0.80354  0.54981  0.79327  1.0000
  C   C1412     1.0  0.78255  0.55622  0.78961  1.0000
  C   C1413     1.0  0.79919  0.52391  0.78476  1.0000
  H   H2486     1.0  0.82313  0.56487  0.80292  1.0000
  H   H2487     1.0  0.78601  0.57617  0.79630  1.0000
  C   C1414     1.0  0.87709  0.54870  0.93185  1.0000
  H   H2488     1.0  0.79573  0.66300  0.49942  1.0000
  H   H2489     1.0  0.93419  0.53179  0.56256  1.0000
  H   H2490     1.0  0.82458  0.54408  0.95458  1.0000
  H   H2491     1.0  0.51984  0.61405  0.61665  1.0000
  C   C1415     1.0  0.86210  0.53773  0.90396  1.0000
  C   C1416     1.0  0.97159  0.67028  0.59416  1.0000
  C   C1417     1.0  0.67333  0.52604  0.91409  1.0000
  C   C1418     1.0  0.54218  0.69090  0.56219  1.0000
  H   H2492     1.0  0.52421  0.59431  0.66338  1.0000
  C   C1419     1.0  0.85478  0.62944  0.85956  1.0000
  Fe  Fe164     1.0  0.94590  0.68376  0.50041  1.0000
  H   H2493     1.0  0.86224  0.54965  0.53496  1.0000
  C   C1420     1.0  0.88476  0.60845  0.68948  1.0000
  H   H2494     1.0  0.96892  0.68906  0.69536  1.0000
  H   H2495     1.0  0.96570  0.73055  0.79388  1.0000
  H   H2496     1.0  0.93297  0.61863  0.89483  1.0000
  H   H2497     1.0  0.86372  0.59042  0.69065  1.0000
  H   H2498     1.0  0.87065  0.63738  0.68941  1.0000
  H   H2499     1.0  0.89822  0.51438  0.55724  1.0000
  H   H2500     1.0  0.85967  0.55744  0.60668  1.0000
  H   H2501     1.0  0.94023  0.58566  0.96867  1.0000
  C   C1421     1.0  0.90011  0.55155  0.82378  1.0000
  H   H2502     1.0  0.95630  0.57412  0.84336  1.0000
  C   C1422     1.0  0.91354  0.51078  0.61911  1.0000
  C   C1423     1.0  0.79274  0.61598  0.94943  1.0000
  H   H2503     1.0  0.81212  0.59078  0.95960  1.0000
  C   C1424     1.0  0.55303  0.70788  0.62543  1.0000
  H   H2504     1.0  0.87637  0.62749  0.72811  1.0000
  H   H2505     1.0  0.86312  0.69078  0.91757  1.0000
  H   H2506     1.0  0.80987  0.55929  0.88432  1.0000
  H   H2507     1.0  0.99267  0.75089  0.68597  1.0000
  C   C1425     1.0  0.54737  0.56110  0.65979  1.0000
  H   H2508     1.0  0.78102  0.56150  0.89950  1.0000
  H   H2509     1.0  0.89466  0.54043  0.97279  1.0000
  H   H2510     1.0  0.89120  0.61235  0.66424  1.0000
  H   H2511     1.0  0.94747  0.55314  0.76845  1.0000
  H   H2512     1.0  0.96601  0.53074  0.73239  1.0000
  N   N78       1.0  0.91636  0.68539  0.71387  1.0000
  C   C1426     1.0  0.94618  0.70796  0.71452  1.0000
  C   C1427     1.0  0.90515  0.68178  0.74721  1.0000
  C   C1428     1.0  0.89964  0.69320  0.69282  1.0000
  C   C1429     1.0  0.90438  0.69352  0.65665  1.0000
  C   C1430     1.0  0.90687  0.70759  0.76241  1.0000
  H   H2513     1.0  0.57575  0.59705  0.63417  1.0000
  C   C1431     1.0  0.89710  0.70227  0.79684  1.0000
  H   H2514     1.0  0.94783  0.72844  0.71244  1.0000
  H   H2515     1.0  0.95560  0.70814  0.73783  1.0000
  H   H2516     1.0  0.91589  0.67436  0.76318  1.0000
  H   H2517     1.0  0.88303  0.66596  0.74803  1.0000
  H   H2518     1.0  0.87732  0.67966  0.69765  1.0000
  H   H2519     1.0  0.50912  0.68938  0.63020  1.0000
  C   C1432     1.0  0.90926  0.54930  0.51400  1.0000
  C   C1433     1.0  0.51347  0.65741  0.69760  1.0000
  C   C1434     1.0  0.98139  0.73880  0.59547  1.0000
  C   C1435     1.0  0.96591  0.70663  0.68977  1.0000
  H   H2520     1.0  0.77272  0.67728  0.89127  1.0000
  H   H2521     1.0  0.92018  0.61754  0.83983  1.0000
  H   H2522     1.0  0.59280  0.67069  0.63235  1.0000
  H   H2523     1.0  0.55671  0.64899  0.69366  1.0000
  H   H2524     1.0  0.89826  0.72102  0.80681  1.0000
  H   H2525     1.0  0.87541  0.68543  0.79834  1.0000
  H   H2526     1.0  0.56025  0.56659  0.68144  1.0000
  N   N79       1.0  0.75277  0.70080  0.71391  1.0000
  C   C1436     1.0  0.75170  0.69566  0.74915  1.0000
  C   C1437     1.0  0.73115  0.67544  0.69709  1.0000
  C   C1438     1.0  0.78056  0.70655  0.70218  1.0000
  C   C1439     1.0  0.76749  0.71356  0.80472  1.0000
  H   H2527     1.0  0.92305  0.66010  0.68037  1.0000
  C   C1440     1.0  0.70377  0.65722  0.71491  1.0000
  C   C1441     1.0  0.68227  0.63544  0.69326  1.0000
  H   H2528     1.0  0.83628  0.61738  0.84470  1.0000
  H   H2529     1.0  0.85932  0.57988  0.57624  1.0000
  H   H2530     1.0  0.75372  0.67728  0.75392  1.0000
  H   H2531     1.0  0.73146  0.69051  0.75915  1.0000
  H   H2532     1.0  0.72623  0.68095  0.67360  1.0000
  H   H2533     1.0  0.73911  0.66127  0.69192  1.0000
  H   H2534     1.0  0.78448  0.68994  0.71019  1.0000
  C   C1442     1.0  0.82584  0.62626  0.90717  1.0000
  H   H2535     1.0  0.92799  0.72522  0.76189  1.0000
  H   H2536     1.0  0.74806  0.72699  0.67991  1.0000
  H   H2537     1.0  0.90502  0.57630  0.86461  1.0000
  H   H2538     1.0  0.60177  0.63292  0.67847  1.0000
  H   H2539     1.0  0.70734  0.64639  0.73479  1.0000
  H   H2540     1.0  0.69497  0.66921  0.72482  1.0000
  H   H2541     1.0  0.67691  0.64513  0.67370  1.0000
  H   H2542     1.0  0.68993  0.62231  0.68326  1.0000
  H   H2543     1.0  0.66339  0.62220  0.70719  1.0000
  H   H2544     1.0  0.99841  0.65760  0.83812  1.0000
  H   H2545     1.0  0.92128  0.51853  0.71654  1.0000
  H   H2546     1.0  0.90768  0.51863  0.75465  1.0000
  H   H2547     1.0  0.99179  0.65798  0.67803  1.0000
  C   C1443     1.0  0.95890  0.64581  0.64407  1.0000
  C   C1444     1.0  0.00100  0.63941  0.83586  1.0000
  H   H2548     1.0  0.96630  0.67394  0.57075  1.0000
  N   N80       1.0  0.91844  0.55805  0.54775  1.0000
  H   H2549     1.0  0.79697  0.67240  0.95480  1.0000
  H   H2550     1.0  0.52536  0.54963  0.66671  1.0000
  H   H2551     1.0  0.70556  0.70972  0.71055  1.0000
  H   H2552     1.0  0.77877  0.51800  0.85394  1.0000
  C   C1445     1.0  0.80284  0.53347  0.96257  1.0000
  C   C1446     1.0  0.99422  0.73236  0.69072  1.0000
  N   N81       1.0  0.96088  0.60707  0.87348  1.0000
  H   H2553     1.0  0.82439  0.61660  0.54400  1.0000
  H   H2554     1.0  0.53930  0.65007  0.61199  1.0000
  H   H2555     1.0  0.54517  0.62142  0.53427  1.0000
  C   C1447     1.0  0.74984  0.72536  0.70595  1.0000
  C   C1448     1.0  0.72502  0.72619  0.72052  1.0000
  H   H2556     1.0  0.93147  0.73300  0.59145  1.0000
  H   H2557     1.0  0.81426  0.58086  0.54964  1.0000
  H   H2558     1.0  0.92675  0.65367  0.72046  1.0000
  H   H2559     1.0  0.76562  0.64638  0.93728  1.0000
  H   H2560     1.0  0.86067  0.61534  0.87101  1.0000
  H   H2561     1.0  0.89881  0.60357  0.70279  1.0000
  C   C1449     1.0  0.91131  0.50559  0.73788  1.0000
  H   H2562     1.0  0.79505  0.59482  0.56810  1.0000
  H   H2563     1.0  0.55883  0.67127  0.66253  1.0000
  H   H2564     1.0  0.87182  0.64375  0.84385  1.0000
  C   C1450     1.0  0.69847  0.53652  0.96326  1.0000
  H   H2565     1.0  0.57261  0.64988  0.57838  1.0000
  H   H2566     1.0  0.80377  0.70372  0.90936  1.0000
  H   H2567     1.0  0.84326  0.69918  0.94316  1.0000
  C   C1451     1.0  0.80668  0.59551  0.54652  1.0000
  H   H2568     1.0  0.95507  0.67755  0.86043  1.0000
  C   C1452     1.0  0.78490  0.70948  0.66568  1.0000
  H   H2569     1.0  0.78257  0.72661  0.65635  1.0000
  C   C1453     1.0  0.85353  0.51062  0.89526  1.0000
  H   H2570     1.0  0.77667  0.60090  0.93325  1.0000
  H   H2571     1.0  0.55185  0.54750  0.64508  1.0000
  H   H2572     1.0  0.82932  0.73544  0.66667  1.0000
  C   C1454     1.0  0.78659  0.66360  0.93201  1.0000
  H   H2573     1.0  0.89361  0.71358  0.74949  1.0000
  H   H2574     1.0  0.77467  0.73905  0.76399  1.0000
  H   H2575     1.0  0.97451  0.60321  0.98423  1.0000
  H   H2576     1.0  0.81527  0.57789  0.49170  1.0000
  C   C1455     1.0  0.97222  0.60820  0.93348  1.0000
  C   C1456     1.0  0.88300  0.53218  0.95133  1.0000
  C   C1457     1.0  0.55377  0.58679  0.64085  1.0000
  H   H2577     1.0  0.86375  0.52815  0.56520  1.0000
  H   H2578     1.0  0.92475  0.71105  0.65029  1.0000
  H   H2579     1.0  0.73413  0.52770  0.88416  1.0000
  C   C1458     1.0  0.80255  0.65300  0.91209  1.0000
  H   H2580     1.0  0.78124  0.60343  0.51568  1.0000
  C   C1459     1.0  0.74016  0.51650  0.86711  1.0000
  H   H2581     1.0  0.53814  0.68425  0.53782  1.0000
  H   H2582     1.0  0.63931  0.69258  0.65688  1.0000
  H   H2583     1.0  0.86209  0.50670  0.73283  1.0000
  C   C1460     1.0  0.54686  0.60577  0.66025  1.0000
  S   S325      1.0  0.91844  0.68167  0.53997  1.0000
  C   C1461     1.0  0.91540  0.56593  0.85398  1.0000
  S   S326      1.0  0.87207  0.74313  0.71145  1.0000
  S   S327      1.0  0.88974  0.58351  0.94070  1.0000
  H   H2584     1.0  0.77154  0.51351  0.89563  1.0000
  C   C1462     1.0  0.95968  0.54425  0.77804  1.0000
  S   S328      1.0  0.87549  0.61867  0.51828  1.0000
  H   H2585     1.0  0.82911  0.68715  0.71834  1.0000
  H   H2586     1.0  0.00380  0.73435  0.71428  1.0000
  H   H2587     1.0  0.92678  0.52216  0.50815  1.0000
  H   H2588     1.0  0.90934  0.54016  0.81292  1.0000
  H   H2589     1.0  0.92053  0.65387  0.87406  1.0000
  C   C1463     1.0  0.83766  0.65830  0.95273  1.0000
  C   C1464     1.0  0.85544  0.68865  0.94208  1.0000
  C   C1465     1.0  0.91570  0.53382  0.56635  1.0000
  H   H2590     1.0  0.90037  0.56655  0.80645  1.0000
  C   C1466     1.0  0.55470  0.62950  0.58429  1.0000
  H   H2591     1.0  0.76451  0.69312  0.81109  1.0000
  N   N82       1.0  0.81529  0.63915  0.93046  1.0000
  H   H2592     1.0  0.86851  0.65764  0.89811  1.0000
  C   C1467     1.0  0.95046  0.62695  0.87774  1.0000
  C   C1468     1.0  0.98981  0.61989  0.57241  1.0000
  C   C1469     1.0  0.94798  0.58089  0.54635  1.0000
  H   H2593     1.0  0.90623  0.57529  0.58605  1.0000
  C   C1470     1.0  0.54878  0.64933  0.66966  1.0000
  C   C1471     1.0  0.63519  0.67177  0.66356  1.0000
  H   H2594     1.0  0.86195  0.67954  0.64332  1.0000
  H   H2595     1.0  0.55524  0.60767  0.68460  1.0000
  H   H2596     1.0  0.67036  0.53217  0.89079  1.0000
  C   C1472     1.0  0.98930  0.56771  0.78097  1.0000
  H   H2597     1.0  0.54099  0.57995  0.61915  1.0000
  H   H2598     1.0  0.96300  0.57216  0.96203  1.0000
  H   H2599     1.0  0.78905  0.56612  0.85759  1.0000
  H   H2600     1.0  0.76314  0.56143  0.97203  1.0000
  C   C1473     1.0  0.95793  0.52140  0.75614  1.0000
  H   H2601     1.0  0.59977  0.66228  0.69112  1.0000
  H   H2602     1.0  0.91342  0.54982  0.87080  1.0000
  C   C1474     1.0  0.96190  0.59430  0.57809  1.0000
  C   C1475     1.0  0.52031  0.68489  0.58269  1.0000
  H   H2603     1.0  0.94956  0.60070  0.59223  1.0000
  H   H2604     1.0  0.64178  0.66328  0.64393  1.0000
  H   H2605     1.0  0.59365  0.64080  0.62283  1.0000
  H   H2606     1.0  0.74864  0.71417  0.81109  1.0000
  H   H2607     1.0  0.99896  0.60722  0.86616  1.0000
  C   C1476     1.0  0.94006  0.63497  0.84767  1.0000
  H   H2608     1.0  0.99937  0.62913  0.59550  1.0000
  C   C1477     1.0  0.77372  0.71936  0.76937  1.0000
  H   H2609     1.0  0.52233  0.65735  0.72110  1.0000
  H   H2610     1.0  0.99438  0.61492  0.93142  1.0000
  Fe  Fe165     1.0  0.58318  0.74076  0.72854  1.0000
  C   C1478     1.0  0.94618  0.58651  0.84753  1.0000
  C   C1479     1.0  0.85418  0.55855  0.58166  1.0000
  H   H2611     1.0  0.64755  0.67359  0.68489  1.0000
  C   C1480     1.0  0.84924  0.64569  0.88454  1.0000
  C   C1481     1.0  0.78804  0.58805  0.51758  1.0000
  H   H2612     1.0  0.94771  0.59676  0.82457  1.0000
  H   H2613     1.0  0.90555  0.58830  0.54835  1.0000
  H   H2614     1.0  0.92532  0.55308  0.61407  1.0000
  H   H2615     1.0  0.94694  0.55553  0.49013  1.0000
  H   H2616     1.0  0.84430  0.65982  0.87163  1.0000
  H   H2617     1.0  0.83393  0.61443  0.91963  1.0000
  H   H2618     1.0  0.83171  0.54489  0.57883  1.0000
  H   H2619     1.0  0.00252  0.56034  0.79159  1.0000
  H   H2620     1.0  0.80855  0.61134  0.89218  1.0000
  C   C1482     1.0  0.90103  0.56911  0.56102  1.0000
  H   H2621     1.0  0.00377  0.61471  0.55942  1.0000
  C   C1483     1.0  0.95641  0.59122  0.90403  1.0000
  C   C1484     1.0  0.60472  0.65309  0.67089  1.0000
  H   H2622     1.0  0.91026  0.69696  0.81133  1.0000
  C   C1485     1.0  0.88281  0.69707  0.63852  1.0000
  H   H2623     1.0  0.74093  0.52559  0.84344  1.0000
  H   H2624     1.0  0.76971  0.56788  0.52222  1.0000
  H   H2625     1.0  0.96183  0.57487  0.90087  1.0000
  H   H2626     1.0  0.87836  0.53668  0.82966  1.0000
  H   H2627     1.0  0.88673  0.69773  0.61266  1.0000
  C   C1486     1.0  0.81368  0.71550  0.65665  1.0000
  H   H2628     1.0  0.91205  0.72800  0.53997  1.0000
  S   S329      1.0  0.94159  0.64285  0.51154  1.0000
  H   H2629     1.0  0.98980  0.62757  0.81470  1.0000
  H   H2630     1.0  0.99984  0.73895  0.58583  1.0000
  H   H2631     1.0  0.93433  0.58041  0.91071  1.0000
  Fe  Fe166     1.0  0.88410  0.66090  0.50494  1.0000
  C   C1487     1.0  0.98617  0.66152  0.65473  1.0000
  H   H2632     1.0  0.76741  0.53130  0.50198  1.0000
  H   H2633     1.0  0.96992  0.62650  0.93626  1.0000
  H   H2634     1.0  0.53356  0.74902  0.58647  1.0000
  H   H2635     1.0  0.99772  0.57692  0.75737  1.0000
  H   H2636     1.0  0.96660  0.64615  0.88890  1.0000
  S   S330      1.0  0.82607  0.51672  0.78881  1.0000
  H   H2637     1.0  0.88340  0.71630  0.64559  1.0000
  H   H2638     1.0  0.96466  0.71717  0.59760  1.0000
  C   C1488     1.0  0.88018  0.70414  0.96382  1.0000
  C   C1489     1.0  0.52589  0.69379  0.61422  1.0000
  H   H2639     1.0  0.72459  0.72437  0.74667  1.0000
  H   H2640     1.0  0.96562  0.57985  0.59221  1.0000
  C   C1490     1.0  0.78861  0.55464  0.87919  1.0000
  C   C1491     1.0  0.96179  0.59117  0.96387  1.0000
  H   H2641     1.0  0.79147  0.54102  0.94820  1.0000
  S   S331      1.0  0.84941  0.67019  0.50646  1.0000
  H   H2642     1.0  0.90369  0.71411  0.69869  1.0000
  H   H2643     1.0  0.94982  0.59736  0.53012  1.0000
  C   C1492     1.0  0.92479  0.75012  0.53402  1.0000
  C   C1493     1.0  0.92577  0.53872  0.49505  1.0000
  H   H2644     1.0  0.99010  0.58397  0.79642  1.0000
  H   H2645     1.0  0.81597  0.71668  0.63047  1.0000
  H   H2646     1.0  0.82880  0.65908  0.97605  1.0000
  H   H2647     1.0  0.00280  0.63678  0.88586  1.0000
  H   H2648     1.0  0.63286  0.52867  0.48910  1.0000
  C   C1494     1.0  0.77020  0.52394  0.87411  1.0000
  C   C1495     1.0  0.75334  0.51142  0.76722  1.0000
  C   C1496     1.0  0.99131  0.62206  0.86663  1.0000
  C   C1497     1.0  0.87449  0.50506  0.94257  1.0000
  H   H2649     1.0  0.98635  0.74820  0.61934  1.0000
  H   H2650     1.0  0.89354  0.69485  0.96318  1.0000
  H   H2651     1.0  0.56208  0.61468  0.58589  1.0000
  H   H2652     1.0  0.79424  0.72173  0.76503  1.0000
  S   S332      1.0  0.98981  0.71814  0.50356  1.0000
  C   C1498     1.0  0.80173  0.60020  0.97226  1.0000
  H   H2653     1.0  0.89242  0.72581  0.95598  1.0000
  C   C1499     1.0  0.98360  0.74877  0.78517  1.0000
  H   H2654     1.0  0.88752  0.53245  0.51346  1.0000
  H   H2655     1.0  0.90985  0.56651  0.50018  1.0000
  H   H2656     1.0  0.70036  0.51816  0.83062  1.0000
  H   H2657     1.0  0.98743  0.63539  0.55861  1.0000
  H   H2658     1.0  0.54323  0.74519  0.52851  1.0000
  C   C1500     1.0  0.52878  0.75052  0.74709  1.0000
  H   H2659     1.0  0.89325  0.74175  0.58290  1.0000
  H   H2660     1.0  0.90925  0.51058  0.64483  1.0000
  H   H2661     1.0  0.52616  0.63491  0.55416  1.0000
  C   C1501     1.0  0.53454  0.62087  0.55667  1.0000
  H   H2662     1.0  0.71494  0.55088  0.97819  1.0000
  H   H2663     1.0  0.76877  0.74460  0.71266  1.0000
  C   C1502     1.0  0.99879  0.68572  0.60465  1.0000
  H   H2664     1.0  0.51724  0.59972  0.56042  1.0000
  H   H2665     1.0  0.52331  0.67880  0.68865  1.0000
  C   C1503     1.0  0.77393  0.50461  0.77202  1.0000
  C   C1504     1.0  0.51771  0.63919  0.67421  1.0000
  H   H2666     1.0  0.94225  0.75173  0.52006  1.0000
  H   H2667     1.0  0.88564  0.74707  0.52102  1.0000
  C   C1505     1.0  0.68044  0.50993  0.97468  1.0000
  H   H2668     1.0  0.87531  0.50747  0.69339  1.0000
  H   H2669     1.0  0.78488  0.72923  0.81881  1.0000
  H   H2670     1.0  0.81748  0.69912  0.66549  1.0000
  H   H2671     1.0  0.79729  0.72578  0.71260  1.0000
  H   H2672     1.0  0.78204  0.62360  0.96480  1.0000
  H   H2673     1.0  0.50781  0.63962  0.65165  1.0000
  H   H2674     1.0  0.50673  0.61803  0.68377  1.0000
  H   H2675     1.0  0.93983  0.90910  0.23760  1.0000
  S   S333      1.0  0.69702  0.97715  0.03783  1.0000
  Fe  Fe167     1.0  0.62681  0.95496  0.07989  1.0000
  S   S334      1.0  0.63033  0.93398  0.03646  1.0000
  S   S335      1.0  0.58966  0.94258  0.11202  1.0000
  Fe  Fe168     1.0  0.66741  0.93660  0.06010  1.0000
  S   S336      1.0  0.67395  0.90005  0.05808  1.0000
  Fe  Fe169     1.0  0.65968  0.97640  0.01801  1.0000
  H   H2676     1.0  0.58278  0.87439  0.04301  1.0000
  S   S337      1.0  0.66241  0.95510  0.10455  1.0000
  H   H2677     1.0  0.00342  0.91836  0.23708  1.0000
  S   S338      1.0  0.87537  0.79023  0.10720  1.0000
  H   H2678     1.0  0.63113  0.89498  0.13372  1.0000
  Fe  Fe170     1.0  0.87595  0.81211  0.19487  1.0000
  S   S339      1.0  0.87874  0.83852  0.15381  1.0000
  S   S340      1.0  0.87375  0.82049  0.24687  1.0000
  Fe  Fe171     1.0  0.84566  0.79973  0.13216  1.0000
  S   S341      1.0  0.81067  0.80233  0.10908  1.0000
  Fe  Fe172     1.0  0.90846  0.82705  0.13253  1.0000
  S   S342      1.0  0.94656  0.86125  0.10847  1.0000
  C   C1506     1.0  0.75978  0.77238  0.32984  1.0000
  S   S343      1.0  0.90826  0.80366  0.17579  1.0000
  Fe  Fe173     1.0  0.81878  0.89783  0.34076  1.0000
  S   S344      1.0  0.84371  0.89678  0.38139  1.0000
  S   S345      1.0  0.83363  0.90244  0.29015  1.0000
  Fe  Fe174     1.0  0.77109  0.88781  0.38353  1.0000
  S   S346      1.0  0.79165  0.88442  0.42737  1.0000
  S   S347      1.0  0.73031  0.88638  0.38193  1.0000
  Fe  Fe175     1.0  0.82907  0.92146  0.40806  1.0000
  S   S348      1.0  0.85413  0.95242  0.44573  1.0000
  Fe  Fe176     1.0  0.80440  0.86015  0.39708  1.0000
  S   S349      1.0  0.80842  0.82382  0.41089  1.0000
  S   S350      1.0  0.80779  0.92631  0.36574  1.0000
  S   S351      1.0  0.78016  0.85977  0.35484  1.0000
  S   S352      1.0  0.66905  0.83157  0.18056  1.0000
  N   N83       1.0  0.96421  0.89449  0.21385  1.0000
  H   H2679     1.0  0.96920  0.82464  0.19143  1.0000
  C   C1507     1.0  0.61146  0.83381  0.41278  1.0000
  H   H2680     1.0  0.76738  0.98542  0.35169  1.0000
  H   H2681     1.0  0.79604  0.76813  0.40900  1.0000
  H   H2682     1.0  0.92303  0.87300  0.23340  1.0000
  C   C1508     1.0  0.59076  0.86093  0.05119  1.0000
  H   H2683     1.0  0.97690  0.87022  0.24151  1.0000
  H   H2684     1.0  0.95631  0.92499  0.12831  1.0000
  H   H2685     1.0  0.98453  0.87077  0.16941  1.0000
  H   H2686     1.0  0.98608  0.93671  0.22985  1.0000
  H   H2687     1.0  0.75138  0.83634  0.28625  1.0000
  C   C1509     1.0  0.78689  0.98955  0.36287  1.0000
  H   H2688     1.0  0.72814  0.86082  0.26831  1.0000
  C   C1510     1.0  0.50690  0.89590  0.12351  1.0000
  C   C1511     1.0  0.62595  0.89989  0.18264  1.0000
  H   H2689     1.0  0.56121  0.84940  0.10260  1.0000
  H   H2690     1.0  0.78691  0.75369  0.14875  1.0000
  H   H2691     1.0  0.72186  0.98125  0.44407  1.0000
  C   C1512     1.0  0.65162  0.92807  0.18568  1.0000
  C   C1513     1.0  0.79239  0.80192  0.21584  1.0000
  H   H2692     1.0  0.65445  0.84282  0.06769  1.0000
  H   H2693     1.0  0.75445  0.77442  0.35453  1.0000
  C   C1514     1.0  0.71240  0.88184  0.41763  1.0000
  C   C1515     1.0  0.69087  0.88753  0.41841  1.0000
  C   C1516     1.0  0.67673  0.88499  0.44678  1.0000
  H   H2694     1.0  0.88405  0.76304  0.29794  1.0000
  H   H2695     1.0  0.96660  0.89655  0.16245  1.0000
  C   C1517     1.0  0.71925  0.87284  0.44519  1.0000
  H   H2696     1.0  0.68520  0.89408  0.39700  1.0000
  H   H2697     1.0  0.66034  0.88965  0.44709  1.0000
  C   C1518     1.0  0.51574  0.84796  0.17891  1.0000
  H   H2698     1.0  0.73547  0.86789  0.44472  1.0000
  C   C1519     1.0  0.77770  0.79310  0.41792  1.0000
  C   C1520     1.0  0.75370  0.79314  0.42641  1.0000
  H   H2699     1.0  0.85463  0.76345  0.25756  1.0000
  C   C1521     1.0  0.60070  0.75780  0.36146  1.0000
  H   H2700     1.0  0.74502  0.93381  0.44192  1.0000
  C   C1522     1.0  0.77744  0.76822  0.41530  1.0000
  H   H2701     1.0  0.75389  0.81231  0.42882  1.0000
  C   C1523     1.0  0.98946  0.86915  0.19438  1.0000
  C   C1524     1.0  0.77672  0.77938  0.12119  1.0000
  Fe  Fe177     1.0  0.64973  0.78528  0.17879  1.0000
  H   H2702     1.0  0.81088  0.81724  0.22862  1.0000
  H   H2703     1.0  0.94888  0.85093  0.21562  1.0000
  H   H2704     1.0  0.61872  0.76678  0.34535  1.0000
  C   C1525     1.0  0.75542  0.78376  0.11123  1.0000
  H   H2705     1.0  0.93796  0.89115  0.32139  1.0000
  C   C1526     1.0  0.98950  0.84219  0.19795  1.0000
  H   H2706     1.0  0.75992  0.80058  0.09530  1.0000
  C   C1527     1.0  0.86223  0.84310  0.25822  1.0000
  C   C1528     1.0  0.85214  0.84141  0.28905  1.0000
  C   C1529     1.0  0.84321  0.85943  0.29901  1.0000
  C   C1530     1.0  0.84473  0.87957  0.27831  1.0000
  C   C1531     1.0  0.85516  0.88150  0.24761  1.0000
  C   C1532     1.0  0.86370  0.86320  0.23747  1.0000
  H   H2707     1.0  0.85126  0.82613  0.30534  1.0000
  H   H2708     1.0  0.83536  0.85786  0.32278  1.0000
  H   H2709     1.0  0.85683  0.89735  0.23173  1.0000
  H   H2710     1.0  0.87176  0.86489  0.21381  1.0000
  C   C1533     1.0  0.55438  0.91987  0.10415  1.0000
  C   C1534     1.0  0.54519  0.90724  0.07474  1.0000
  H   H2711     1.0  0.72113  0.82664  0.30960  1.0000
  C   C1535     1.0  0.97807  0.86186  0.10197  1.0000
  C   C1536     1.0  0.98264  0.84121  0.11350  1.0000
  C   C1537     1.0  0.53510  0.91399  0.12850  1.0000
  H   H2712     1.0  0.55977  0.91155  0.05580  1.0000
  H   H2713     1.0  0.77545  0.99950  0.06004  1.0000
  H   H2714     1.0  0.96642  0.82387  0.12597  1.0000
  H   H2715     1.0  0.54200  0.92364  0.15134  1.0000
  C   C1538     1.0  0.67076  0.88097  0.09280  1.0000
  C   C1539     1.0  0.67903  0.89358  0.12235  1.0000
  C   C1540     1.0  0.67799  0.87815  0.14919  1.0000
  C   C1541     1.0  0.66830  0.84993  0.14680  1.0000
  C   C1542     1.0  0.65915  0.83718  0.11744  1.0000
  C   C1543     1.0  0.66084  0.85273  0.09048  1.0000
  H   H2716     1.0  0.68693  0.91535  0.12433  1.0000
  H   H2717     1.0  0.68504  0.88819  0.17181  1.0000
  H   H2718     1.0  0.65154  0.81547  0.11526  1.0000
  N   N84       1.0  0.76561  0.97361  0.41899  1.0000
  C   C1544     1.0  0.76271  0.95468  0.44613  1.0000
  H   H2719     1.0  0.93520  0.91416  0.29389  1.0000
  H   H2720     1.0  0.80218  0.97476  0.39984  1.0000
  H   H2721     1.0  0.94718  0.86793  0.27794  1.0000
  H   H2722     1.0  0.69646  0.82919  0.26237  1.0000
  N   N85       1.0  0.78519  0.97633  0.02667  1.0000
  C   C1545     1.0  0.76647  0.97844  0.05070  1.0000
  N   N86       1.0  0.58760  0.86916  0.14285  1.0000
  H   H2723     1.0  0.89052  0.92718  0.42877  1.0000
  C   C1546     1.0  0.81362  0.98558  0.03944  1.0000
  H   H2724     1.0  0.93224  0.88135  0.45748  1.0000
  C   C1547     1.0  0.75829  0.95867  0.07949  1.0000
  C   C1548     1.0  0.94050  0.91281  0.17644  1.0000
  H   H2725     1.0  0.99884  0.94397  0.17417  1.0000
  C   C1549     1.0  0.67049  0.83025  0.33076  1.0000
  H   H2726     1.0  0.85968  0.86965  0.42709  1.0000
  C   C1550     1.0  0.74618  0.96752  0.10629  1.0000
  H   H2727     1.0  0.89965  0.86112  0.36231  1.0000
  C   C1551     1.0  0.58935  0.81088  0.19217  1.0000
  H   H2728     1.0  0.73963  0.95249  0.12606  1.0000
  H   H2729     1.0  0.72357  0.75817  0.23786  1.0000
  C   C1552     1.0  0.60242  0.86870  0.08464  1.0000
  H   H2730     1.0  0.90766  0.79480  0.25287  1.0000
  H   H2731     1.0  0.77173  0.93386  0.03745  1.0000
  H   H2732     1.0  0.81448  0.96822  0.05098  1.0000
  C   C1553     1.0  0.67807  0.75517  0.38012  1.0000
  C   C1554     1.0  0.79079  0.78377  0.32906  1.0000
  S   S353      1.0  0.53963  0.84831  0.47259  1.0000
  H   H2733     1.0  0.74236  0.93770  0.07230  1.0000
  H   H2734     1.0  0.77618  0.95764  0.08882  1.0000
  C   C1555     1.0  0.88033  0.87488  0.43592  1.0000
  H   H2735     1.0  0.58258  0.80237  0.21638  1.0000
  H   H2736     1.0  0.64686  0.94448  0.17986  1.0000
  H   H2737     1.0  0.57395  0.83928  0.05054  1.0000
  H   H2738     1.0  0.71925  0.79563  0.34497  1.0000
  H   H2739     1.0  0.60941  0.85431  0.09203  1.0000
  H   H2740     1.0  0.74701  0.97433  0.03915  1.0000
  S   S354      1.0  0.64517  0.76070  0.13524  1.0000
  H   H2741     1.0  0.69588  0.78522  0.26993  1.0000
  C   C1556     1.0  0.88483  0.75430  0.27471  1.0000
  C   C1557     1.0  0.53585  0.81577  0.46619  1.0000
  C   C1558     1.0  0.65135  0.78850  0.44951  1.0000
  C   C1559     1.0  0.95056  0.88883  0.27344  1.0000
  H   H2742     1.0  0.78194  0.90220  0.00798  1.0000
  C   C1560     1.0  0.00348  0.78610  0.45509  1.0000
  H   H2743     1.0  0.61195  0.81991  0.19074  1.0000
  H   H2744     1.0  0.72583  0.83750  0.23775  1.0000
  H   H2745     1.0  0.79776  0.78244  0.30484  1.0000
  H   H2746     1.0  0.71211  0.77032  0.11459  1.0000
  H   H2747     1.0  0.94768  0.91802  0.46207  1.0000
  C   C1561     1.0  0.59258  0.84393  0.40030  1.0000
  H   H2748     1.0  0.81472  0.75539  0.23952  1.0000
  H   H2749     1.0  0.62427  0.75757  0.40044  1.0000
  H   H2750     1.0  0.61214  0.78673  0.45397  1.0000
  H   H2751     1.0  0.50997  0.87997  0.04670  1.0000
  C   C1562     1.0  0.88695  0.85603  0.38411  1.0000
  H   H2752     1.0  0.75774  0.96171  0.46852  1.0000
  H   H2753     1.0  0.00518  0.84229  0.18185  1.0000
  H   H2754     1.0  0.91185  0.76856  0.23341  1.0000
  C   C1563     1.0  0.63100  0.79816  0.43928  1.0000
  H   H2755     1.0  0.77513  0.79146  0.23272  1.0000
  H   H2756     1.0  0.69031  0.77488  0.39270  1.0000
  C   C1564     1.0  0.93536  0.89792  0.47396  1.0000
  H   H2757     1.0  0.57615  0.82672  0.13539  1.0000
  H   H2758     1.0  0.94870  0.97871  0.43773  1.0000
  H   H2759     1.0  0.85231  0.89886  0.46053  1.0000
  C   C1565     1.0  0.72958  0.76826  0.43273  1.0000
  H   H2760     1.0  0.93766  0.99429  0.46713  1.0000
  H   H2761     1.0  0.76170  0.98791  0.11544  1.0000
  C   C1566     1.0  0.68796  0.95339  0.41563  1.0000
  H   H2762     1.0  0.92019  0.90449  0.18827  1.0000
  H   H2763     1.0  0.54205  0.78042  0.13439  1.0000
  H   H2764     1.0  0.93455  0.87192  0.17736  1.0000
  S   S355      1.0  0.65695  0.97784  0.47653  1.0000
  H   H2765     1.0  0.76386  0.91496  0.48405  1.0000
  C   C1567     1.0  0.72843  0.76680  0.12225  1.0000
  H   H2766     1.0  0.67093  0.79969  0.43612  1.0000
  C   C1568     1.0  0.78712  0.94984  0.45258  1.0000
  H   H2767     1.0  0.64261  0.76623  0.44591  1.0000
  H   H2768     1.0  0.60724  0.86341  0.03467  1.0000
  H   H2769     1.0  0.69024  0.84429  0.34245  1.0000
  H   H2770     1.0  0.99608  0.90030  0.07671  1.0000
  H   H2771     1.0  0.95445  0.93331  0.18648  1.0000
  H   H2772     1.0  0.61028  0.83362  0.43905  1.0000
  C   C1569     1.0  0.71545  0.96177  0.43151  1.0000
  H   H2773     1.0  0.97224  0.90397  0.27882  1.0000
  C   C1570     1.0  0.96883  0.87044  0.21756  1.0000
  H   H2774     1.0  0.56857  0.87087  0.18699  1.0000
  C   C1571     1.0  0.77231  0.94665  0.01699  1.0000
  C   C1572     1.0  0.60275  0.80474  0.40036  1.0000
  H   H2775     1.0  0.73793  0.97971  0.38861  1.0000
  H   H2776     1.0  0.79622  0.77178  0.34548  1.0000
  H   H2777     1.0  0.55849  0.78008  0.09774  1.0000
  C   C1573     1.0  0.73720  0.96488  0.40657  1.0000
  Fe  Fe178     1.0  0.68882  0.99549  0.08042  1.0000
  C   C1574     1.0  0.78168  0.97072  0.39206  1.0000
  C   C1575     1.0  0.93240  0.89333  0.29675  1.0000
  H   H2778     1.0  0.59835  0.86404  0.41102  1.0000
  C   C1576     1.0  0.64942  0.81223  0.38527  1.0000
  S   S356      1.0  0.66812  0.76481  0.20756  1.0000
  H   H2779     1.0  0.89742  0.89761  0.39142  1.0000
  H   H2780     1.0  0.58324  0.79024  0.41260  1.0000
  H   H2781     1.0  0.57795  0.88573  0.10159  1.0000
  H   H2782     1.0  0.77099  0.94910  0.38370  1.0000
  C   C1577     1.0  0.51695  0.88930  0.06968  1.0000
  H   H2783     1.0  0.67198  0.94819  0.43400  1.0000
  H   H2784     1.0  0.82858  0.99201  0.01954  1.0000
  H   H2785     1.0  0.72872  0.94484  0.39414  1.0000
  H   H2786     1.0  0.99454  0.83943  0.22264  1.0000
  C   C1578     1.0  0.55454  0.78525  0.46669  1.0000
  C   C1579     1.0  0.61010  0.76552  0.39620  1.0000
  C   C1580     1.0  0.86611  0.98781  0.44114  1.0000
  C   C1581     1.0  0.51134  0.79464  0.45355  1.0000
  C   C1582     1.0  0.53040  0.76434  0.45339  1.0000
  C   C1583     1.0  0.55726  0.81083  0.47318  1.0000
  C   C1584     1.0  0.99093  0.75878  0.46574  1.0000
  N   N87       1.0  0.62357  0.79551  0.40451  1.0000
  H   H2787     1.0  0.58613  0.76463  0.35422  1.0000
  S   S357      1.0  0.60693  0.75734  0.19694  1.0000
  H   H2788     1.0  0.92626  0.75567  0.46727  1.0000
  H   H2789     1.0  0.57949  0.79387  0.17491  1.0000
  H   H2790     1.0  0.57134  0.78174  0.47160  1.0000
  C   C1585     1.0  0.58947  0.84404  0.15119  1.0000
  H   H2791     1.0  0.55904  0.82314  0.18908  1.0000
  C   C1586     1.0  0.78649  0.99249  0.99744  1.0000
  H   H2792     1.0  0.75046  0.93851  0.00997  1.0000
  H   H2793     1.0  0.92821  0.93037  0.13834  1.0000
  H   H2794     1.0  0.66886  0.84037  0.30890  1.0000
  C   C1587     1.0  0.61472  0.89488  0.14838  1.0000
  H   H2795     1.0  0.80179  0.80545  0.33692  1.0000
  H   H2796     1.0  0.67031  0.81119  0.32391  1.0000
  N   N88       1.0  0.77838  0.85671  0.17630  1.0000
  C   C1588     1.0  0.78230  0.83990  0.20151  1.0000
  C   C1589     1.0  0.77578  0.87974  0.19112  1.0000
  C   C1590     1.0  0.75165  0.83808  0.15966  1.0000
  C   C1591     1.0  0.80103  0.86751  0.15172  1.0000
  C   C1592     1.0  0.83090  0.88225  0.16410  1.0000
  C   C1593     1.0  0.78477  0.81531  0.18933  1.0000
  C   C1594     1.0  0.74162  0.85210  0.13558  1.0000
  C   C1595     1.0  0.79265  0.89305  0.22151  1.0000
  C   C1596     1.0  0.79078  0.91816  0.23112  1.0000
  C   C1597     1.0  0.85128  0.88858  0.13699  1.0000
  C   C1598     1.0  0.71746  0.83084  0.11623  1.0000
  H   H2797     1.0  0.76498  0.83181  0.21873  1.0000
  H   H2798     1.0  0.80090  0.85270  0.21582  1.0000
  H   H2799     1.0  0.78069  0.89626  0.17340  1.0000
  H   H2800     1.0  0.75410  0.87239  0.19830  1.0000
  H   H2801     1.0  0.73477  0.82697  0.17723  1.0000
  H   H2802     1.0  0.75323  0.82201  0.14643  1.0000
  H   H2803     1.0  0.79860  0.85065  0.13588  1.0000
  H   H2804     1.0  0.79958  0.88237  0.13564  1.0000
  H   H2805     1.0  0.83443  0.86954  0.18137  1.0000
  H   H2806     1.0  0.83593  0.90202  0.17503  1.0000
  H   H2807     1.0  0.76496  0.79933  0.17944  1.0000
  H   H2808     1.0  0.80087  0.82185  0.17089  1.0000
  H   H2809     1.0  0.75791  0.86526  0.11852  1.0000
  H   H2810     1.0  0.73471  0.86490  0.14808  1.0000
  H   H2811     1.0  0.78447  0.87828  0.24161  1.0000
  H   H2812     1.0  0.81455  0.89951  0.21850  1.0000
  H   H2813     1.0  0.79964  0.93416  0.21237  1.0000
  H   H2814     1.0  0.76909  0.91249  0.23550  1.0000
  H   H2815     1.0  0.80255  0.92684  0.25330  1.0000
  H   H2816     1.0  0.87253  0.89919  0.14642  1.0000
  H   H2817     1.0  0.84759  0.86935  0.12543  1.0000
  H   H2818     1.0  0.84948  0.90202  0.11901  1.0000
  H   H2819     1.0  0.79700  0.78662  0.20550  1.0000
  H   H2820     1.0  0.72377  0.81857  0.10166  1.0000
  H   H2821     1.0  0.70029  0.81696  0.13208  1.0000
  H   H2822     1.0  0.71012  0.84135  0.10001  1.0000
  N   N89       1.0  0.72129  0.77676  0.30105  1.0000
  C   C1599     1.0  0.56563  0.87126  0.16110  1.0000
  H   H2823     1.0  0.76014  0.80938  0.31813  1.0000
  C   C1600     1.0  0.71795  0.79453  0.27654  1.0000
  C   C1601     1.0  0.75151  0.78877  0.30738  1.0000
  H   H2824     1.0  0.52037  0.84164  0.20197  1.0000
  H   H2825     1.0  0.99637  0.79103  0.43358  1.0000
  C   C1602     1.0  0.72859  0.82481  0.28595  1.0000
  H   H2826     1.0  0.65992  0.80018  0.38136  1.0000
  Fe  Fe179     1.0  0.87327  0.76742  0.15199  1.0000
  H   H2827     1.0  0.65935  0.93109  0.21037  1.0000
  C   C1603     1.0  0.71918  0.83888  0.26208  1.0000
  N   N90       1.0  0.88981  0.89698  0.46096  1.0000
  H   H2828     1.0  0.92231  0.92808  0.43156  1.0000
  C   C1604     1.0  0.53559  0.84931  0.15328  1.0000
  H   H2829     1.0  0.76288  0.79236  0.28474  1.0000
  H   H2830     1.0  0.59194  0.75336  0.41192  1.0000
  H   H2831     1.0  0.72902  0.79573  0.25434  1.0000
  C   C1605     1.0  0.86486  0.99896  0.41198  1.0000
  H   H2832     1.0  0.62750  0.80928  0.33991  1.0000
  H   H2833     1.0  0.61064  0.84792  0.14642  1.0000
  H   H2834     1.0  0.59663  0.80382  0.37530  1.0000
  C   C1606     1.0  0.70484  0.86993  0.47346  1.0000
  H   H2835     1.0  0.57088  0.82930  0.40666  1.0000
  H   H2836     1.0  0.85637  0.98584  0.39159  1.0000
  C   C1607     1.0  0.64636  0.82358  0.35276  1.0000
  H   H2837     1.0  0.66457  0.83049  0.39880  1.0000
  C   C1608     1.0  0.70610  0.77710  0.33058  1.0000
  H   H2838     1.0  0.82371  0.98922  0.34713  1.0000
  H   H2839     1.0  0.56734  0.89157  0.15664  1.0000
  H   H2840     1.0  0.92862  0.78256  0.27061  1.0000
  H   H2841     1.0  0.61337  0.91308  0.14069  1.0000
  H   H2842     1.0  0.61077  0.89906  0.19996  1.0000
  H   H2843     1.0  0.64567  0.84271  0.35643  1.0000
  C   C1609     1.0  0.54142  0.76745  0.11437  1.0000
  H   H2844     1.0  0.59164  0.84890  0.20353  1.0000
  H   H2845     1.0  0.64076  0.81992  0.44679  1.0000
  H   H2846     1.0  0.68771  0.77857  0.32381  1.0000
  C   C1610     1.0  0.58094  0.86824  0.10803  1.0000
  H   H2847     1.0  0.78830  0.93696  0.43350  1.0000
  S   S358      1.0  0.84096  0.77394  0.17481  1.0000
  C   C1611     1.0  0.58151  0.83273  0.18551  1.0000
  S   S359      1.0  0.62016  0.90040  0.47176  1.0000
  H   H2848     1.0  0.63193  0.88449  0.18910  1.0000
  H   H2849     1.0  0.66808  0.92987  0.16961  1.0000
  H   H2850     1.0  0.91972  0.88802  0.41079  1.0000
  H   H2851     1.0  0.71180  0.94581  0.44938  1.0000
  H   H2852     1.0  0.51715  0.86822  0.18156  1.0000
  H   H2853     1.0  0.63277  0.84875  0.40574  1.0000
  H   H2854     1.0  0.86548  0.84924  0.37696  1.0000
  H   H2855     1.0  0.62047  0.88962  0.08332  1.0000
  H   H2856     1.0  0.59443  0.84646  0.37416  1.0000
  S   S360      1.0  0.65312  0.99736  0.05945  1.0000
  C   C1612     1.0  0.93057  0.97690  0.45042  1.0000
  H   H2857     1.0  0.65930  0.75414  0.37024  1.0000
  H   H2858     1.0  0.72799  0.96852  0.09787  1.0000
  H   H2859     1.0  0.68127  0.93507  0.40056  1.0000
  H   H2860     1.0  0.71123  0.76829  0.44021  1.0000
  H   H2861     1.0  0.53331  0.82871  0.15070  1.0000
  H   H2862     1.0  0.80705  0.96908  0.45336  1.0000
  H   H2863     1.0  0.89887  0.95013  0.48215  1.0000
  C   C1613     1.0  0.90969  0.77642  0.25671  1.0000
  H   H2864     1.0  0.87748  0.85545  0.44637  1.0000
  C   C1614     1.0  0.93648  0.91628  0.14127  1.0000
  H   H2865     1.0  0.91050  0.87793  0.29301  1.0000
  C   C1615     1.0  0.50850  0.76883  0.44746  1.0000
  H   H2866     1.0  0.88751  0.83893  0.39655  1.0000
  C   C1616     1.0  0.95180  0.89300  0.18172  1.0000
  C   C1617     1.0  0.99050  0.92126  0.21922  1.0000
  C   C1618     1.0  0.68365  0.87617  0.47444  1.0000
  H   H2867     1.0  0.52928  0.85462  0.13058  1.0000
  C   C1619     1.0  0.86456  0.89401  0.47743  1.0000
  H   H2868     1.0  0.79216  0.96361  0.32870  1.0000
  H   H2869     1.0  0.91655  0.97842  0.43304  1.0000
  H   H2870     1.0  0.92176  0.89626  0.13060  1.0000
  C   C1620     1.0  0.91566  0.94986  0.46873  1.0000
  H   H2871     1.0  0.83814  0.84881  0.47467  1.0000
  C   C1621     1.0  0.94332  0.89136  0.23854  1.0000
  C   C1622     1.0  0.90449  0.92509  0.44586  1.0000
  C   C1623     1.0  0.51396  0.75560  0.09719  1.0000
  C   C1624     1.0  0.99941  0.88422  0.08574  1.0000
  C   C1625     1.0  0.80358  0.98499  0.33752  1.0000
  H   H2872     1.0  0.68943  0.97045  0.40094  1.0000
  C   C1626     1.0  0.77072  0.75735  0.14132  1.0000
  C   C1627     1.0  0.89802  0.88120  0.40543  1.0000
  H   H2873     1.0  0.81455  0.00143  0.08734  1.0000
  H   H2874     1.0  0.51239  0.77308  0.08766  1.0000
  C   C1628     1.0  0.77818  0.00279  0.43015  1.0000
  H   H2875     1.0  0.80745  0.99904  0.31720  1.0000
  H   H2876     1.0  0.57628  0.82699  0.48262  1.0000
  H   H2877     1.0  0.80060  0.93058  0.48718  1.0000
  H   H2878     1.0  0.80936  0.95103  0.99290  1.0000
  H   H2879     1.0  0.80739  0.86733  0.48664  1.0000
  C   C1629     1.0  0.90728  0.89339  0.48545  1.0000
  H   H2880     1.0  0.93047  0.94949  0.48577  1.0000
  C   C1630     1.0  0.78344  0.93477  0.48395  1.0000
  C   C1631     1.0  0.78681  0.94055  0.98947  1.0000
  C   C1632     1.0  0.65783  0.79349  0.48486  1.0000
  Fe  Fe180     1.0  0.82818  0.97312  0.87264  1.0000
  H   H2881     1.0  0.52364  0.77380  0.62212  1.0000
  Fe  Fe181     1.0  0.78207  0.93308  0.82955  1.0000
  S   S361      1.0  0.80381  0.95573  0.78536  1.0000
  S   S362      1.0  0.74202  0.89296  0.83259  1.0000
  Fe  Fe182     1.0  0.84117  0.95755  0.80766  1.0000
  S   S363      1.0  0.86833  0.94889  0.77484  1.0000
  H   H2882     1.0  0.70940  0.98757  0.50117  1.0000
  S   S364      1.0  0.81869  0.93301  0.85061  1.0000
  S   S365      1.0  0.78945  0.97084  0.85562  1.0000
  Fe  Fe183     1.0  0.60261  0.90098  0.56050  1.0000
  S   S366      1.0  0.59148  0.89684  0.61275  1.0000
  Fe  Fe184     1.0  0.92265  0.84225  0.75010  1.0000
  S   S367      1.0  0.90123  0.82255  0.70454  1.0000
  S   S368      1.0  0.90719  0.86035  0.78784  1.0000
  Fe  Fe185     1.0  0.96474  0.82302  0.74157  1.0000
  S   S369      1.0  0.94611  0.80158  0.69611  1.0000
  C   C1633     1.0  0.71607  0.99109  0.91287  1.0000
  Fe  Fe186     1.0  0.94379  0.83903  0.68418  1.0000
  S   S370      1.0  0.95617  0.85553  0.63429  1.0000
  Fe  Fe187     1.0  0.90557  0.78681  0.72035  1.0000
  C   C1634     1.0  0.95416  0.79680  0.55793  1.0000
  S   S371      1.0  0.96495  0.86184  0.72835  1.0000
  S   S372      1.0  0.92451  0.80515  0.76723  1.0000
  S   S373      1.0  0.66728  0.83539  0.71286  1.0000
  H   H2883     1.0  0.66003  0.79940  0.60827  1.0000
  H   H2884     1.0  0.73533  0.91481  0.94092  1.0000
  H   H2885     1.0  0.95033  0.89539  0.83766  1.0000
  C   C1635     1.0  0.70928  0.86142  0.57288  1.0000
  H   H2886     1.0  0.97872  0.89973  0.78919  1.0000
  C   C1636     1.0  0.81916  0.86436  0.50579  1.0000
  C   C1637     1.0  0.51262  0.79908  0.66928  1.0000
  H   H2887     1.0  0.88466  0.79093  0.61115  1.0000
  H   H2888     1.0  0.53030  0.81983  0.66469  1.0000
  C   C1638     1.0  0.55605  0.88100  0.62193  1.0000
  C   C1639     1.0  0.54759  0.87850  0.65367  1.0000
  C   C1640     1.0  0.88862  0.77704  0.62611  1.0000
  C   C1641     1.0  0.99120  0.86913  0.62451  1.0000
  H   H2889     1.0  0.93071  0.81052  0.84302  1.0000
  H   H2890     1.0  0.70012  0.99669  0.90779  1.0000
  H   H2891     1.0  0.56281  0.88709  0.67214  1.0000
  H   H2892     1.0  0.69559  0.78656  0.80793  1.0000
  H   H2893     1.0  0.98516  0.87438  0.57522  1.0000
  S   S374      1.0  0.64599  0.92501  0.54194  1.0000
  H   H2894     1.0  0.93159  0.79765  0.61454  1.0000
  S   S375      1.0  0.58537  0.91582  0.52203  1.0000
  H   H2895     1.0  0.78357  0.94744  0.50408  1.0000
  S   S376      1.0  0.62099  0.76365  0.75860  1.0000
  C   C1642     1.0  0.87839  0.92374  0.77894  1.0000
  C   C1643     1.0  0.89095  0.91860  0.75309  1.0000
  C   C1644     1.0  0.89957  0.89907  0.75524  1.0000
  C   C1645     1.0  0.89573  0.88440  0.78338  1.0000
  C   C1646     1.0  0.88315  0.88951  0.80926  1.0000
  C   C1647     1.0  0.87448  0.90901  0.80708  1.0000
  H   H2896     1.0  0.89422  0.92998  0.73128  1.0000
  H   H2897     1.0  0.90944  0.89559  0.73524  1.0000
  H   H2898     1.0  0.88034  0.87850  0.83126  1.0000
  H   H2899     1.0  0.86520  0.91299  0.82729  1.0000
  C   C1648     1.0  0.72169  0.87761  0.79886  1.0000
  C   C1649     1.0  0.69968  0.85073  0.80135  1.0000
  C   C1650     1.0  0.68333  0.83747  0.77492  1.0000
  C   C1651     1.0  0.68837  0.85125  0.74597  1.0000
  C   C1652     1.0  0.71021  0.87828  0.74347  1.0000
  C   C1653     1.0  0.72694  0.89141  0.76983  1.0000
  H   H2900     1.0  0.69546  0.83995  0.82376  1.0000
  H   H2901     1.0  0.66660  0.81669  0.77718  1.0000
  H   H2902     1.0  0.71428  0.88906  0.72112  1.0000
  H   H2903     1.0  0.74368  0.91225  0.76779  1.0000
  N   N91       1.0  0.93440  0.76674  0.56403  1.0000
  C   C1654     1.0  0.74030  0.91746  0.91525  1.0000
  S   S377      1.0  0.66584  0.87201  0.51030  1.0000
  H   H2904     1.0  0.54409  0.80164  0.79987  1.0000
  H   H2905     1.0  0.56118  0.77114  0.78089  1.0000
  H   H2906     1.0  0.52014  0.78572  0.67897  1.0000
  H   H2907     1.0  0.68258  0.98681  0.80143  1.0000
  Fe  Fe188     1.0  0.64017  0.78916  0.71504  1.0000
  H   H2908     1.0  0.56663  0.79899  0.66121  1.0000
  H   H2909     1.0  0.84495  0.82704  0.74576  1.0000
  C   C1655     1.0  0.50939  0.78515  0.76837  1.0000
  H   H2910     1.0  0.67038  0.87909  0.64748  1.0000
  C   C1656     1.0  0.97331  0.86417  0.83762  1.0000
  C   C1657     1.0  0.83834  0.83649  0.72714  1.0000
  H   H2911     1.0  0.53453  0.79495  0.54564  1.0000
  H   H2912     1.0  0.70383  0.81851  0.61945  1.0000
  H   H2913     1.0  0.96640  0.86708  0.86130  1.0000
  H   H2914     1.0  0.95688  0.91361  0.51877  1.0000
  H   H2915     1.0  0.96260  0.77191  0.77956  1.0000
  H   H2916     1.0  0.95349  0.76575  0.60829  1.0000
  C   C1658     1.0  0.72038  0.83231  0.66587  1.0000
  C   C1659     1.0  0.96979  0.91451  0.83224  1.0000
  C   C1660     1.0  0.64638  0.91553  0.95467  1.0000
  H   H2917     1.0  0.97944  0.92453  0.85490  1.0000
  H   H2918     1.0  0.94293  0.80825  0.55464  1.0000
  H   H2919     1.0  0.67074  0.80810  0.56732  1.0000
  H   H2920     1.0  0.99047  0.77593  0.57177  1.0000
  H   H2921     1.0  0.62293  0.79704  0.55344  1.0000
  C   C1661     1.0  0.00525  0.79597  0.76688  1.0000
  C   C1662     1.0  0.72597  0.99607  0.51914  1.0000
  C   C1663     1.0  0.98183  0.77210  0.77709  1.0000
  S   S378      1.0  0.60128  0.76865  0.68678  1.0000
  H   H2922     1.0  0.91073  0.90693  0.50613  1.0000
  H   H2923     1.0  0.99765  0.78842  0.65455  1.0000
  H   H2924     1.0  0.70067  0.81836  0.67785  1.0000
  H   H2925     1.0  0.74499  0.77073  0.72258  1.0000
  H   H2926     1.0  0.98696  0.84767  0.53094  1.0000
  H   H2927     1.0  0.70295  0.00010  0.85363  1.0000
  C   C1664     1.0  0.98940  0.90865  0.81204  1.0000
  H   H2928     1.0  0.76123  0.86637  0.56157  1.0000
  H   H2929     1.0  0.63656  0.89716  0.93932  1.0000
  H   H2930     1.0  0.61274  0.78603  0.59409  1.0000
  H   H2931     1.0  0.54239  0.87262  0.57354  1.0000
  H   H2932     1.0  0.99669  0.80991  0.62341  1.0000
  N   N92       1.0  0.60635  0.86481  0.72381  1.0000
  C   C1665     1.0  0.59230  0.87987  0.73581  1.0000
  C   C1666     1.0  0.63523  0.88546  0.71372  1.0000
  C   C1667     1.0  0.59105  0.84924  0.69458  1.0000
  C   C1668     1.0  0.60637  0.84477  0.74774  1.0000
  C   C1669     1.0  0.60820  0.85258  0.78330  1.0000
  C   C1670     1.0  0.56099  0.86193  0.74196  1.0000
  C   C1671     1.0  0.60433  0.83540  0.67555  1.0000
  C   C1672     1.0  0.65489  0.90430  0.73975  1.0000
  C   C1673     1.0  0.68186  0.92652  0.72528  1.0000
  C   C1674     1.0  0.61508  0.83452  0.80396  1.0000
  C   C1675     1.0  0.55018  0.87746  0.76117  1.0000
  C   C1676     1.0  0.58498  0.81639  0.65011  1.0000
  H   H2933     1.0  0.59507  0.89608  0.71852  1.0000
  H   H2934     1.0  0.60186  0.89109  0.75792  1.0000
  H   H2935     1.0  0.64588  0.87499  0.70387  1.0000
  H   H2936     1.0  0.63457  0.89861  0.69432  1.0000
  H   H2937     1.0  0.58834  0.86303  0.67778  1.0000
  H   H2938     1.0  0.57004  0.83268  0.70108  1.0000
  H   H2939     1.0  0.58743  0.82438  0.74560  1.0000
  H   H2940     1.0  0.62344  0.84077  0.74249  1.0000
  H   H2941     1.0  0.58827  0.84981  0.79164  1.0000
  H   H2942     1.0  0.62390  0.87408  0.78786  1.0000
  H   H2943     1.0  0.54963  0.85604  0.71921  1.0000
  H   H2944     1.0  0.55600  0.84283  0.75479  1.0000
  H   H2945     1.0  0.61010  0.82344  0.69142  1.0000
  H   H2946     1.0  0.62293  0.85103  0.66307  1.0000
  H   H2947     1.0  0.64603  0.91481  0.75331  1.0000
  H   H2948     1.0  0.66010  0.89214  0.75615  1.0000
  H   H2949     1.0  0.67817  0.94027  0.70969  1.0000
  H   H2950     1.0  0.69610  0.93901  0.74447  1.0000
  H   H2951     1.0  0.69182  0.91723  0.71129  1.0000
  H   H2952     1.0  0.61506  0.83972  0.82930  1.0000
  H   H2953     1.0  0.59970  0.81258  0.80068  1.0000
  H   H2954     1.0  0.63574  0.83790  0.79790  1.0000
  H   H2955     1.0  0.52773  0.86439  0.76462  1.0000
  H   H2956     1.0  0.55993  0.88279  0.78490  1.0000
  H   H2957     1.0  0.55413  0.89640  0.74850  1.0000
  H   H2958     1.0  0.68695  0.92210  0.94954  1.0000
  H   H2959     1.0  0.91496  0.77913  0.50986  1.0000
  H   H2960     1.0  0.57862  0.82783  0.63400  1.0000
  H   H2961     1.0  0.79996  0.99113  0.97908  1.0000
  H   H2962     1.0  0.62406  0.99999  0.50439  1.0000
  H   H2963     1.0  0.53291  0.80726  0.60938  1.0000
  H   H2964     1.0  0.66556  0.95226  0.90709  1.0000
  H   H2965     1.0  0.64513  0.90867  0.97963  1.0000
  H   H2966     1.0  0.82465  0.88039  0.52406  1.0000
  H   H2967     1.0  0.77872  0.90240  0.55223  1.0000
  H   H2968     1.0  0.68542  0.95176  0.96164  1.0000
  H   H2969     1.0  0.55874  0.78465  0.58498  1.0000
  H   H2970     1.0  0.96718  0.80632  0.57918  1.0000
  Fe  Fe189     1.0  0.81455  0.99372  0.81337  1.0000
  C   C1677     1.0  0.99988  0.87650  0.59304  1.0000
  C   C1678     1.0  0.72618  0.75323  0.71260  1.0000
  H   H2971     1.0  0.73992  0.82885  0.81770  1.0000
  H   H2972     1.0  0.71156  0.84303  0.57188  1.0000
  H   H2973     1.0  0.62513  0.76857  0.56936  1.0000
  H   H2974     1.0  0.59563  0.80797  0.63588  1.0000
  H   H2975     1.0  0.95317  0.92491  0.79116  1.0000
  H   H2976     1.0  0.87028  0.90891  0.49709  1.0000
  H   H2977     1.0  0.94708  0.93622  0.82850  1.0000
  H   H2978     1.0  0.71153  0.77592  0.77865  1.0000
  C   C1679     1.0  0.55802  0.76170  0.54433  1.0000
  C   C1680     1.0  0.52183  0.77462  0.55739  1.0000
  H   H2979     1.0  0.76239  0.93262  0.91184  1.0000
  H   H2980     1.0  0.99347  0.84023  0.85105  1.0000
  C   C1681     1.0  0.96236  0.93361  0.81454  1.0000
  H   H2981     1.0  0.78273  0.94754  0.96655  1.0000
  C   C1682     1.0  0.67644  0.93403  0.94539  1.0000
  H   H2982     1.0  0.68143  0.84352  0.64756  1.0000
  C   C1683     1.0  0.54320  0.77010  0.77028  1.0000
  H   H2983     1.0  0.64823  0.87467  0.61424  1.0000
  Fe  Fe190     1.0  0.57939  0.87823  0.49639  1.0000
  C   C1684     1.0  0.65700  0.80814  0.58608  1.0000
  H   H2984     1.0  0.67464  0.92533  0.60438  1.0000
  N   N93       1.0  0.70796  0.96348  0.89899  1.0000
  C   C1685     1.0  0.70810  0.96439  0.86322  1.0000
  C   C1686     1.0  0.72823  0.95509  0.90972  1.0000
  C   C1687     1.0  0.67923  0.94339  0.91022  1.0000
  C   C1688     1.0  0.75844  0.88330  0.55238  1.0000
  H   H2985     1.0  0.75083  0.87869  0.52764  1.0000
  C   C1689     1.0  0.69272  0.97796  0.84796  1.0000
  C   C1690     1.0  0.94984  0.81429  0.85507  1.0000
  C   C1691     1.0  0.72236  0.92660  0.89804  1.0000
  C   C1692     1.0  0.53338  0.78718  0.78111  1.0000
  C   C1693     1.0  0.69229  0.97560  0.81188  1.0000
  C   C1694     1.0  0.53616  0.87063  0.59811  1.0000
  H   H2986     1.0  0.69872  0.94328  0.85350  1.0000
  H   H2987     1.0  0.72947  0.97495  0.85378  1.0000
  H   H2988     1.0  0.74916  0.96994  0.90102  1.0000
  H   H2989     1.0  0.73011  0.95602  0.93599  1.0000
  H   H2990     1.0  0.66981  0.92462  0.89538  1.0000
  H   H2991     1.0  0.65391  0.84321  0.57094  1.0000
  H   H2992     1.0  0.71770  0.98408  0.54137  1.0000
  S   S379      1.0  0.65535  0.76215  0.69562  1.0000
  H   H2993     1.0  0.72163  0.77863  0.81978  1.0000
  H   H2994     1.0  0.73638  0.89754  0.90559  1.0000
  H   H2995     1.0  0.67119  0.96811  0.85649  1.0000
  C   C1695     1.0  0.54304  0.76725  0.57089  1.0000
  S   S380      1.0  0.59443  0.86260  0.53592  1.0000
  H   H2996     1.0  0.98329  0.79154  0.52716  1.0000
  H   H2997     1.0  0.70069  0.91054  0.90179  1.0000
  H   H2998     1.0  0.72684  0.92753  0.87230  1.0000
  H   H2999     1.0  0.94118  0.87689  0.51426  1.0000
  S   S381      1.0  0.84029  0.98439  0.92395  1.0000
  H   H3000     1.0  0.73142  0.85153  0.67972  1.0000
  H   H3001     1.0  0.94904  0.81936  0.88031  1.0000
  H   H3002     1.0  0.89980  0.77353  0.56645  1.0000
  H   H3003     1.0  0.68039  0.95383  0.80456  1.0000
  C   C1696     1.0  0.62763  0.78889  0.57509  1.0000
  H   H3004     1.0  0.71311  0.87411  0.64374  1.0000
  H   H3005     1.0  0.00410  0.86717  0.67197  1.0000
  N   N94       1.0  0.78803  0.84878  0.77965  1.0000
  C   C1697     1.0  0.81289  0.84722  0.76926  1.0000
  C   C1698     1.0  0.79450  0.86378  0.81082  1.0000
  C   C1699     1.0  0.76407  0.82009  0.78279  1.0000
  C   C1700     1.0  0.78072  0.86412  0.75583  1.0000
  C   C1701     1.0  0.80427  0.89294  0.74633  1.0000
  C   C1702     1.0  0.81117  0.83474  0.73607  1.0000
  C   C1703     1.0  0.73701  0.81773  0.79515  1.0000
  C   C1704     1.0  0.79720  0.84830  0.83986  1.0000
  C   C1705     1.0  0.80483  0.86580  0.86970  1.0000
  C   C1706     1.0  0.79475  0.90607  0.72140  1.0000
  C   C1707     1.0  0.90927  0.76379  0.58073  1.0000
  H   H3006     1.0  0.64735  0.83467  0.61184  1.0000
  H   H3007     1.0  0.81710  0.83464  0.78622  1.0000
  H   H3008     1.0  0.83165  0.86777  0.77001  1.0000
  H   H3009     1.0  0.81414  0.88356  0.80897  1.0000
  H   H3010     1.0  0.77887  0.86971  0.81668  1.0000
  H   H3011     1.0  0.76950  0.80731  0.79795  1.0000
  H   H3012     1.0  0.75888  0.80983  0.75937  1.0000
  H   H3013     1.0  0.77206  0.85186  0.73395  1.0000
  H   H3014     1.0  0.76404  0.86726  0.76535  1.0000
  H   H3015     1.0  0.82209  0.89222  0.73625  1.0000
  H   H3016     1.0  0.81121  0.90653  0.76727  1.0000
  H   H3017     1.0  0.79517  0.81278  0.73582  1.0000
  H   H3018     1.0  0.80643  0.84559  0.71737  1.0000
  H   H3019     1.0  0.72872  0.82609  0.77724  1.0000
  C   C1708     1.0  0.97336  0.80413  0.52864  1.0000
  H   H3020     1.0  0.77756  0.82929  0.84488  1.0000
  H   H3021     1.0  0.81337  0.84287  0.83595  1.0000
  H   H3022     1.0  0.80569  0.85389  0.89025  1.0000
  H   H3023     1.0  0.82533  0.88437  0.86689  1.0000
  H   H3024     1.0  0.78927  0.87193  0.87479  1.0000
  H   H3025     1.0  0.78844  0.89371  0.69940  1.0000
  H   H3026     1.0  0.77730  0.90802  0.73051  1.0000
  H   H3027     1.0  0.81190  0.92690  0.71563  1.0000
  H   H3028     1.0  0.83605  0.82560  0.70450  1.0000
  H   H3029     1.0  0.85453  0.85818  0.72385  1.0000
  C   C1709     1.0  0.91397  0.77643  0.61434  1.0000
  H   H3030     1.0  0.89205  0.78472  0.65079  1.0000
  C   C1710     1.0  0.90698  0.75678  0.51169  1.0000
  C   C1711     1.0  0.71521  0.78786  0.80073  1.0000
  H   H3031     1.0  0.98084  0.95403  0.81088  1.0000
  H   H3032     1.0  0.69996  0.86158  0.54974  1.0000
  C   C1712     1.0  0.66157  0.83717  0.59211  1.0000
  C   C1713     1.0  0.69948  0.85440  0.63154  1.0000
  H   H3033     1.0  0.71351  0.98483  0.80240  1.0000
  H   H3034     1.0  0.73297  0.82219  0.66550  1.0000
  S   S382      1.0  0.66121  0.98770  0.96617  1.0000
  H   H3035     1.0  0.51326  0.86341  0.68616  1.0000
  C   C1714     1.0  0.69035  0.88615  0.60065  1.0000
  C   C1715     1.0  0.97498  0.83751  0.83867  1.0000
  C   C1716     1.0  0.71519  0.83826  0.63199  1.0000
  C   C1717     1.0  0.73840  0.88708  0.57330  1.0000
  C   C1718     1.0  0.66936  0.88706  0.62374  1.0000
  H   H3036     1.0  0.91801  0.76402  0.63167  1.0000
  Fe  Fe191     1.0  0.63587  0.88774  0.51336  1.0000
  C   C1719     1.0  0.51951  0.86531  0.66163  1.0000
  H   H3037     1.0  0.71667  0.99037  0.93918  1.0000
  C   C1720     1.0  0.67469  0.91623  0.62775  1.0000
  H   H3038     1.0  0.80579  0.84401  0.51684  1.0000
  H   H3039     1.0  0.63494  0.92681  0.95270  1.0000
  H   H3040     1.0  0.69470  0.92925  0.63958  1.0000
  S   S383      1.0  0.00445  0.82611  0.75791  1.0000
  H   H3041     1.0  0.68622  0.89157  0.57659  1.0000
  H   H3042     1.0  0.71090  0.90320  0.60759  1.0000
  N   N95       1.0  0.69049  0.85940  0.59959  1.0000
  H   H3043     1.0  0.65821  0.91596  0.64250  1.0000
  H   H3044     1.0  0.57062  0.78063  0.53030  1.0000
  H   H3045     1.0  0.51199  0.81679  0.56772  1.0000
  H   H3046     1.0  0.73742  0.90507  0.56407  1.0000
  H   H3047     1.0  0.74680  0.89189  0.59769  1.0000
  H   H3048     1.0  0.73553  0.85030  0.62044  1.0000
  H   H3049     1.0  0.95585  0.85921  0.82125  1.0000
  N   N96       1.0  0.99869  0.89024  0.82702  1.0000
  H   H3050     1.0  0.95099  0.79521  0.85409  1.0000
  S   S384      1.0  0.85403  0.99796  0.83154  1.0000
  H   H3051     1.0  0.96166  0.80088  0.50639  1.0000
  H   H3052     1.0  0.97551  0.83072  0.81415  1.0000
  H   H3053     1.0  0.72580  0.75590  0.68655  1.0000
  H   H3054     1.0  0.74332  0.99361  0.51077  1.0000
  C   C1721     1.0  0.51504  0.78617  0.61231  1.0000
  H   H3055     1.0  0.85506  0.86105  0.51213  1.0000
  H   H3056     1.0  0.87155  0.75825  0.77698  1.0000
  C   C1722     1.0  0.95230  0.89691  0.50172  1.0000
  Fe  Fe192     1.0  0.62825  0.93703  0.50117  1.0000
  H   H3057     1.0  0.99986  0.87318  0.78190  1.0000
  H   H3058     1.0  0.63894  0.78127  0.49920  1.0000
  H   H3059     1.0  0.51059  0.76015  0.53774  1.0000
  H   H3060     1.0  0.78585  0.90611  0.96558  1.0000
  H   H3061     1.0  0.89631  0.87226  0.49533  1.0000
  C   C1723     1.0  0.84491  0.86547  0.49231  1.0000
  C   C1724     1.0  0.99592  0.83411  0.52930  1.0000
  H   H3062     1.0  0.87855  0.99670  0.48996  1.0000
  C   C1725     1.0  0.50811  0.85789  0.60602  1.0000
  H   H3063     1.0  0.57179  0.75494  0.55463  1.0000
  H   H3064     1.0  0.97208  0.89956  0.49281  1.0000
  H   H3065     1.0  0.67302  0.78722  0.49147  1.0000
  H   H3066     1.0  0.87038  0.75616  0.62596  1.0000
  C   C1726     1.0  0.97296  0.75466  0.57310  1.0000
  C   C1727     1.0  0.94704  0.75455  0.58548  1.0000
  H   H3067     1.0  0.75369  0.89831  0.98373  1.0000
  H   H3068     1.0  0.71010  0.86268  0.49454  1.0000
  H   H3069     1.0  0.76568  0.98356  0.98664  1.0000
  C   C1728     1.0  0.77634  0.90988  0.98662  1.0000
  H   H3070     1.0  0.00480  0.90837  0.87355  1.0000
  H   H3071     1.0  0.70807  0.75327  0.72301  1.0000
  H   H3072     1.0  0.66655  0.81545  0.49067  1.0000
