data_image0
_chemical_formula_structural       FeSCH3FeSHSHFeS2HSFeHFeSH3C6H5C4H4SC2HCH4C2H2CH2CHC2H4SHCSC2H7FeHCNCH3C2NC7H2CHCH15C2H8CH2CH5FeHC2H4NC3SC2SFeCH2SH5C2H2SHFeH2FeSH2CFeSH2SFeCFeCH2CHC2HCH2SCH2C4HC2H7C2H5CH5CHSH4CH4C2H2CH2CH2CHCSC2NHCH2CHCHCHCH5CNSC2H6CHCHCSH2C3H2C2H3FeS2FeS2FeSFeS4FeS2FeS2FeSFeS3C2HC6H4C8H4FeCHCH7C2H2C2HC6H7C3H6C2HC2H3C3H12CH7CH6CH6CHCH5C2H2CH2C3HCHCHC3H2CSH3C2H3SNH6NH3CHCHCSNCH2CH2CH10CH4SH4C3H8NC12H7CHFeCHCHC2H7CHC2H4C2H8CHCHC2FeS2FeS2FeSFeS4FeS2FeS2FeSFeS3C2HC6H4C8H4CHC2HFeH2CH3C2H4C6H4C2H2CH4CH2C2H2C2H2C2H3CH7C2HCHCH4CSHC2H4CH2CH5CHCNCHCHCH8CH2SC2FeCH2NC12H17CNH9CH4NC6HC5H25C2H6CH2CH2NCHCH7CH3CH2CH5SHC2HCH2C3H7C2HCHSHSHC4H2CH5FeSH2SHFeSFeHSCHFeS2HCH2FeSHSNC6H4C6H4C2H3FeH2CH6CHCH2CH3SN2CHCH2C2HC3H2CH3C4HCSHCH4CH3C2H2CHC7H8C2HCNCHCH2C2HCH3CH7C2HCH5SH10CSH3CHCH2SC2H4CH3FeSH2SHFeSFeS2C2FeS2HCHCFeSCSHC6H4C6H4CHC2HCH2CH2CH2SNC5SC4H21CHC2HCH3CNH4NC7H3CHC2H6CH7CHCHC3HC3HCH7FeH2CH3C2SH2C2H4SH3CH9NHCH3CH3CH2FeHSFeS2H2FeS3FeS2CHFeHFeS4HC6H4C6H4CHCHCH5CH2SC3H4C2H2CH3NHSC4H5CH13CH2FeH2NCHNC9HC2H7CH4CH6CHCH4C2HCNC2H3CH2CSC2H2CHSHCH2CH2C2H2CHCHC2H2FeHCHCH4C4HCHC2H2CH11CHCH3CHCH6CHFeH7CH2CFeNH8FeHSFeS2HSFeS3FeS2HCFeCFeS3H2C7H3C6H6C2HFeH8C2H10CHNCHCH2C2HC2H7C2HCH2C2NSH2SCH9CHNC5HCH2CH3CH5CSCH2FeCH3SH5C4H2SHCHCNSH3CHC3HCH4CH3CH6C2NHCHFeH3CH4CHCH3CH2CHC2HCH3C2HSH2C2H5SHCH2CFeS2FeS2FeSFeS4FeS2FeS2FeSFeS3HC7H7CFeC3H3C8H4C6H4C6H6SNC6H3C2H4CH9CH3C2H7CHNC12H22C2H6CH5CHCHCH4SCHC2H3CHCHCHCHCH4CH10SCH3C2H5SH3FeC2HNH5SH2C3H5SHCH3CH5C2H3CHNC2HCHCFeS2FeS2FeSFeS4FeS2FeS2FeSFeS4HC6H7C2H6CHC6H4C6H4C6H6CH2CHCHC3H3CH6NC2HC2H2CH11NHCH2CH3NC6HCHC2H3CH9CH3CH3C2H3SH3CH3CH3CH3C2FeH6C2H16NC7H2C3H9CH6CH2SH8NC12HC2H10CH3NCHCH2C3H3CHCSCH4CH3CH2CHFeHFeS2HSFeS3H2FeS2HSHCHC7H4C6H4CHCHCH4NHCH2CHCHCH3CHC2H6C2H5CH4CHC2NHC2HSHCHCHCHCFeCHCH2CH2C2H3CH3CH4CH2NH8CFeH7C4FeS2HSFeS3H2FeS2FeSC2SFeC6H4C6H6NH3C3HCH4CH3C2H2C2H2FeH6NC5HCHCH2C2H11CH4CH8CH4C3H2CHCH3C3H4CH3CHNH7C2H3CHCH3C2SH8CH3CHFeH2
_chemical_formula_sum              "Fe96 S192 C864 H1536 N48"
_cell_length_a       53.1157
_cell_length_b       52.9116
_cell_length_c       43.134
_cell_angle_alpha    90.0207
_cell_angle_beta     90.1835
_cell_angle_gamma    119.944

_space_group_name_H-M_alt    "P 1"
_space_group_IT_number       1

loop_
  _space_group_symop_operation_xyz
  'x, y, z'

loop_
  _atom_site_type_symbol
  _atom_site_label
  _atom_site_symmetry_multiplicity
  _atom_site_fract_x
  _atom_site_fract_y
  _atom_site_fract_z
  _atom_site_occupancy
  Fe  Fe1       1.0  0.45414  0.09561  0.46028  1.0000
  S   S1        1.0  0.47138  0.10235  0.41135  1.0000
  C   C1        1.0  0.28144  0.22874  0.07433  1.0000
  H   H1        1.0  0.38526  0.01738  0.44861  1.0000
  H   H2        1.0  0.33130  0.28337  0.21225  1.0000
  H   H3        1.0  0.38439  0.11641  0.01175  1.0000
  Fe  Fe2       1.0  0.46514  0.14193  0.40861  1.0000
  S   S2        1.0  0.44450  0.15384  0.36757  1.0000
  H   H4        1.0  0.45615  0.28632  0.02719  1.0000
  S   S3        1.0  0.44431  0.13276  0.45643  1.0000
  H   H5        1.0  0.35335  0.16999  0.13219  1.0000
  Fe  Fe3       1.0  0.46334  0.27345  0.22655  1.0000
  S   S4        1.0  0.41840  0.25336  0.20528  1.0000
  S   S5        1.0  0.47828  0.26041  0.27178  1.0000
  H   H6        1.0  0.44941  0.23070  0.37354  1.0000
  S   S6        1.0  0.44687  0.30021  0.14856  1.0000
  Fe  Fe4       1.0  0.42808  0.29947  0.19490  1.0000
  H   H7        1.0  0.35577  0.08675  0.03355  1.0000
  Fe  Fe5       1.0  0.44088  0.25628  0.15985  1.0000
  S   S7        1.0  0.42048  0.22154  0.12207  1.0000
  H   H8        1.0  0.43484  0.25642  0.47298  1.0000
  H   H9        1.0  0.39975  0.15239  0.17236  1.0000
  H   H10       1.0  0.42049  0.03668  0.12952  1.0000
  C   C2        1.0  0.48241  0.20848  0.34058  1.0000
  C   C3        1.0  0.47457  0.20425  0.05090  1.0000
  C   C4        1.0  0.44483  0.19326  0.04616  1.0000
  C   C5        1.0  0.42846  0.19852  0.06828  1.0000
  C   C6        1.0  0.44174  0.21519  0.09501  1.0000
  C   C7        1.0  0.47143  0.22600  0.09983  1.0000
  H   H11       1.0  0.38552  0.30700  0.06912  1.0000
  H   H12       1.0  0.43452  0.18093  0.02535  1.0000
  H   H13       1.0  0.40547  0.18997  0.06443  1.0000
  H   H14       1.0  0.43158  0.14890  0.17746  1.0000
  H   H15       1.0  0.48332  0.12025  0.10877  1.0000
  C   C8        1.0  0.45476  0.18350  0.34067  1.0000
  C   C9        1.0  0.43417  0.18203  0.31888  1.0000
  C   C10       1.0  0.44097  0.20489  0.29744  1.0000
  C   C11       1.0  0.46852  0.23000  0.29752  1.0000
  H   H16       1.0  0.03019  0.28935  0.22871  1.0000
  H   H17       1.0  0.30180  0.28720  0.19704  1.0000
  H   H18       1.0  0.41271  0.16295  0.31851  1.0000
  H   H19       1.0  0.42475  0.20317  0.28102  1.0000
  S   S8        1.0  0.49411  0.13085  0.98964  1.0000
  C   C12       1.0  0.41943  0.19833  0.43016  1.0000
  C   C13       1.0  0.41006  0.13414  0.13250  1.0000
  H   H20       1.0  0.26355  0.21888  0.09151  1.0000
  C   C14       1.0  0.48766  0.22035  0.07799  1.0000
  H   H21       1.0  0.44676  0.16029  0.10298  1.0000
  H   H22       1.0  0.41113  0.20884  0.44605  1.0000
  H   H23       1.0  0.37111  0.07917  1.00000  1.0000
  H   H24       1.0  0.33236  0.28884  0.15421  1.0000
  C   C15       1.0  0.43559  0.26154  0.36268  1.0000
  C   C16       1.0  0.40488  0.01977  0.99229  1.0000
  H   H25       1.0  0.28146  0.21118  0.06021  1.0000
  H   H26       1.0  0.45910  0.20255  0.41257  1.0000
  C   C17       1.0  0.40700  0.11276  0.06896  1.0000
  H   H27       1.0  0.27735  0.24299  0.05869  1.0000
  H   H28       1.0  0.45346  0.07332  0.09066  1.0000
  C   C18       1.0  0.31820  0.26730  0.16492  1.0000
  H   H29       1.0  0.39844  0.07490  0.11045  1.0000
  C   C19       1.0  0.03251  0.33089  0.32703  1.0000
  C   C20       1.0  0.48908  0.23154  0.31944  1.0000
  H   H30       1.0  0.02522  0.29490  0.26917  1.0000
  H   H31       1.0  0.45665  0.10958  0.05376  1.0000
  H   H32       1.0  0.47048  0.28334  0.41796  1.0000
  H   H33       1.0  0.29537  0.25177  0.20893  1.0000
  S   S9        1.0  0.39592  0.31637  0.20151  1.0000
  H   H34       1.0  0.45301  0.13962  0.13125  1.0000
  C   C21       1.0  0.41928  0.15451  0.16059  1.0000
  S   S10       1.0  0.48519  0.27414  0.18106  1.0000
  C   C22       1.0  0.47591  0.25595  0.46619  1.0000
  C   C23       1.0  0.42224  0.08667  0.10587  1.0000
  H   H35       1.0  0.40964  0.15387  0.42099  1.0000
  H   H36       1.0  0.43568  0.25284  0.42254  1.0000
  H   H37       1.0  0.42364  0.06205  0.06464  1.0000
  H   H38       1.0  0.41257  0.13472  0.06018  1.0000
  H   H39       1.0  0.29722  0.25599  0.15224  1.0000
  H   H40       1.0  0.41808  0.09820  0.02588  1.0000
  H   H41       1.0  0.30992  0.26457  0.10350  1.0000
  Fe  Fe6       1.0  0.48979  0.31841  0.17314  1.0000
  H   H42       1.0  0.45947  0.00554  0.38070  1.0000
  C   C24       1.0  0.46845  0.28517  0.04748  1.0000
  N   N1        1.0  0.43114  0.11530  0.08970  1.0000
  C   C25       1.0  0.31126  0.27264  0.19784  1.0000
  H   H43       1.0  0.45969  0.28970  0.06884  1.0000
  H   H44       1.0  0.41323  0.20090  0.40627  1.0000
  H   H45       1.0  0.03419  0.31199  0.33332  1.0000
  C   C26       1.0  0.45298  0.21170  0.43258  1.0000
  C   C27       1.0  0.37614  0.09384  0.02035  1.0000
  N   N2        1.0  0.34287  0.24298  0.13445  1.0000
  C   C28       1.0  0.36667  0.27176  0.12220  1.0000
  C   C29       1.0  0.33263  0.24811  0.16523  1.0000
  C   C30       1.0  0.35619  0.22397  0.14039  1.0000
  C   C31       1.0  0.31774  0.22744  0.11202  1.0000
  C   C32       1.0  0.31066  0.24684  0.09073  1.0000
  C   C33       1.0  0.38313  0.26967  0.09346  1.0000
  C   C34       1.0  0.33667  0.19455  0.15708  1.0000
  H   H46       1.0  0.44218  0.28474  0.36695  1.0000
  H   H47       1.0  0.37179  0.18602  0.16837  1.0000
  C   C35       1.0  0.03020  0.32836  0.41596  1.0000
  H   H48       1.0  0.38647  0.10462  0.08220  1.0000
  C   C36       1.0  0.35034  0.17506  0.15643  1.0000
  H   H49       1.0  0.38327  0.28341  0.14062  1.0000
  H   H50       1.0  0.35837  0.28672  0.11656  1.0000
  H   H51       1.0  0.31600  0.22717  0.17557  1.0000
  H   H52       1.0  0.35113  0.25784  0.18203  1.0000
  H   H53       1.0  0.37650  0.23609  0.15434  1.0000
  H   H54       1.0  0.36293  0.21844  0.11816  1.0000
  H   H55       1.0  0.32153  0.21313  0.09602  1.0000
  H   H56       1.0  0.29764  0.21227  0.12491  1.0000
  H   H57       1.0  0.32746  0.25731  0.07253  1.0000
  H   H58       1.0  0.45784  0.20233  0.45338  1.0000
  H   H59       1.0  0.39892  0.26285  0.10079  1.0000
  H   H60       1.0  0.36808  0.25334  0.07648  1.0000
  H   H61       1.0  0.31491  0.18250  0.14600  1.0000
  H   H62       1.0  0.33403  0.19835  0.18188  1.0000
  H   H63       1.0  0.46048  0.03147  0.40850  1.0000
  C   C37       1.0  0.41435  0.03506  0.10465  1.0000
  C   C38       1.0  0.45784  0.25924  0.41446  1.0000
  H   H64       1.0  0.43607  0.25825  0.33726  1.0000
  H   H65       1.0  0.38931  0.06924  0.04827  1.0000
  H   H66       1.0  0.33602  0.15426  0.16861  1.0000
  H   H67       1.0  0.41139  0.29654  0.05648  1.0000
  H   H68       1.0  0.39040  0.02516  0.10256  1.0000
  H   H69       1.0  0.46210  0.14500  0.05640  1.0000
  H   H70       1.0  0.48181  0.23846  0.12053  1.0000
  H   H71       1.0  0.49099  0.28001  0.46642  1.0000
  C   C39       1.0  0.39893  0.09221  0.04064  1.0000
  H   H72       1.0  0.08263  0.32154  0.24253  1.0000
  H   H73       1.0  0.40772  0.16191  0.46158  1.0000
  C   C40       1.0  0.42974  0.06510  0.08940  1.0000
  H   H74       1.0  0.39619  0.13949  0.11769  1.0000
  H   H75       1.0  0.11963  0.32809  0.27639  1.0000
  H   H76       1.0  0.42071  0.02046  0.09278  1.0000
  H   H77       1.0  0.39688  0.11137  0.14085  1.0000
  H   H78       1.0  0.46505  0.26271  0.04875  1.0000
  Fe  Fe7       1.0  0.48167  0.16543  0.98447  1.0000
  H   H79       1.0  0.41701  0.31542  0.09278  1.0000
  C   C41       1.0  0.40321  0.16578  0.43741  1.0000
  C   C42       1.0  0.45642  0.25378  0.37890  1.0000
  H   H80       1.0  0.43251  0.09050  0.12926  1.0000
  H   H81       1.0  0.43308  0.17758  0.15331  1.0000
  H   H82       1.0  0.41302  0.24726  0.37092  1.0000
  H   H83       1.0  0.47826  0.26751  0.36850  1.0000
  N   N3        1.0  0.47109  0.24468  0.43325  1.0000
  C   C43       1.0  0.40025  0.29901  0.07702  1.0000
  C   C44       1.0  0.48677  0.13603  0.09006  1.0000
  C   C45       1.0  0.43683  0.13830  0.11390  1.0000
  S   S11       1.0  0.43150  0.05727  0.99759  1.0000
  C   C46       1.0  0.00665  0.32694  0.31303  1.0000
  C   C47       1.0  0.45855  0.12611  0.07087  1.0000
  S   S12       1.0  0.47138  0.31968  0.21962  1.0000
  Fe  Fe8       1.0  0.48971  0.16253  0.47367  1.0000
  C   C48       1.0  0.02622  0.30308  0.24523  1.0000
  H   H84       1.0  0.37946  0.15698  0.43490  1.0000
  H   H85       1.0  0.03848  0.31876  0.43333  1.0000
  S   S13       1.0  0.49648  0.19912  0.02356  1.0000
  H   H86       1.0  0.03405  0.32232  0.39254  1.0000
  H   H87       1.0  0.00486  0.30108  0.23965  1.0000
  H   H88       1.0  0.42186  0.00589  0.02999  1.0000
  H   H89       1.0  0.48663  0.01934  0.41125  1.0000
  H   H90       1.0  0.49372  0.15760  0.10093  1.0000
  C   C49       1.0  0.46370  0.01241  0.40539  1.0000
  C   C50       1.0  0.38605  0.00358  0.46662  1.0000
  H   H91       1.0  0.49811  0.24436  0.39592  1.0000
  H   H92       1.0  0.20231  0.32410  0.62115  1.0000
  S   S14       1.0  0.46780  0.10810  0.92046  1.0000
  H   H93       1.0  0.46909  0.05386  0.61790  1.0000
  Fe  Fe9       1.0  0.45030  0.09959  0.96912  1.0000
  H   H94       1.0  0.48478  0.21343  0.87821  1.0000
  H   H95       1.0  0.42397  0.19096  0.56828  1.0000
  Fe  Fe10      1.0  0.45807  0.14517  0.91888  1.0000
  S   S15       1.0  0.43866  0.15186  0.87383  1.0000
  H   H96       1.0  0.43185  0.04282  0.62787  1.0000
  H   H97       1.0  0.43951  0.02760  0.59425  1.0000
  C   C51       1.0  0.43071  0.11068  0.54035  1.0000
  Fe  Fe11      1.0  0.48010  0.27116  0.72815  1.0000
  S   S16       1.0  0.44083  0.26082  0.69868  1.0000
  H   H98       1.0  0.47121  0.25863  0.52973  1.0000
  H   H99       1.0  0.48665  0.24629  0.48019  1.0000
  S   S17       1.0  0.48506  0.31263  0.64975  1.0000
  Fe  Fe12      1.0  0.45880  0.30924  0.69189  1.0000
  C   C52       1.0  0.46622  0.17675  0.65814  1.0000
  Fe  Fe13      1.0  0.46955  0.26480  0.65785  1.0000
  C   C53       1.0  0.49204  0.14040  0.83992  1.0000
  H   H100      1.0  0.42670  0.06423  0.57872  1.0000
  H   H101      1.0  0.43508  0.15412  0.62223  1.0000
  C   C54       1.0  0.44738  0.20189  0.56620  1.0000
  H   H102      1.0  0.40740  0.28100  0.73494  1.0000
  C   C55       1.0  0.44860  0.24926  0.48513  1.0000
  C   C56       1.0  0.48566  0.23254  0.83345  1.0000
  H   H103      1.0  0.37033  0.30717  0.71514  1.0000
  C   C57       1.0  0.46481  0.22285  0.58853  1.0000
  H   H104      1.0  0.48207  0.11794  0.54806  1.0000
  H   H105      1.0  0.43272  0.09102  0.53784  1.0000
  S   S18       1.0  0.43681  0.13406  0.96650  1.0000
  C   C58       1.0  0.40018  0.10292  0.52980  1.0000
  H   H106      1.0  0.46875  0.28884  0.51342  1.0000
  H   H107      1.0  0.39763  0.12251  0.53027  1.0000
  C   C59       1.0  0.45363  0.18142  0.84686  1.0000
  C   C60       1.0  0.44206  0.17686  0.81659  1.0000
  C   C61       1.0  0.45215  0.19991  0.79491  1.0000
  C   C62       1.0  0.47372  0.22809  0.80336  1.0000
  H   H108      1.0  0.31733  0.24258  0.84810  1.0000
  C   C63       1.0  0.47582  0.20941  0.85500  1.0000
  C   C64       1.0  0.36154  0.28334  0.71237  1.0000
  H   H109      1.0  0.44271  0.19601  0.77193  1.0000
  H   H110      1.0  0.48403  0.17345  0.59897  1.0000
  H   H111      1.0  0.44123  0.09479  0.62455  1.0000
  H   H112      1.0  0.33865  0.27338  0.70432  1.0000
  H   H113      1.0  0.49312  0.15407  0.62640  1.0000
  H   H114      1.0  0.48333  0.14955  0.82262  1.0000
  H   H115      1.0  0.47591  0.10018  0.81325  1.0000
  C   C65       1.0  0.33969  0.26038  0.84284  1.0000
  C   C66       1.0  0.37965  0.18875  0.79921  1.0000
  H   H116      1.0  0.44630  0.17886  0.52418  1.0000
  H   H117      1.0  0.38544  0.29522  0.80888  1.0000
  H   H118      1.0  0.39407  0.22790  0.82625  1.0000
  H   H119      1.0  0.39758  0.27625  0.83270  1.0000
  H   H120      1.0  0.48179  0.17422  0.67324  1.0000
  C   C67       1.0  0.45205  0.15168  0.63476  1.0000
  H   H121      1.0  0.49813  0.19723  0.76183  1.0000
  H   H122      1.0  0.43666  0.27609  0.81068  1.0000
  H   H123      1.0  0.38226  0.02611  0.95436  1.0000
  H   H124      1.0  0.42487  0.15535  0.80998  1.0000
  H   H125      1.0  0.44925  0.17692  0.67299  1.0000
  C   C68       1.0  0.47500  0.15243  0.61189  1.0000
  H   H126      1.0  0.35609  0.18081  0.80207  1.0000
  S   S19       1.0  0.49561  0.31905  0.72442  1.0000
  H   H127      1.0  0.42054  0.22849  0.80036  1.0000
  H   H128      1.0  0.44275  0.27902  0.77009  1.0000
  H   H129      1.0  0.40276  0.30621  0.75791  1.0000
  H   H130      1.0  0.01019  0.28562  0.91135  1.0000
  C   C69       1.0  0.38296  0.01038  0.96981  1.0000
  H   H131      1.0  0.36527  0.22475  0.77376  1.0000
  H   H132      1.0  0.45115  0.09973  0.84207  1.0000
  H   H133      1.0  0.38348  0.18194  0.77615  1.0000
  H   H134      1.0  0.44122  0.13107  0.64806  1.0000
  C   C70       1.0  0.45708  0.26480  0.51655  1.0000
  C   C71       1.0  0.49017  0.20872  0.53854  1.0000
  H   H135      1.0  0.33840  0.27952  0.83433  1.0000
  H   H136      1.0  0.43725  0.25842  0.53050  1.0000
  C   C72       1.0  0.39728  0.22191  0.80256  1.0000
  H   H137      1.0  0.33905  0.24346  0.79751  1.0000
  H   H138      1.0  0.38354  0.08573  0.54490  1.0000
  C   C73       1.0  0.44729  0.04770  0.60843  1.0000
  H   H139      1.0  0.44641  0.12746  0.52422  1.0000
  H   H140      1.0  0.45068  0.32798  0.76852  1.0000
  C   C74       1.0  0.44886  0.07214  0.58817  1.0000
  H   H141      1.0  0.37422  0.27963  0.69429  1.0000
  C   C75       1.0  0.38911  0.23743  0.77722  1.0000
  S   S20       1.0  0.44787  0.23000  0.62009  1.0000
  C   C76       1.0  0.43184  0.28431  0.78900  1.0000
  C   C77       1.0  0.45996  0.19494  0.54123  1.0000
  N   N4        1.0  0.46454  0.12721  0.58933  1.0000
  H   H142      1.0  0.35270  0.26636  0.86459  1.0000
  C   C78       1.0  0.35322  0.25005  0.81824  1.0000
  H   H143      1.0  0.35261  0.23015  0.82735  1.0000
  H   H144      1.0  0.38646  0.17849  0.81738  1.0000
  C   C79       1.0  0.38500  0.27402  0.81112  1.0000
  H   H145      1.0  0.39835  0.23494  0.75498  1.0000
  C   C80       1.0  0.39457  0.28252  0.75449  1.0000
  H   H146      1.0  0.39648  0.09435  0.50569  1.0000
  C   C81       1.0  0.43698  0.12287  0.57395  1.0000
  H   H147      1.0  0.43733  0.14398  0.57208  1.0000
  C   C82       1.0  0.48823  0.13538  0.56559  1.0000
  H   H148      1.0  0.35198  0.24587  0.73954  1.0000
  H   H149      1.0  0.47789  0.19807  0.64602  1.0000
  H   H150      1.0  0.41772  0.10882  0.58857  1.0000
  H   H151      1.0  0.46391  0.07543  0.56888  1.0000
  H   H152      1.0  0.43572  0.22551  0.48997  1.0000
  C   C83       1.0  0.45870  0.10036  0.60731  1.0000
  N   N5        1.0  0.39940  0.26923  0.78329  1.0000
  S   S21       1.0  0.48574  0.25878  0.77808  1.0000
  C   C84       1.0  0.36281  0.26975  0.74320  1.0000
  C   C85       1.0  0.49502  0.23697  0.58549  1.0000
  H   H153      1.0  0.35035  0.27494  0.76010  1.0000
  H   H154      1.0  0.47801  0.10464  0.62139  1.0000
  H   H155      1.0  0.48837  0.14635  0.86341  1.0000
  H   H156      1.0  0.42490  0.00612  0.53030  1.0000
  H   H157      1.0  0.49085  0.32237  0.79316  1.0000
  H   H158      1.0  0.43539  0.32538  0.80640  1.0000
  C   C86       1.0  0.44774  0.31806  0.79187  1.0000
  H   H159      1.0  0.47615  0.32275  0.83074  1.0000
  C   C87       1.0  0.47434  0.10721  0.83708  1.0000
  H   H160      1.0  0.48212  0.09676  0.85399  1.0000
  C   C88       1.0  0.40794  0.01565  0.48921  1.0000
  S   S22       1.0  0.43503  0.05358  0.49001  1.0000
  H   H161      1.0  0.49121  0.15466  0.55221  1.0000
  H   H162      1.0  0.41237  0.32152  0.64029  1.0000
  C   C89       1.0  0.47793  0.33002  0.80629  1.0000
  C   C90       1.0  0.48133  0.39606  0.17838  1.0000
  C   C91       1.0  0.30595  0.44282  0.38061  1.0000
  H   H163      1.0  0.39308  0.36383  0.10324  1.0000
  H   H164      1.0  0.23051  0.49351  0.27660  1.0000
  C   C92       1.0  0.02023  0.60498  0.28420  1.0000
  C   C93       1.0  0.02225  0.63217  0.34017  1.0000
  H   H165      1.0  0.16364  0.61229  0.41521  1.0000
  H   H166      1.0  0.02323  0.64286  0.36189  1.0000
  H   H167      1.0  0.23815  0.49829  0.17233  1.0000
  Fe  Fe14      1.0  0.33290  0.46845  0.11229  1.0000
  S   S23       1.0  0.32429  0.43624  0.15049  1.0000
  S   S24       1.0  0.36094  0.51764  0.11800  1.0000
  Fe  Fe15      1.0  0.28798  0.42243  0.06676  1.0000
  S   S25       1.0  0.27678  0.38680  0.10225  1.0000
  S   S26       1.0  0.26370  0.40909  0.01929  1.0000
  Fe  Fe16      1.0  0.27711  0.41843  0.13780  1.0000
  S   S27       1.0  0.23789  0.40874  0.16796  1.0000
  Fe  Fe17      1.0  0.32497  0.40717  0.11235  1.0000
  S   S28       1.0  0.35215  0.38385  0.11124  1.0000
  S   S29       1.0  0.28582  0.45254  0.10189  1.0000
  S   S30       1.0  0.33625  0.44094  0.07447  1.0000
  S   S31       1.0  0.20752  0.63085  0.29563  1.0000
  Fe  Fe18      1.0  0.18344  0.44171  0.40471  1.0000
  S   S32       1.0  0.17395  0.40556  0.37082  1.0000
  S   S33       1.0  0.20879  0.45383  0.45133  1.0000
  Fe  Fe19      1.0  0.16136  0.47103  0.35767  1.0000
  S   S34       1.0  0.15245  0.43787  0.32028  1.0000
  S   S35       1.0  0.14482  0.50308  0.35281  1.0000
  Fe  Fe20      1.0  0.13201  0.40509  0.35860  1.0000
  S   S36       1.0  0.08853  0.36271  0.35018  1.0000
  Fe  Fe21      1.0  0.19468  0.44094  0.33491  1.0000
  S   S37       1.0  0.23337  0.44441  0.30817  1.0000
  S   S38       1.0  0.13965  0.43809  0.39579  1.0000
  S   S39       1.0  0.20535  0.47720  0.36895  1.0000
  C   C94       1.0  0.05381  0.38314  0.32391  1.0000
  C   C95       1.0  0.05629  0.35900  0.33263  1.0000
  H   H168      1.0  0.07179  0.40493  0.32798  1.0000
  C   C96       1.0  0.18940  0.59478  0.31006  1.0000
  C   C97       1.0  0.16065  0.58163  0.32022  1.0000
  C   C98       1.0  0.14734  0.55347  0.33311  1.0000
  C   C99       1.0  0.16251  0.53810  0.33566  1.0000
  C   C100      1.0  0.19117  0.55110  0.32512  1.0000
  C   C101      1.0  0.20458  0.57941  0.31248  1.0000
  H   H169      1.0  0.14881  0.59330  0.31847  1.0000
  H   H170      1.0  0.12516  0.54354  0.34119  1.0000
  H   H171      1.0  0.20303  0.53946  0.32702  1.0000
  H   H172      1.0  0.22685  0.58950  0.30467  1.0000
  C   C102      1.0  0.04755  0.62494  0.29693  1.0000
  C   C103      1.0  0.04837  0.63847  0.32510  1.0000
  C   C104      1.0  0.23732  0.41895  0.20697  1.0000
  C   C105      1.0  0.25989  0.42494  0.22775  1.0000
  C   C106      1.0  0.25807  0.43220  0.25880  1.0000
  C   C107      1.0  0.23395  0.43397  0.26926  1.0000
  C   C108      1.0  0.21166  0.42853  0.24833  1.0000
  C   C109      1.0  0.21319  0.42072  0.21745  1.0000
  H   H173      1.0  0.27848  0.42347  0.22001  1.0000
  H   H174      1.0  0.27549  0.43650  0.27476  1.0000
  H   H175      1.0  0.19370  0.43108  0.25578  1.0000
  H   H176      1.0  0.19583  0.41646  0.20137  1.0000
  Fe  Fe22      1.0  0.12926  0.66172  0.28279  1.0000
  C   C110      1.0  0.09967  0.39300  0.24981  1.0000
  H   H177      1.0  0.08287  0.34337  0.18540  1.0000
  C   C111      1.0  0.24645  0.42202  0.99272  1.0000
  H   H178      1.0  0.34021  0.36589  0.17706  1.0000
  H   H179      1.0  0.48802  0.63376  0.10386  1.0000
  H   H180      1.0  0.32427  0.45853  0.30214  1.0000
  H   H181      1.0  0.26867  0.46669  0.00798  1.0000
  H   H182      1.0  0.45398  0.55691  0.10871  1.0000
  H   H183      1.0  0.08095  0.38905  0.23503  1.0000
  H   H184      1.0  0.32957  0.54710  0.15450  1.0000
  C   C112      1.0  0.38537  0.35873  0.12685  1.0000
  C   C113      1.0  0.36517  0.36663  0.13757  1.0000
  H   H185      1.0  0.39652  0.51010  0.02384  1.0000
  H   H186      1.0  0.46089  0.38250  0.16520  1.0000
  C   C114      1.0  0.39944  0.53082  0.03363  1.0000
  C   C115      1.0  0.38572  0.33709  0.17678  1.0000
  H   H187      1.0  0.27182  0.63478  0.41860  1.0000
  C   C116      1.0  0.44459  0.56003  0.17623  1.0000
  C   C117      1.0  0.43223  0.57640  0.16579  1.0000
  C   C118      1.0  0.40628  0.56296  0.14844  1.0000
  C   C119      1.0  0.39225  0.53299  0.14183  1.0000
  C   C120      1.0  0.40389  0.51632  0.15346  1.0000
  C   C121      1.0  0.42995  0.52981  0.17070  1.0000
  H   H188      1.0  0.49603  0.59812  0.01381  1.0000
  H   H189      1.0  0.39731  0.57593  0.13963  1.0000
  H   H190      1.0  0.39318  0.49316  0.14860  1.0000
  H   H191      1.0  0.43925  0.51693  0.17898  1.0000
  H   H192      1.0  0.24174  0.40497  0.42130  1.0000
  H   H193      1.0  0.14798  0.60909  0.37730  1.0000
  H   H194      1.0  0.43525  0.53690  0.06171  1.0000
  C   C122      1.0  0.43534  0.57855  0.05985  1.0000
  C   C123      1.0  0.43080  0.54991  0.04467  1.0000
  C   C124      1.0  0.10519  0.62357  0.17436  1.0000
  H   H195      1.0  0.42170  0.57143  0.08118  1.0000
  H   H196      1.0  0.42491  0.58776  0.04467  1.0000
  H   H197      1.0  0.13761  0.39505  0.15745  1.0000
  H   H198      1.0  0.43213  0.63200  0.13573  1.0000
  H   H199      1.0  0.32102  0.42778  0.32345  1.0000
  H   H200      1.0  0.28182  0.43850  0.33681  1.0000
  C   C125      1.0  0.36584  0.34535  0.18767  1.0000
  C   C126      1.0  0.10135  0.36604  0.18713  1.0000
  H   H201      1.0  0.12788  0.35707  0.15530  1.0000
  C   C127      1.0  0.48415  0.61013  0.01022  1.0000
  C   C128      1.0  0.07412  0.56174  0.30094  1.0000
  H   H202      1.0  0.47553  0.40022  0.20180  1.0000
  H   H203      1.0  0.03090  0.50452  0.36124  1.0000
  H   H204      1.0  0.45400  0.60451  0.11436  1.0000
  C   C129      1.0  0.12419  0.42405  0.24077  1.0000
  C   C130      1.0  0.11537  0.44685  0.24803  1.0000
  C   C131      1.0  0.25320  0.45122  0.99158  1.0000
  H   H205      1.0  0.49286  0.38348  0.18071  1.0000
  H   H206      1.0  0.00993  0.50993  0.39093  1.0000
  H   H207      1.0  0.14475  0.43060  0.25324  1.0000
  H   H208      1.0  0.12869  0.42515  0.21554  1.0000
  H   H209      1.0  0.09543  0.44215  0.23496  1.0000
  H   H210      1.0  0.11129  0.44716  0.27327  1.0000
  H   H211      1.0  0.31193  0.47326  0.18976  1.0000
  H   H212      1.0  0.39396  0.54213  0.01541  1.0000
  H   H213      1.0  0.27711  0.60801  0.37366  1.0000
  H   H214      1.0  0.21706  0.64491  0.42206  1.0000
  H   H215      1.0  0.29537  0.49642  0.42834  1.0000
  H   H216      1.0  0.28297  0.50628  0.27307  1.0000
  C   C132      1.0  0.02804  0.37917  0.30974  1.0000
  H   H217      1.0  0.26127  0.50708  0.40148  1.0000
  H   H218      1.0  0.26796  0.52867  0.15283  1.0000
  H   H219      1.0  0.35339  0.55582  0.18777  1.0000
  H   H220      1.0  0.25499  0.58400  0.40425  1.0000
  H   H221      1.0  0.26685  0.49607  0.11159  1.0000
  H   H222      1.0  0.16131  0.64263  0.39872  1.0000
  H   H223      1.0  0.27980  0.65750  0.36868  1.0000
  C   C133      1.0  0.09135  0.64186  0.18331  1.0000
  H   H224      1.0  0.20238  0.35853  0.35382  1.0000
  H   H225      1.0  0.23793  0.58745  0.36969  1.0000
  H   H226      1.0  0.48460  0.58743  0.12662  1.0000
  H   H227      1.0  0.05051  0.57722  0.32744  1.0000
  H   H228      1.0  0.09514  0.57916  0.31046  1.0000
  H   H229      1.0  0.42957  0.62511  0.07825  1.0000
  C   C134      1.0  0.35567  0.36002  0.16831  1.0000
  H   H230      1.0  0.46652  0.63271  0.03428  1.0000
  H   H231      1.0  0.14156  0.38907  0.21372  1.0000
  H   H232      1.0  0.41147  0.33881  0.13771  1.0000
  H   H233      1.0  0.36625  0.51032  0.22987  1.0000
  H   H234      1.0  0.07051  0.56920  0.27812  1.0000
  H   H235      1.0  0.14546  0.35395  0.32436  1.0000
  C   C135      1.0  0.24079  0.39639  0.37209  1.0000
  H   H236      1.0  0.05433  0.54894  0.34564  1.0000
  C   C136      1.0  0.00417  0.35109  0.30437  1.0000
  H   H237      1.0  0.10524  0.36922  0.13698  1.0000
  H   H238      1.0  0.48783  0.54337  0.13299  1.0000
  H   H239      1.0  0.49052  0.64717  0.98202  1.0000
  H   H240      1.0  0.04394  0.34800  0.25780  1.0000
  H   H241      1.0  0.31929  0.55996  0.22156  1.0000
  C   C137      1.0  0.45112  0.63805  0.08958  1.0000
  C   C138      1.0  0.39579  0.34439  0.14633  1.0000
  H   H242      1.0  0.07562  0.54171  0.29764  1.0000
  H   H243      1.0  0.31499  0.46735  0.43668  1.0000
  C   C139      1.0  0.44688  0.65003  0.12016  1.0000
  H   H244      1.0  0.13314  0.46885  0.24135  1.0000
  H   H245      1.0  0.19917  0.36667  0.39367  1.0000
  C   C140      1.0  0.48548  0.58934  0.07599  1.0000
  C   C141      1.0  0.25394  0.62445  0.40137  1.0000
  C   C142      1.0  0.08002  0.33931  0.25311  1.0000
  H   H246      1.0  0.12037  0.37528  0.29496  1.0000
  C   C143      1.0  0.25765  0.40780  0.40296  1.0000
  H   H247      1.0  0.34812  0.46457  0.33456  1.0000
  C   C144      1.0  0.25620  0.59954  0.38620  1.0000
  H   H248      1.0  0.35799  0.34012  0.21122  1.0000
  C   C145      1.0  0.12880  0.37367  0.27189  1.0000
  C   C146      1.0  0.00900  0.49595  0.37129  1.0000
  C   C147      1.0  0.11993  0.36898  0.21602  1.0000
  H   H249      1.0  0.33977  0.50980  0.18187  1.0000
  H   H250      1.0  0.25575  0.52070  0.21738  1.0000
  C   C148      1.0  0.49326  0.55447  0.11013  1.0000
  S   S40       1.0  0.47882  0.57681  0.19493  1.0000
  H   H251      1.0  0.24352  0.63553  0.35642  1.0000
  H   H252      1.0  0.46271  0.59547  0.99941  1.0000
  H   H253      1.0  0.23276  0.61456  0.41344  1.0000
  C   C149      1.0  0.21421  0.36608  0.37622  1.0000
  C   C150      1.0  0.47994  0.62279  0.04083  1.0000
  H   H254      1.0  0.19741  0.61647  0.37313  1.0000
  H   H255      1.0  0.36803  0.59849  0.15446  1.0000
  H   H256      1.0  0.01922  0.59443  0.26239  1.0000
  S   S41       1.0  0.15496  0.65063  0.24933  1.0000
  N   N6        1.0  0.46625  0.60177  0.06742  1.0000
  H   H257      1.0  0.23861  0.46458  0.13172  1.0000
  H   H258      1.0  0.36009  0.48102  0.20413  1.0000
  H   H259      1.0  0.11262  0.62775  0.14989  1.0000
  H   H260      1.0  0.22089  0.35019  0.38375  1.0000
  H   H261      1.0  0.28475  0.40323  0.45638  1.0000
  H   H262      1.0  0.48673  0.50096  0.16737  1.0000
  N   N7        1.0  0.10671  0.36871  0.24697  1.0000
  H   H263      1.0  0.29560  0.55628  0.19110  1.0000
  H   H264      1.0  0.01675  0.55059  0.36989  1.0000
  H   H265      1.0  0.33784  0.47325  0.23818  1.0000
  C   C151      1.0  0.16521  0.62429  0.39352  1.0000
  H   H266      1.0  0.24175  0.53128  0.26884  1.0000
  C   C152      1.0  0.29531  0.44528  0.43569  1.0000
  H   H267      1.0  0.25477  0.39425  0.35445  1.0000
  C   C153      1.0  0.04961  0.55604  0.32337  1.0000
  S   S42       1.0  0.07968  0.63175  0.27665  1.0000
  N   N8        1.0  0.28256  0.43887  0.40328  1.0000
  C   C154      1.0  0.27080  0.45915  0.39710  1.0000
  H   H268      1.0  0.09268  0.39378  0.27398  1.0000
  H   H269      1.0  0.48575  0.57497  0.05748  1.0000
  C   C155      1.0  0.29251  0.49200  0.40299  1.0000
  H   H270      1.0  0.16523  0.33985  0.30362  1.0000
  H   H271      1.0  0.14901  0.39470  0.26863  1.0000
  C   C156      1.0  0.28147  0.51135  0.38945  1.0000
  H   H272      1.0  0.02658  0.39808  0.30289  1.0000
  H   H273      1.0  0.25153  0.45316  0.41196  1.0000
  H   H274      1.0  0.26231  0.45671  0.37310  1.0000
  H   H275      1.0  0.27968  0.44591  0.45240  1.0000
  H   H276      1.0  0.12404  0.62877  0.18960  1.0000
  H   H277      1.0  0.33298  0.59557  0.15871  1.0000
  H   H278      1.0  0.08902  0.60004  0.17694  1.0000
  H   H279      1.0  0.30809  0.47505  0.34671  1.0000
  H   H280      1.0  0.38413  0.52533  0.05331  1.0000
  H   H281      1.0  0.31412  0.49864  0.39293  1.0000
  C   C157      1.0  0.46567  0.61922  0.09488  1.0000
  H   H282      1.0  0.23296  0.41085  0.36321  1.0000
  H   H283      1.0  0.05033  0.34199  0.21845  1.0000
  H   H284      1.0  0.29802  0.53464  0.39297  1.0000
  H   H285      1.0  0.27712  0.50728  0.36418  1.0000
  S   S43       1.0  0.15770  0.66538  0.32372  1.0000
  H   H286      1.0  0.44524  0.55403  0.02463  1.0000
  H   H287      1.0  0.26537  0.39231  0.40866  1.0000
  H   H288      1.0  0.31630  0.41833  0.43160  1.0000
  H   H289      1.0  0.44309  0.59956  0.17056  1.0000
  C   C158      1.0  0.30362  0.45221  0.34703  1.0000
  C   C159      1.0  0.11919  0.37224  0.15748  1.0000
  C   C160      1.0  0.32566  0.45064  0.32560  1.0000
  H   H290      1.0  0.23145  0.49214  0.11659  1.0000
  H   H291      1.0  0.32782  0.45965  0.38915  1.0000
  H   H292      1.0  0.20386  0.39627  0.46157  1.0000
  H   H293      1.0  0.29263  0.54291  0.26268  1.0000
  H   H294      1.0  0.30708  0.42238  0.37909  1.0000
  H   H295      1.0  0.09281  0.38133  0.18784  1.0000
  H   H296      1.0  0.35691  0.60421  0.19197  1.0000
  H   H297      1.0  0.25432  0.52154  0.30324  1.0000
  N   N9        1.0  0.29262  0.51560  0.20534  1.0000
  C   C161      1.0  0.27973  0.49860  0.17573  1.0000
  C   C162      1.0  0.31108  0.50510  0.22145  1.0000
  C   C163      1.0  0.26761  0.50985  0.22646  1.0000
  C   C164      1.0  0.30997  0.54802  0.19951  1.0000
  C   C165      1.0  0.33598  0.55872  0.17704  1.0000
  C   C166      1.0  0.25801  0.50515  0.15831  1.0000
  C   C167      1.0  0.27539  0.51975  0.26083  1.0000
  C   C168      1.0  0.32767  0.49437  0.20064  1.0000
  C   C169      1.0  0.34923  0.48947  0.21954  1.0000
  C   C170      1.0  0.34919  0.59125  0.17023  1.0000
  C   C171      1.0  0.24819  0.48840  0.12771  1.0000
  C   C172      1.0  0.24883  0.51630  0.27832  1.0000
  H   H298      1.0  0.26805  0.47480  0.18084  1.0000
  H   H299      1.0  0.29681  0.50172  0.15891  1.0000
  H   H300      1.0  0.32694  0.52221  0.23747  1.0000
  H   H301      1.0  0.29733  0.48600  0.23636  1.0000
  H   H302      1.0  0.25147  0.48606  0.22693  1.0000
  H   H303      1.0  0.19475  0.64638  0.35661  1.0000
  H   H304      1.0  0.07749  0.33458  0.27851  1.0000
  C   C173      1.0  0.19496  0.63563  0.37851  1.0000
  H   H305      1.0  0.02123  0.51512  0.29966  1.0000
  Fe  Fe23      1.0  0.18476  0.65734  0.28915  1.0000
  C   C174      1.0  0.25705  0.64730  0.37704  1.0000
  H   H306      1.0  0.06911  0.65386  0.33528  1.0000
  C   C175      1.0  0.15779  0.35608  0.30283  1.0000
  H   H307      1.0  0.17726  0.37826  0.30188  1.0000
  C   C176      1.0  0.30437  0.42372  0.44901  1.0000
  C   C177      1.0  0.01942  0.53352  0.30977  1.0000
  H   H308      1.0  0.48743  0.43603  0.15921  1.0000
  H   H309      1.0  0.08292  0.63571  0.20725  1.0000
  H   H310      1.0  0.00319  0.56573  0.34287  1.0000
  H   H311      1.0  0.01561  0.46812  0.40327  1.0000
  H   H312      1.0  0.12448  0.35066  0.21437  1.0000
  H   H313      1.0  0.01661  0.54497  0.28947  1.0000
  H   H314      1.0  0.48617  0.53764  0.09165  1.0000
  C   C178      1.0  0.47770  0.57202  0.10679  1.0000
  H   H315      1.0  0.34495  0.45565  0.47123  1.0000
  C   C179      1.0  0.05011  0.33499  0.24264  1.0000
  C   C180      1.0  0.13848  0.35048  0.27436  1.0000
  H   H316      1.0  0.04271  0.35249  0.41841  1.0000
  H   H317      1.0  0.25948  0.65882  0.45067  1.0000
  H   H318      1.0  0.15140  0.35142  0.25376  1.0000
  H   H319      1.0  0.07272  0.63557  0.16740  1.0000
  C   C181      1.0  0.21966  0.65709  0.40031  1.0000
  C   C182      1.0  0.00022  0.46590  0.38454  1.0000
  H   H320      1.0  0.43716  0.66400  0.11555  1.0000
  H   H321      1.0  0.46814  0.66355  0.13195  1.0000
  H   H322      1.0  0.46514  0.65721  0.07488  1.0000
  H   H323      1.0  0.49306  0.51288  0.20715  1.0000
  H   H324      1.0  0.00106  0.45162  0.36617  1.0000
  H   H325      1.0  0.23374  0.33519  0.64559  1.0000
  H   H326      1.0  0.25778  0.61105  0.77703  1.0000
  H   H327      1.0  0.23284  0.62262  0.83596  1.0000
  C   C183      1.0  0.46854  0.45491  0.66691  1.0000
  H   H328      1.0  0.47696  0.47574  0.65405  1.0000
  C   C184      1.0  0.01067  0.61847  0.84021  1.0000
  H   H329      1.0  0.17553  0.34527  0.82875  1.0000
  C   C185      1.0  0.26662  0.60006  0.69661  1.0000
  C   C186      1.0  0.29101  0.39813  0.83935  1.0000
  Fe  Fe24      1.0  0.36717  0.47350  0.60996  1.0000
  S   S44       1.0  0.36295  0.44994  0.65452  1.0000
  S   S45       1.0  0.40660  0.51719  0.59815  1.0000
  Fe  Fe25      1.0  0.30664  0.42696  0.58527  1.0000
  S   S46       1.0  0.29888  0.39966  0.62840  1.0000
  S   S47       1.0  0.27061  0.40858  0.54763  1.0000
  Fe  Fe26      1.0  0.31693  0.44189  0.65489  1.0000
  S   S48       1.0  0.29974  0.45657  0.69552  1.0000
  Fe  Fe27      1.0  0.34557  0.40975  0.62446  1.0000
  S   S49       1.0  0.36003  0.37533  0.62324  1.0000
  S   S50       1.0  0.32259  0.46855  0.61212  1.0000
  S   S51       1.0  0.35197  0.43400  0.57945  1.0000
  S   S52       1.0  0.17599  0.62114  0.82900  1.0000
  Fe  Fe28      1.0  0.17577  0.43771  0.87447  1.0000
  S   S53       1.0  0.14921  0.39171  0.85628  1.0000
  S   S54       1.0  0.20504  0.45445  0.91836  1.0000
  Fe  Fe29      1.0  0.15805  0.46264  0.81859  1.0000
  S   S55       1.0  0.13152  0.41837  0.79670  1.0000
  S   S56       1.0  0.15633  0.49721  0.78857  1.0000
  Fe  Fe30      1.0  0.11415  0.40275  0.84430  1.0000
  S   S57       1.0  0.06515  0.37558  0.85477  1.0000
  Fe  Fe31      1.0  0.16854  0.41130  0.80962  1.0000
  S   S58       1.0  0.18477  0.38887  0.77653  1.0000
  S   S59       1.0  0.13930  0.44755  0.86603  1.0000
  S   S60       1.0  0.19651  0.45664  0.82802  1.0000
  C   C187      1.0  0.03824  0.36141  0.79656  1.0000
  C   C188      1.0  0.03508  0.36270  0.82862  1.0000
  H   H330      1.0  0.05946  0.36799  0.78710  1.0000
  C   C189      1.0  0.16731  0.58535  0.81868  1.0000
  C   C190      1.0  0.15548  0.57344  0.78974  1.0000
  C   C191      1.0  0.15229  0.54639  0.78089  1.0000
  C   C192      1.0  0.15961  0.53042  0.80143  1.0000
  C   C193      1.0  0.17013  0.54168  0.83096  1.0000
  C   C194      1.0  0.17423  0.56920  0.83941  1.0000
  H   H331      1.0  0.14941  0.58535  0.77396  1.0000
  H   H332      1.0  0.14414  0.53780  0.75799  1.0000
  H   H333      1.0  0.17588  0.52959  0.84692  1.0000
  H   H334      1.0  0.18332  0.57822  0.86191  1.0000
  C   C195      1.0  0.03496  0.62246  0.79096  1.0000
  C   C196      1.0  0.03643  0.62855  0.82272  1.0000
  C   C197      1.0  0.26727  0.43699  0.71711  1.0000
  C   C198      1.0  0.25159  0.40651  0.71796  1.0000
  C   C199      1.0  0.22643  0.39204  0.73640  1.0000
  C   C200      1.0  0.21673  0.40787  0.75407  1.0000
  C   C201      1.0  0.23246  0.43832  0.75321  1.0000
  C   C202      1.0  0.25756  0.45275  0.73482  1.0000
  H   H335      1.0  0.25906  0.39410  0.70483  1.0000
  H   H336      1.0  0.21443  0.36845  0.73703  1.0000
  H   H337      1.0  0.22512  0.45075  0.76649  1.0000
  H   H338      1.0  0.26928  0.47629  0.73415  1.0000
  C   C203      1.0  0.22016  0.44100  0.94699  1.0000
  H   H339      1.0  0.23928  0.44211  0.87919  1.0000
  C   C204      1.0  0.26124  0.45123  0.51981  1.0000
  C   C205      1.0  0.25460  0.42207  0.52036  1.0000
  H   H340      1.0  0.24595  0.48325  0.96824  1.0000
  Fe  Fe32      1.0  0.11594  0.66076  0.77826  1.0000
  H   H341      1.0  0.22093  0.38462  0.59596  1.0000
  H   H342      1.0  0.27697  0.46661  0.53608  1.0000
  C   C206      1.0  0.23491  0.43181  0.62766  1.0000
  H   H343      1.0  0.19699  0.39610  0.93265  1.0000
  H   H344      1.0  0.49161  0.37148  0.56904  1.0000
  H   H345      1.0  0.15559  0.39953  0.54751  1.0000
  C   C207      1.0  0.38370  0.36700  0.64493  1.0000
  C   C208      1.0  0.39512  0.37949  0.67391  1.0000
  H   H346      1.0  0.05400  0.55901  0.84689  1.0000
  H   H347      1.0  0.22840  0.37987  0.49915  1.0000
  H   H348      1.0  0.25889  0.64850  0.69785  1.0000
  H   H349      1.0  0.20637  0.40076  0.67659  1.0000
  C   C209      1.0  0.47161  0.57215  0.67425  1.0000
  C   C210      1.0  0.46843  0.58530  0.64757  1.0000
  C   C211      1.0  0.44896  0.56812  0.62406  1.0000
  C   C212      1.0  0.43243  0.53771  0.62708  1.0000
  C   C213      1.0  0.43649  0.52444  0.65318  1.0000
  C   C214      1.0  0.45587  0.54163  0.67679  1.0000
  H   H350      1.0  0.49554  0.56441  0.57562  1.0000
  H   H351      1.0  0.44600  0.57851  0.60387  1.0000
  H   H352      1.0  0.42432  0.50097  0.65538  1.0000
  H   H353      1.0  0.45833  0.53130  0.69731  1.0000
  C   C215      1.0  0.28101  0.47698  0.86391  1.0000
  C   C216      1.0  0.27002  0.49783  0.85542  1.0000
  H   H354      1.0  0.29881  0.48122  0.84769  1.0000
  H   H355      1.0  0.29018  0.48278  0.88770  1.0000
  C   C217      1.0  0.41865  0.34970  0.67903  1.0000
  H   H356      1.0  0.26213  0.49426  0.83106  1.0000
  H   H357      1.0  0.25212  0.49463  0.87115  1.0000
  H   H358      1.0  0.28795  0.52073  0.85781  1.0000
  H   H359      1.0  0.47606  0.48104  0.55766  1.0000
  C   C218      1.0  0.01376  0.35068  0.77675  1.0000
  H   H360      1.0  0.15300  0.38927  0.70683  1.0000
  H   H361      1.0  0.24209  0.37512  0.87696  1.0000
  C   C219      1.0  0.49575  0.36258  0.59056  1.0000
  C   C220      1.0  0.19155  0.40132  0.65866  1.0000
  H   H362      1.0  0.27155  0.42164  0.81864  1.0000
  H   H363      1.0  0.18561  0.36090  0.60987  1.0000
  C   C221      1.0  0.18550  0.40939  0.60386  1.0000
  C   C222      1.0  0.00728  0.60621  0.77708  1.0000
  H   H364      1.0  0.42038  0.38002  0.71356  1.0000
  H   H365      1.0  0.17964  0.42562  0.61247  1.0000
  C   C223      1.0  0.24835  0.61831  0.82306  1.0000
  C   C224      1.0  0.26756  0.48684  0.63083  1.0000
  H   H366      1.0  0.24667  0.43364  0.60566  1.0000
  H   H367      1.0  0.24828  0.42928  0.64599  1.0000
  H   H368      1.0  0.25227  0.48297  0.49861  1.0000
  C   C225      1.0  0.19059  0.35188  0.84892  1.0000
  H   H369      1.0  0.26810  0.50773  0.63561  1.0000
  H   H370      1.0  0.28215  0.48458  0.64766  1.0000
  H   H371      1.0  0.27563  0.48764  0.60690  1.0000
  H   H372      1.0  0.22487  0.39358  0.89183  1.0000
  H   H373      1.0  0.39010  0.39531  0.68356  1.0000
  H   H374      1.0  0.18542  0.42716  0.52568  1.0000
  H   H375      1.0  0.01028  0.44139  0.85633  1.0000
  C   C226      1.0  0.22651  0.44089  0.47699  1.0000
  C   C227      1.0  0.30391  0.41656  0.94354  1.0000
  H   H376      1.0  0.27752  0.64615  0.73071  1.0000
  C   C228      1.0  0.19167  0.62427  0.70587  1.0000
  H   H377      1.0  0.20636  0.62658  0.68652  1.0000
  C   C229      1.0  0.16227  0.59686  0.70033  1.0000
  H   H378      1.0  0.15983  0.35400  0.65392  1.0000
  H   H379      1.0  0.19931  0.60068  0.74248  1.0000
  H   H380      1.0  0.20759  0.39720  0.83955  1.0000
  H   H381      1.0  0.28884  0.39387  0.78889  1.0000
  C   C230      1.0  0.03616  0.56084  0.83563  1.0000
  S   S61       1.0  0.49296  0.59332  0.70582  1.0000
  H   H382      1.0  0.22471  0.59654  0.69646  1.0000
  C   C231      1.0  0.00712  0.35352  0.84046  1.0000
  C   C232      1.0  0.15184  0.36941  0.69663  1.0000
  H   H383      1.0  0.30366  0.44326  0.84004  1.0000
  H   H384      1.0  0.15128  0.64724  0.90634  1.0000
  H   H385      1.0  0.19313  0.66028  0.87771  1.0000
  H   H386      1.0  0.26818  0.66105  0.77939  1.0000
  C   C233      1.0  0.16087  0.37422  0.66257  1.0000
  H   H387      1.0  0.16436  0.38875  0.60148  1.0000
  H   H388      1.0  0.31094  0.38136  0.80769  1.0000
  C   C234      1.0  0.30463  0.39846  0.80804  1.0000
  H   H389      1.0  0.20234  0.40161  0.56037  1.0000
  H   H390      1.0  0.20641  0.60106  0.94408  1.0000
  H   H391      1.0  0.16456  0.57711  0.70027  1.0000
  H   H392      1.0  0.14657  0.59463  0.71855  1.0000
  H   H393      1.0  0.28546  0.60644  0.71233  1.0000
  C   C235      1.0  0.28192  0.40463  0.91692  1.0000
  H   H394      1.0  0.17157  0.58975  0.96206  1.0000
  C   C236      1.0  0.22373  0.34279  0.62796  1.0000
  N   N10       1.0  0.26485  0.42185  0.86812  1.0000
  C   C237      1.0  0.22628  0.40245  0.97088  1.0000
  H   H395      1.0  0.32642  0.42889  0.93448  1.0000
  C   C238      1.0  0.47881  0.43533  0.65218  1.0000
  H   H396      1.0  0.26014  0.39083  0.92738  1.0000
  C   C239      1.0  0.22011  0.36749  0.64149  1.0000
  H   H397      1.0  0.23203  0.65103  0.79011  1.0000
  H   H398      1.0  0.01169  0.42008  0.78990  1.0000
  H   H399      1.0  0.23901  0.66244  0.90016  1.0000
  H   H400      1.0  0.25732  0.57667  0.69043  1.0000
  H   H401      1.0  0.29978  0.43110  0.95869  1.0000
  H   H402      1.0  0.22751  0.38155  0.82200  1.0000
  H   H403      1.0  0.46892  0.42908  0.62866  1.0000
  H   H404      1.0  0.18815  0.64326  0.70498  1.0000
  C   C240      1.0  0.24185  0.61581  0.78828  1.0000
  H   H405      1.0  0.44441  0.44355  0.66648  1.0000
  H   H406      1.0  0.48199  0.47655  0.59786  1.0000
  S   S62       1.0  0.14431  0.64554  0.75514  1.0000
  C   C241      1.0  0.23735  0.39280  0.87156  1.0000
  C   C242      1.0  0.21303  0.41172  0.94848  1.0000
  Fe  Fe33      1.0  0.16514  0.65141  0.80184  1.0000
  C   C243      1.0  0.20479  0.62345  0.73784  1.0000
  H   H407      1.0  0.21965  0.59712  0.78481  1.0000
  H   H408      1.0  0.23812  0.35042  0.60732  1.0000
  N   N11       1.0  0.37839  0.54259  0.71351  1.0000
  C   C244      1.0  0.36480  0.54349  0.74385  1.0000
  C   C245      1.0  0.40860  0.56873  0.71203  1.0000
  C   C246      1.0  0.35960  0.54276  0.68726  1.0000
  C   C247      1.0  0.38060  0.51535  0.71081  1.0000
  C   C248      1.0  0.39654  0.50960  0.73771  1.0000
  C   C249      1.0  0.33509  0.51618  0.75137  1.0000
  C   C250      1.0  0.37188  0.54499  0.65413  1.0000
  C   C251      1.0  0.41058  0.59894  0.70987  1.0000
  C   C252      1.0  0.44222  0.62345  0.70797  1.0000
  C   C253      1.0  0.39615  0.48079  0.73286  1.0000
  C   C254      1.0  0.32378  0.51906  0.78295  1.0000
  C   C255      1.0  0.35269  0.54811  0.62977  1.0000
  H   H409      1.0  0.36104  0.56237  0.74424  1.0000
  H   H410      1.0  0.37994  0.54738  0.76352  1.0000
  H   H411      1.0  0.42149  0.56959  0.73280  1.0000
  H   H412      1.0  0.42066  0.56672  0.69216  1.0000
  H   H413      1.0  0.35449  0.56059  0.69044  1.0000
  H   H414      1.0  0.33815  0.52230  0.68735  1.0000
  H   H415      1.0  0.35877  0.49578  0.70790  1.0000
  H   H416      1.0  0.39225  0.51598  0.68931  1.0000
  H   H417      1.0  0.38610  0.50824  0.76033  1.0000
  H   H418      1.0  0.41961  0.52716  0.73905  1.0000
  H   H419      1.0  0.31865  0.51335  0.73378  1.0000
  H   H420      1.0  0.33663  0.49604  0.75196  1.0000
  H   H421      1.0  0.37264  0.52493  0.64849  1.0000
  H   H422      1.0  0.39401  0.56401  0.65158  1.0000
  H   H423      1.0  0.39929  0.60050  0.68892  1.0000
  H   H424      1.0  0.40088  0.60308  0.73062  1.0000
  H   H425      1.0  0.44324  0.64492  0.70727  1.0000
  C   C256      1.0  0.20714  0.37935  0.61706  1.0000
  N   N12       1.0  0.23693  0.64432  0.74160  1.0000
  H   H426      1.0  0.37343  0.46230  0.73181  1.0000
  H   H427      1.0  0.40746  0.48136  0.71102  1.0000
  H   H428      1.0  0.40751  0.47703  0.75243  1.0000
  H   H429      1.0  0.32074  0.53836  0.78340  1.0000
  H   H430      1.0  0.30243  0.49928  0.78744  1.0000
  H   H431      1.0  0.33910  0.52112  0.80168  1.0000
  H   H432      1.0  0.35247  0.56879  0.63321  1.0000
  H   H433      1.0  0.36142  0.54837  0.60630  1.0000
  H   H434      1.0  0.33017  0.52944  0.63094  1.0000
  C   C257      1.0  0.25534  0.63723  0.72061  1.0000
  H   H435      1.0  0.24584  0.44153  0.83897  1.0000
  H   H436      1.0  0.46430  0.49701  0.58703  1.0000
  H   H437      1.0  0.15341  0.59846  0.67751  1.0000
  H   H438      1.0  0.30185  0.39824  0.95798  1.0000
  N   N13       1.0  0.05231  0.45448  0.80868  1.0000
  C   C258      1.0  0.07099  0.44532  0.79109  1.0000
  C   C259      1.0  0.06669  0.46704  0.83952  1.0000
  C   C260      1.0  0.02258  0.42809  0.81276  1.0000
  C   C261      1.0  0.04911  0.47751  0.79140  1.0000
  C   C262      1.0  0.07790  0.50490  0.78162  1.0000
  C   C263      1.0  0.06175  0.43540  0.75704  1.0000
  H   H439      1.0  0.16619  0.36379  0.71015  1.0000
  C   C264      1.0  0.06746  0.44514  0.86281  1.0000
  C   C265      1.0  0.08201  0.46026  0.89324  1.0000
  C   C266      1.0  0.07202  0.52678  0.76458  1.0000
  C   C267      1.0  0.08339  0.42870  0.74105  1.0000
  C   C268      1.0  0.18331  0.59446  0.93965  1.0000
  H   H440      1.0  0.07126  0.42679  0.80299  1.0000
  H   H441      1.0  0.09407  0.46311  0.79116  1.0000
  H   H442      1.0  0.08977  0.48424  0.83602  1.0000
  H   H443      1.0  0.05638  0.47835  0.85116  1.0000
  H   H444      1.0  0.02441  0.40959  0.82231  1.0000
  H   H445      1.0  0.20582  0.35867  0.66203  1.0000
  H   H446      1.0  0.03525  0.46809  0.77040  1.0000
  H   H447      1.0  0.03736  0.48561  0.80593  1.0000
  H   H448      1.0  0.09068  0.49904  0.76590  1.0000
  H   H449      1.0  0.09148  0.51623  0.80218  1.0000
  H   H450      1.0  0.04016  0.41526  0.75614  1.0000
  H   H451      1.0  0.06072  0.45248  0.74318  1.0000
  H   H452      1.0  0.17334  0.57414  0.92555  1.0000
  H   H453      1.0  0.15781  0.61027  0.91733  1.0000
  H   H454      1.0  0.04538  0.42715  0.86850  1.0000
  H   H455      1.0  0.08008  0.43557  0.85308  1.0000
  H   H456      1.0  0.10452  0.47828  0.88904  1.0000
  H   H457      1.0  0.06936  0.46911  0.90477  1.0000
  H   H458      1.0  0.08310  0.44424  0.90904  1.0000
  H   H459      1.0  0.05903  0.51685  0.74323  1.0000
  H   H460      1.0  0.06030  0.53439  0.77980  1.0000
  H   H461      1.0  0.09298  0.54608  0.75780  1.0000
  H   H462      1.0  0.07678  0.42247  0.71653  1.0000
  H   H463      1.0  0.10558  0.44812  0.74149  1.0000
  H   H464      1.0  0.08385  0.41023  0.75268  1.0000
  C   C269      1.0  0.28277  0.42231  0.84079  1.0000
  C   C270      1.0  0.25613  0.44464  0.86225  1.0000
  H   H465      1.0  0.04365  0.57089  0.81239  1.0000
  H   H466      1.0  0.22284  0.46557  0.61781  1.0000
  H   H467      1.0  0.18918  0.42036  0.66514  1.0000
  H   H468      1.0  0.18272  0.64188  0.96342  1.0000
  H   H469      1.0  0.01542  0.51654  0.82009  1.0000
  H   H470      1.0  0.14454  0.37740  0.64964  1.0000
  C   C271      1.0  0.23655  0.46148  0.63413  1.0000
  H   H471      1.0  0.23593  0.59027  0.73321  1.0000
  H   H472      1.0  0.05741  0.64104  0.83383  1.0000
  C   C272      1.0  0.19782  0.41818  0.57057  1.0000
  H   H473      1.0  0.30525  0.44661  0.89365  1.0000
  H   H474      1.0  0.22950  0.46216  0.65816  1.0000
  N   N14       1.0  0.20474  0.40548  0.62685  1.0000
  C   C273      1.0  0.28221  0.42977  0.89803  1.0000
  H   H475      1.0  0.27370  0.43990  0.91466  1.0000
  C   C274      1.0  0.21643  0.38240  0.84339  1.0000
  H   H476      1.0  0.28680  0.39035  0.90255  1.0000
  H   H477      1.0  0.24599  0.59745  0.83168  1.0000
  H   H478      1.0  0.47492  0.34959  0.60313  1.0000
  H   H479      1.0  0.21820  0.43956  0.57043  1.0000
  H   H480      1.0  0.27190  0.37607  0.84220  1.0000
  H   H481      1.0  0.19250  0.62818  0.75564  1.0000
  H   H482      1.0  0.45481  0.62309  0.72843  1.0000
  C   C275      1.0  0.19479  0.64719  0.94115  1.0000
  H   H483      1.0  0.24165  0.38490  0.64954  1.0000
  H   H484      1.0  0.46974  0.41511  0.66602  1.0000
  H   H485      1.0  0.21738  0.65304  0.94765  1.0000
  C   C276      1.0  0.39041  0.34628  0.63295  1.0000
  H   H486      1.0  0.19230  0.62131  0.89959  1.0000
  H   H487      1.0  0.32438  0.41995  0.80396  1.0000
  C   C277      1.0  0.24348  0.60452  0.71258  1.0000
  H   H488      1.0  0.17846  0.35168  0.86995  1.0000
  H   H489      1.0  0.01221  0.62330  0.86474  1.0000
  H   H490      1.0  0.48555  0.39285  0.63389  1.0000
  H   H491      1.0  0.15178  0.65810  0.94523  1.0000
  H   H492      1.0  0.30743  0.40201  0.85743  1.0000
  S   S63       1.0  0.06674  0.63400  0.76765  1.0000
  H   H493      1.0  0.27085  0.63610  0.82790  1.0000
  C   C278      1.0  0.24716  0.46045  0.49846  1.0000
  C   C279      1.0  0.23392  0.40251  0.49893  1.0000
  H   H494      1.0  0.48965  0.35423  0.80583  1.0000
  C   C280      1.0  0.24504  0.64454  0.77526  1.0000
  H   H495      1.0  0.27414  0.61317  0.67501  1.0000
  H   H496      1.0  0.17139  0.43768  0.55805  1.0000
  C   C281      1.0  0.41230  0.37073  0.69088  1.0000
  C   C282      1.0  0.17614  0.42076  0.54930  1.0000
  C   C283      1.0  0.00907  0.53069  0.83283  1.0000
  H   H497      1.0  0.48021  0.60881  0.64549  1.0000
  H   H498      1.0  0.45258  0.62121  0.68660  1.0000
  H   H499      1.0  0.03146  0.57541  0.85003  1.0000
  H   H500      1.0  0.00437  0.35462  0.86517  1.0000
  H   H501      1.0  0.49763  0.60587  0.54875  1.0000
  H   H502      1.0  0.12918  0.35107  0.69871  1.0000
  H   H503      1.0  0.19800  0.33575  0.85165  1.0000
  C   C284      1.0  0.48160  0.49193  0.58069  1.0000
  C   C285      1.0  0.16336  0.66574  0.92273  1.0000
  H   H504      1.0  0.31312  0.44303  0.49535  1.0000
  C   C286      1.0  0.18115  0.61838  0.92208  1.0000
  H   H505      1.0  0.47587  0.45968  0.69145  1.0000
  S   S64       1.0  0.43860  0.33797  0.70255  1.0000
  H   H506      1.0  0.01646  0.34924  0.75208  1.0000
  S   S65       1.0  0.13552  0.66423  0.82537  1.0000
  H   H507      1.0  0.22060  0.37977  0.97155  1.0000
  C   C287      1.0  0.40790  0.33782  0.64972  1.0000
  C   C288      1.0  0.00108  0.43256  0.83312  1.0000
  C   C289      1.0  0.22003  0.41179  0.47741  1.0000
  C   C290      1.0  0.24029  0.46059  0.96884  1.0000
  H   H508      1.0  0.00578  0.60150  0.75252  1.0000
  H   H509      1.0  0.32808  0.41969  0.48806  1.0000
  C   C291      1.0  0.32383  0.43640  0.47761  1.0000
  H   H510      1.0  0.11427  0.66224  0.89493  1.0000
  H   H511      1.0  0.00243  0.52199  0.85660  1.0000
  H   H512      1.0  0.49703  0.41221  0.70083  1.0000
  H   H513      1.0  0.49533  0.38145  0.68024  1.0000
  H   H514      1.0  0.38166  0.33638  0.61063  1.0000
  Fe  Fe34      1.0  0.32766  0.87987  0.00518  1.0000
  S   S66       1.0  0.33976  0.87060  0.05209  1.0000
  H   H515      1.0  0.26547  0.74167  0.06028  1.0000
  H   H516      1.0  0.08079  0.72435  0.22843  1.0000
  S   S67       1.0  0.31157  0.80217  0.02987  1.0000
  H   H517      1.0  0.34780  0.96475  0.45019  1.0000
  Fe  Fe35      1.0  0.29559  0.82961  0.05286  1.0000
  S   S68       1.0  0.27223  0.81941  0.10014  1.0000
  Fe  Fe36      1.0  0.35476  0.84334  0.02663  1.0000
  H   H518      1.0  0.38121  0.78613  0.16437  1.0000
  S   S69       1.0  0.28199  0.84092  0.00738  1.0000
  C   C292      1.0  0.30754  0.76382  0.15520  1.0000
  H   H519      1.0  0.31823  0.80174  0.18478  1.0000
  Fe  Fe37      1.0  0.18534  0.71250  0.30941  1.0000
  S   S70       1.0  0.21427  0.70470  0.27757  1.0000
  S   S71       1.0  0.20566  0.75274  0.34074  1.0000
  H   H520      1.0  0.21098  0.72818  0.01806  1.0000
  C   C293      1.0  0.39623  0.92568  0.43864  1.0000
  H   H521      1.0  0.18007  0.77568  0.13652  1.0000
  H   H522      1.0  0.12250  0.67879  0.15707  1.0000
  Fe  Fe38      1.0  0.18280  0.69875  0.23951  1.0000
  S   S72       1.0  0.19395  0.70936  0.18761  1.0000
  H   H523      1.0  0.31030  0.69850  0.46119  1.0000
  S   S73       1.0  0.15523  0.70958  0.27042  1.0000
  N   N15       1.0  0.42771  0.93466  0.44330  1.0000
  C   C294      1.0  0.21736  0.74022  0.16427  1.0000
  C   C295      1.0  0.23288  0.76861  0.17616  1.0000
  C   C296      1.0  0.24973  0.79240  0.15627  1.0000
  C   C297      1.0  0.25170  0.78825  0.12427  1.0000
  C   C298      1.0  0.23654  0.75981  0.11247  1.0000
  C   C299      1.0  0.21948  0.73606  0.13230  1.0000
  H   H524      1.0  0.23141  0.77236  0.20058  1.0000
  H   H525      1.0  0.26113  0.81427  0.16573  1.0000
  H   H526      1.0  0.23711  0.75627  0.08790  1.0000
  H   H527      1.0  0.20742  0.71429  0.12268  1.0000
  C   C300      1.0  0.25631  0.76522  0.43183  1.0000
  C   C301      1.0  0.23581  0.73711  0.42153  1.0000
  C   C302      1.0  0.22005  0.73296  0.39383  1.0000
  C   C303      1.0  0.22463  0.75698  0.37609  1.0000
  C   C304      1.0  0.24426  0.78519  0.38707  1.0000
  C   C305      1.0  0.26012  0.78934  0.41477  1.0000
  H   H528      1.0  0.23212  0.71850  0.43519  1.0000
  H   H529      1.0  0.20419  0.71126  0.38617  1.0000
  H   H530      1.0  0.24758  0.80395  0.37378  1.0000
  H   H531      1.0  0.27566  0.81114  0.42252  1.0000
  C   C306      1.0  0.44717  0.96070  0.42348  1.0000
  C   C307      1.0  0.33804  0.82581  0.12340  1.0000
  H   H532      1.0  0.28847  0.76576  0.14773  1.0000
  H   H533      1.0  0.41418  0.88854  0.44390  1.0000
  H   H534      1.0  0.45387  0.92093  0.03664  1.0000
  Fe  Fe39      1.0  0.30110  0.81607  0.98448  1.0000
  H   H535      1.0  0.13228  0.67928  0.19661  1.0000
  H   H536      1.0  0.34926  0.87113  0.12598  1.0000
  C   C308      1.0  0.19994  0.69989  0.97768  1.0000
  H   H537      1.0  0.33917  0.78492  0.19401  1.0000
  H   H538      1.0  0.44575  0.86568  0.43719  1.0000
  H   H539      1.0  0.42972  0.90625  0.40858  1.0000
  H   H540      1.0  0.39190  0.94268  0.44772  1.0000
  H   H541      1.0  0.34992  0.92875  0.41164  1.0000
  H   H542      1.0  0.27426  0.71250  0.41057  1.0000
  C   C309      1.0  0.35117  0.80598  0.13004  1.0000
  H   H543      1.0  0.15519  0.69361  0.45091  1.0000
  C   C310      1.0  0.25226  0.68864  0.35990  1.0000
  H   H544      1.0  0.47979  0.93272  0.43496  1.0000
  H   H545      1.0  0.38207  0.90588  0.45245  1.0000
  C   C311      1.0  0.35270  0.91039  0.40342  1.0000
  H   H546      1.0  0.44708  0.99628  0.45054  1.0000
  H   H547      1.0  0.36484  0.86005  0.15655  1.0000
  H   H548      1.0  0.37953  0.86581  0.11757  1.0000
  S   S74       1.0  0.33375  0.92251  0.98423  1.0000
  N   N16       1.0  0.25019  0.67034  0.38779  1.0000
  N   N17       1.0  0.32989  0.77358  0.12962  1.0000
  C   C312      1.0  0.46127  0.91205  0.44346  1.0000
  H   H549      1.0  0.06036  0.66907  0.16772  1.0000
  C   C313      1.0  0.46348  0.83894  0.00547  1.0000
  H   H550      1.0  0.29841  0.74011  0.15976  1.0000
  H   H551      1.0  0.19845  0.68191  0.99221  1.0000
  C   C314      1.0  0.07348  0.70098  0.27115  1.0000
  C   C315      1.0  0.44368  0.83972  0.02663  1.0000
  H   H552      1.0  0.39730  0.75138  0.17794  1.0000
  C   C316      1.0  0.40512  0.99890  0.01241  1.0000
  C   C317      1.0  0.38392  0.96905  0.01002  1.0000
  C   C318      1.0  0.38469  0.91869  0.40486  1.0000
  H   H553      1.0  0.15529  0.72466  0.15030  1.0000
  H   H554      1.0  0.38627  0.89999  0.39555  1.0000
  C   C319      1.0  0.43182  0.90942  0.43417  1.0000
  H   H555      1.0  0.35196  0.75294  0.18084  1.0000
  H   H556      1.0  0.44675  0.83835  0.05124  1.0000
  H   H557      1.0  0.29766  0.72499  0.36375  1.0000
  C   C320      1.0  0.35936  0.85764  0.13146  1.0000
  C   C321      1.0  0.21973  0.72857  0.99460  1.0000
  C   C322      1.0  0.29610  0.76318  0.21255  1.0000
  C   C323      1.0  0.36172  0.95972  0.98787  1.0000
  H   H558      1.0  0.27375  0.75809  0.20638  1.0000
  C   C324      1.0  0.29143  0.70124  0.46699  1.0000
  S   S75       1.0  0.39522  0.84281  0.04324  1.0000
  H   H559      1.0  0.08579  0.73568  0.16668  1.0000
  C   C325      1.0  0.41977  0.84196  0.01609  1.0000
  H   H560      1.0  0.34466  0.90512  0.37917  1.0000
  H   H561      1.0  0.29600  0.74244  0.21692  1.0000
  H   H562      1.0  0.03043  0.68605  0.13691  1.0000
  H   H563      1.0  0.33289  0.82502  0.09834  1.0000
  C   C326      1.0  0.31429  0.76635  0.09868  1.0000
  H   H564      1.0  0.33928  0.89097  0.41810  1.0000
  H   H565      1.0  0.36850  0.81155  0.11239  1.0000
  H   H566      1.0  0.36280  0.81304  0.15249  1.0000
  C   C327      1.0  0.14410  0.73685  0.15673  1.0000
  C   C328      1.0  0.07980  0.69109  0.16521  1.0000
  H   H567      1.0  0.46460  0.88797  0.40405  1.0000
  H   H568      1.0  0.45187  0.94449  0.00735  1.0000
  C   C329      1.0  0.29277  0.73354  0.09211  1.0000
  H   H569      1.0  0.33167  0.73353  0.13068  1.0000
  C   C330      1.0  0.06810  0.71262  0.16639  1.0000
  C   C331      1.0  0.28323  0.70844  0.34654  1.0000
  C   C332      1.0  0.12837  0.72613  0.18832  1.0000
  C   C333      1.0  0.36472  0.97363  0.46766  1.0000
  C   C334      1.0  0.42842  0.81096  0.46853  1.0000
  C   C335      1.0  0.16724  0.76915  0.15830  1.0000
  C   C336      1.0  0.27201  0.69037  0.41172  1.0000
  H   H570      1.0  0.14495  0.72811  0.20560  1.0000
  H   H571      1.0  0.12221  0.74237  0.19571  1.0000
  H   H572      1.0  0.30112  0.77732  0.09653  1.0000
  H   H573      1.0  0.04022  0.72385  0.13996  1.0000
  H   H574      1.0  0.30264  0.77623  0.23428  1.0000
  H   H575      1.0  0.27160  0.73800  0.32354  1.0000
  H   H576      1.0  0.26130  0.70584  0.05741  1.0000
  H   H577      1.0  0.42049  0.98215  0.41992  1.0000
  C   C337      1.0  0.44285  0.98761  0.42652  1.0000
  C   C338      1.0  0.28216  0.72494  0.31797  1.0000
  H   H578      1.0  0.36996  0.72398  0.15307  1.0000
  C   C339      1.0  0.45204  0.92384  0.01139  1.0000
  N   N18       1.0  0.10262  0.69552  0.18891  1.0000
  C   C340      1.0  0.36588  0.76267  0.16018  1.0000
  H   H579      1.0  0.11292  0.72909  0.24730  1.0000
  C   C341      1.0  0.38414  0.74784  0.15662  1.0000
  H   H580      1.0  0.15697  0.78284  0.16124  1.0000
  H   H581      1.0  0.30422  0.72090  0.09063  1.0000
  C   C342      1.0  0.08971  0.68795  0.22115  1.0000
  C   C343      1.0  0.09021  0.71278  0.24089  1.0000
  H   H582      1.0  0.31780  0.81872  0.13668  1.0000
  C   C344      1.0  0.27727  0.72931  0.06099  1.0000
  H   H583      1.0  0.46309  0.91116  0.46904  1.0000
  H   H584      1.0  0.29770  0.72452  0.46401  1.0000
  H   H585      1.0  0.18238  0.77332  0.17796  1.0000
  C   C345      1.0  0.34667  0.75748  0.13114  1.0000
  H   H586      1.0  0.06188  0.71383  0.11647  1.0000
  H   H587      1.0  0.24204  0.73197  0.99719  1.0000
  H   H588      1.0  0.39692  0.93774  0.38945  1.0000
  H   H589      1.0  0.08392  0.69140  0.28563  1.0000
  H   H590      1.0  0.29337  0.69546  0.33938  1.0000
  H   H591      1.0  0.44479  0.95443  0.39855  1.0000
  H   H592      1.0  0.29399  0.69372  0.40643  1.0000
  C   C346      1.0  0.47704  0.92382  0.99392  1.0000
  C   C347      1.0  0.41599  0.84371  0.98424  1.0000
  H   H593      1.0  0.12875  0.73429  0.13791  1.0000
  C   C348      1.0  0.31739  0.78040  0.18663  1.0000
  H   H594      1.0  0.30456  0.74000  0.30975  1.0000
  H   H595      1.0  0.29319  0.73680  0.04168  1.0000
  H   H596      1.0  0.21500  0.67468  0.40672  1.0000
  H   H597      1.0  0.08788  0.69133  0.14136  1.0000
  H   H598      1.0  0.07362  0.71900  0.28449  1.0000
  S   S76       1.0  0.47712  0.81260  0.44505  1.0000
  H   H599      1.0  0.33038  0.77492  0.07938  1.0000
  H   H600      1.0  0.39921  0.75720  0.13666  1.0000
  H   H601      1.0  0.47583  0.90269  0.99841  1.0000
  H   H602      1.0  0.48155  0.83680  0.01376  1.0000
  H   H603      1.0  0.41670  0.79382  0.45169  1.0000
  H   H604      1.0  0.36079  0.76277  0.11024  1.0000
  H   H605      1.0  0.27599  0.72402  0.11050  1.0000
  H   H606      1.0  0.38448  0.95334  0.02564  1.0000
  H   H607      1.0  0.05055  0.68406  0.26650  1.0000
  H   H608      1.0  0.10161  0.67984  0.23553  1.0000
  C   C349      1.0  0.04901  0.70875  0.13816  1.0000
  S   S77       1.0  0.27734  0.76861  0.46526  1.0000
  H   H609      1.0  0.47036  0.96858  0.42912  1.0000
  H   H610      1.0  0.14126  0.71580  0.46635  1.0000
  H   H611      1.0  0.05425  0.70816  0.18714  1.0000
  C   C350      1.0  0.11375  0.67499  0.18105  1.0000
  H   H612      1.0  0.24327  0.70311  0.36547  1.0000
  C   C351      1.0  0.46418  0.88700  0.42978  1.0000
  H   H613      1.0  0.22095  0.74729  0.98162  1.0000
  H   H614      1.0  0.48470  0.88841  0.43799  1.0000
  S   S78       1.0  0.34578  0.85532  0.97965  1.0000
  C   C352      1.0  0.45886  0.82448  0.47022  1.0000
  C   C353      1.0  0.26536  0.68170  0.44640  1.0000
  H   H615      1.0  0.43099  0.90542  0.00315  1.0000
  H   H616      1.0  0.06691  0.66944  0.22024  1.0000
  H   H617      1.0  0.26996  0.70937  0.29896  1.0000
  H   H618      1.0  0.24692  0.68442  0.45416  1.0000
  C   C354      1.0  0.15101  0.70216  0.47266  1.0000
  H   H619      1.0  0.22449  0.82886  0.46100  1.0000
  H   H620      1.0  0.23883  0.67467  0.34040  1.0000
  H   H621      1.0  0.19462  0.73792  0.47455  1.0000
  Fe  Fe40      1.0  0.33263  0.87444  0.51156  1.0000
  S   S79       1.0  0.34869  0.86805  0.55761  1.0000
  H   H622      1.0  0.39583  0.91318  0.50216  1.0000
  H   H623      1.0  0.28576  0.69535  0.49170  1.0000
  S   S80       1.0  0.32111  0.79882  0.53957  1.0000
  H   H624      1.0  0.24823  0.69993  0.54053  1.0000
  Fe  Fe41      1.0  0.30539  0.82618  0.56329  1.0000
  S   S81       1.0  0.27684  0.81325  0.60765  1.0000
  Fe  Fe42      1.0  0.36277  0.84073  0.53042  1.0000
  S   S82       1.0  0.40922  0.85040  0.53827  1.0000
  S   S83       1.0  0.28804  0.83492  0.51910  1.0000
  C   C355      1.0  0.46885  0.75072  0.49578  1.0000
  C   C356      1.0  0.47174  0.78445  0.53943  1.0000
  Fe  Fe43      1.0  0.16880  0.71016  0.81209  1.0000
  S   S84       1.0  0.20004  0.69767  0.79207  1.0000
  S   S85       1.0  0.18160  0.74697  0.84727  1.0000
  H   H625      1.0  0.48246  0.82754  0.60331  1.0000
  C   C357      1.0  0.45968  0.84078  0.97360  1.0000
  H   H626      1.0  0.13538  0.68343  0.48695  1.0000
  C   C358      1.0  0.43200  0.92793  0.53324  1.0000
  Fe  Fe44      1.0  0.17716  0.69325  0.74630  1.0000
  S   S86       1.0  0.20296  0.70459  0.69998  1.0000
  C   C359      1.0  0.41880  0.91839  0.50087  1.0000
  S   S87       1.0  0.14719  0.70807  0.76596  1.0000
  H   H627      1.0  0.16707  0.69652  0.88643  1.0000
  C   C360      1.0  0.22396  0.73548  0.67517  1.0000
  C   C361      1.0  0.22599  0.76267  0.67967  1.0000
  C   C362      1.0  0.24240  0.78606  0.65903  1.0000
  C   C363      1.0  0.25739  0.78298  0.63367  1.0000
  C   C364      1.0  0.25576  0.75593  0.62948  1.0000
  C   C365      1.0  0.23900  0.73240  0.64984  1.0000
  H   H628      1.0  0.21466  0.76564  0.69888  1.0000
  H   H629      1.0  0.24339  0.80677  0.66272  1.0000
  H   H630      1.0  0.26748  0.75318  0.61056  1.0000
  H   H631      1.0  0.23784  0.71164  0.64600  1.0000
  C   C366      1.0  0.25699  0.77554  0.91685  1.0000
  C   C367      1.0  0.25586  0.76024  0.88976  1.0000
  C   C368      1.0  0.23348  0.75238  0.86782  1.0000
  C   C369      1.0  0.21128  0.75865  0.87330  1.0000
  C   C370      1.0  0.21247  0.77416  0.90030  1.0000
  C   C371      1.0  0.23522  0.78254  0.92203  1.0000
  H   H632      1.0  0.27253  0.75462  0.88561  1.0000
  H   H633      1.0  0.23307  0.74105  0.84682  1.0000
  H   H634      1.0  0.19541  0.77921  0.90468  1.0000
  H   H635      1.0  0.23552  0.79376  0.94309  1.0000
  C   C372      1.0  0.42788  0.84098  0.51089  1.0000
  H   H636      1.0  0.25177  0.70812  0.84952  1.0000
  C   C373      1.0  0.23863  0.68205  0.89180  1.0000
  C   C374      1.0  0.24448  0.85637  0.92951  1.0000
  H   H637      1.0  0.42672  0.77585  0.57650  1.0000
  C   C375      1.0  0.15892  0.69082  0.91046  1.0000
  H   H638      1.0  0.23444  0.70324  0.94910  1.0000
  H   H639      1.0  0.41846  0.91082  0.55032  1.0000
  C   C376      1.0  0.21218  0.69963  0.94516  1.0000
  H   H640      1.0  0.42037  0.81817  0.58806  1.0000
  H   H641      1.0  0.46356  0.79648  0.52527  1.0000
  C   C377      1.0  0.44042  0.79126  0.59490  1.0000
  H   H642      1.0  0.46782  0.82881  0.56650  1.0000
  H   H643      1.0  0.43277  0.84459  0.93855  1.0000
  S   S88       1.0  0.48387  0.84035  0.94573  1.0000
  N   N19       1.0  0.31737  0.87455  0.88935  1.0000
  C   C378      1.0  0.28970  0.85765  0.90769  1.0000
  C   C379      1.0  0.33030  0.85518  0.88381  1.0000
  C   C380      1.0  0.33860  0.89982  0.90932  1.0000
  C   C381      1.0  0.31287  0.88640  0.85921  1.0000
  C   C382      1.0  0.28309  0.86796  0.84250  1.0000
  S   S89       1.0  0.34828  0.84850  0.48422  1.0000
  C   C383      1.0  0.36991  0.91841  0.89644  1.0000
  C   C384      1.0  0.31318  0.82875  0.86204  1.0000
  C   C385      1.0  0.32631  0.80878  0.86214  1.0000
  C   C386      1.0  0.28356  0.87972  0.81003  1.0000
  H   H644      1.0  0.24303  0.84195  0.94892  1.0000
  H   H645      1.0  0.38781  0.95325  0.53138  1.0000
  H   H646      1.0  0.45426  0.93099  0.53390  1.0000
  H   H647      1.0  0.27291  0.83903  0.89412  1.0000
  H   H648      1.0  0.35202  0.86754  0.87289  1.0000
  H   H649      1.0  0.33373  0.84705  0.90643  1.0000
  H   H650      1.0  0.34053  0.89188  0.93260  1.0000
  H   H651      1.0  0.33040  0.91521  0.91360  1.0000
  H   H652      1.0  0.31523  0.90835  0.86285  1.0000
  H   H653      1.0  0.33034  0.89010  0.84252  1.0000
  H   H654      1.0  0.26552  0.86871  0.85557  1.0000
  H   H655      1.0  0.27678  0.84474  0.84013  1.0000
  H   H656      1.0  0.18395  0.76345  0.63257  1.0000
  H   H657      1.0  0.27715  0.89162  0.90242  1.0000
  H   H658      1.0  0.15768  0.72638  0.62179  1.0000
  H   H659      1.0  0.45229  0.74682  0.59380  1.0000
  H   H660      1.0  0.29021  0.81559  0.86897  1.0000
  H   H661      1.0  0.31421  0.83636  0.83785  1.0000
  H   H662      1.0  0.34926  0.82079  0.85429  1.0000
  H   H663      1.0  0.32543  0.80005  0.88580  1.0000
  H   H664      1.0  0.31373  0.79010  0.84620  1.0000
  C   C387      1.0  0.47079  0.81407  0.58274  1.0000
  H   H665      1.0  0.28820  0.88837  0.94074  1.0000
  C   C388      1.0  0.41299  0.81930  0.48861  1.0000
  C   C389      1.0  0.17956  0.72035  0.49021  1.0000
  H   H666      1.0  0.40968  0.95924  0.90553  1.0000
  C   C390      1.0  0.36137  0.98062  0.96789  1.0000
  H   H667      1.0  0.18908  0.70616  0.49440  1.0000
  H   H668      1.0  0.44269  0.77903  0.61455  1.0000
  H   H669      1.0  0.46874  0.71624  0.62207  1.0000
  C   C391      1.0  0.38722  0.96706  0.51326  1.0000
  N   N20       1.0  0.48844  0.80247  0.56722  1.0000
  H   H670      1.0  0.27121  0.68902  0.85737  1.0000
  H   H671      1.0  0.45505  0.73068  0.50938  1.0000
  H   H672      1.0  0.18814  0.78839  0.53291  1.0000
  H   H673      1.0  0.20890  0.69774  0.88367  1.0000
  N   N21       1.0  0.20124  0.75580  0.53772  1.0000
  C   C392      1.0  0.22807  0.75354  0.53222  1.0000
  C   C393      1.0  0.20706  0.78559  0.52764  1.0000
  C   C394      1.0  0.19616  0.75364  0.57235  1.0000
  C   C395      1.0  0.17462  0.73196  0.52152  1.0000
  C   C396      1.0  0.43591  0.84324  0.96315  1.0000
  C   C397      1.0  0.22700  0.72570  0.54549  1.0000
  C   C398      1.0  0.17090  0.75793  0.58392  1.0000
  H   H674      1.0  0.29985  0.87815  0.79531  1.0000
  H   H675      1.0  0.36967  0.92408  0.87173  1.0000
  H   H676      1.0  0.23180  0.79114  0.48450  1.0000
  C   C399      1.0  0.16443  0.74970  0.61813  1.0000
  H   H677      1.0  0.24750  0.77264  0.54268  1.0000
  C   C400      1.0  0.48174  0.74045  0.62221  1.0000
  C   C401      1.0  0.24868  0.71909  0.52947  1.0000
  H   H678      1.0  0.22571  0.80286  0.54111  1.0000
  H   H679      1.0  0.21623  0.76998  0.58472  1.0000
  H   H680      1.0  0.19154  0.73196  0.58105  1.0000
  H   H681      1.0  0.16309  0.71247  0.53674  1.0000
  H   H682      1.0  0.15856  0.73932  0.51742  1.0000
  H   H683      1.0  0.28877  0.90282  0.81121  1.0000
  C   C402      1.0  0.48901  0.77576  0.51723  1.0000
  H   H684      1.0  0.23249  0.72886  0.57054  1.0000
  H   H685      1.0  0.20507  0.70623  0.54330  1.0000
  H   H686      1.0  0.15071  0.74436  0.57044  1.0000
  H   H687      1.0  0.17682  0.78118  0.58198  1.0000
  H   H688      1.0  0.17027  0.71070  0.92503  1.0000
  H   H689      1.0  0.26185  0.86662  0.79898  1.0000
  H   H690      1.0  0.23437  0.66931  0.84316  1.0000
  C   C403      1.0  0.21297  0.79289  0.49270  1.0000
  H   H691      1.0  0.43629  0.82158  0.62608  1.0000
  C   C404      1.0  0.47383  0.84679  0.49188  1.0000
  H   H692      1.0  0.27104  0.73800  0.53145  1.0000
  C   C405      1.0  0.24229  0.67447  0.73377  1.0000
  C   C406      1.0  0.20762  0.67797  0.89384  1.0000
  C   C407      1.0  0.38721  0.94679  0.91467  1.0000
  H   H693      1.0  0.22687  0.67910  0.74657  1.0000
  C   C408      1.0  0.12675  0.68182  0.90978  1.0000
  C   C409      1.0  0.27336  0.70024  0.74017  1.0000
  C   C410      1.0  0.27786  0.72842  0.72527  1.0000
  H   H694      1.0  0.47788  0.74100  0.57274  1.0000
  C   C411      1.0  0.49651  0.78588  0.58998  1.0000
  H   H695      1.0  0.20006  0.82612  0.49142  1.0000
  H   H696      1.0  0.23547  0.87018  0.93756  1.0000
  H   H697      1.0  0.30000  0.74661  0.73071  1.0000
  H   H698      1.0  0.27549  0.72603  0.69967  1.0000
  H   H699      1.0  0.26178  0.73416  0.73434  1.0000
  H   H700      1.0  0.14657  0.75330  0.62599  1.0000
  H   H701      1.0  0.34424  0.97374  0.95079  1.0000
  Fe  Fe45      1.0  0.30515  0.80892  0.49516  1.0000
  H   H702      1.0  0.12430  0.69990  0.89993  1.0000
  H   H703      1.0  0.27690  0.70449  0.76547  1.0000
  C   C412      1.0  0.21929  0.82390  0.48597  1.0000
  H   H704      1.0  0.38196  0.90635  0.89869  1.0000
  H   H705      1.0  0.37697  0.96059  0.91248  1.0000
  H   H706      1.0  0.45187  0.76422  0.54641  1.0000
  C   C413      1.0  0.47533  0.75255  0.59294  1.0000
  C   C414      1.0  0.42401  0.80612  0.60702  1.0000
  S   S90       1.0  0.33859  0.91691  0.48945  1.0000
  H   H707      1.0  0.29359  0.84733  0.92835  1.0000
  H   H708      1.0  0.43141  0.96077  0.48349  1.0000
  C   C415      1.0  0.36518  0.95503  0.49081  1.0000
  C   C416      1.0  0.45836  0.85480  0.51233  1.0000
  H   H709      1.0  0.40246  0.78944  0.61602  1.0000
  H   H710      1.0  0.47003  0.87177  0.52934  1.0000
  H   H711      1.0  0.38840  0.94210  0.93958  1.0000
  H   H712      1.0  0.23776  0.67572  0.70876  1.0000
  S   S91       1.0  0.28527  0.78396  0.94389  1.0000
  H   H713      1.0  0.29012  0.69562  0.73094  1.0000
  H   H714      1.0  0.43277  0.94853  0.54016  1.0000
  H   H715      1.0  0.21547  0.71933  0.93253  1.0000
  C   C417      1.0  0.27612  0.87580  0.91992  1.0000
  H   H716      1.0  0.49728  0.85783  0.49284  1.0000
  H   H717      1.0  0.41899  0.89813  0.49496  1.0000
  H   H718      1.0  0.24302  0.71409  0.50455  1.0000
  H   H719      1.0  0.23306  0.75488  0.50725  1.0000
  H   H720      1.0  0.23115  0.84289  0.90966  1.0000
  H   H721      1.0  0.19346  0.77820  0.47881  1.0000
  H   H722      1.0  0.45476  0.75669  0.48223  1.0000
  H   H723      1.0  0.25437  0.70108  0.90572  1.0000
  H   H724      1.0  0.11760  0.67717  0.93357  1.0000
  N   N22       1.0  0.19448  0.67263  0.92577  1.0000
  H   H725      1.0  0.47609  0.74868  0.64322  1.0000
  C   C418      1.0  0.24958  0.68744  0.85839  1.0000
  H   H726      1.0  0.38953  0.80851  0.48730  1.0000
  H   H727      1.0  0.48200  0.74601  0.47927  1.0000
  H   H728      1.0  0.45935  0.95205  0.48059  1.0000
  C   C419      1.0  0.40826  0.99713  0.51255  1.0000
  H   H729      1.0  0.47311  0.92478  0.96873  1.0000
  H   H730      1.0  0.23812  0.84018  0.49977  1.0000
  H   H731      1.0  0.17807  0.69765  0.97602  1.0000
  C   C420      1.0  0.43562  0.94294  0.47686  1.0000
  H   H732      1.0  0.39772  0.84542  0.97581  1.0000
  H   H733      1.0  0.88739  0.30474  0.16913  1.0000
  Fe  Fe46      1.0  0.68438  0.14691  0.01212  1.0000
  H   H734      1.0  0.66135  0.13797  0.36357  1.0000
  S   S92       1.0  0.65510  0.16672  0.01349  1.0000
  Fe  Fe47      1.0  0.73360  0.14924  0.05287  1.0000
  S   S93       1.0  0.73926  0.11888  0.01994  1.0000
  S   S94       1.0  0.75103  0.16474  0.10294  1.0000
  H   H735      1.0  0.60999  0.03696  0.40706  1.0000
  H   H736      1.0  0.73613  0.24717  0.34983  1.0000
  Fe  Fe48      1.0  0.69024  0.09171  0.01675  1.0000
  S   S95       1.0  0.66238  0.04191  0.02435  1.0000
  S   S96       1.0  0.73266  0.17762  0.01430  1.0000
  S   S97       1.0  0.68480  0.12012  0.05208  1.0000
  Fe  Fe49      1.0  0.86909  0.26862  0.24263  1.0000
  S   S98       1.0  0.89677  0.26520  0.28127  1.0000
  S   S99       1.0  0.85791  0.24513  0.19480  1.0000
  C   C421      1.0  0.60468  0.16567  0.99755  1.0000
  H   H737      1.0  0.51050  0.25067  0.31987  1.0000
  Fe  Fe50      1.0  0.92374  0.31439  0.28035  1.0000
  H   H738      1.0  0.74144  0.26053  0.45562  1.0000
  Fe  Fe51      1.0  0.86703  0.27180  0.31370  1.0000
  S   S100      1.0  0.85701  0.25607  0.36376  1.0000
  S   S101      1.0  0.51008  0.17276  0.42619  1.0000
  S   S102      1.0  0.83801  0.27214  0.27563  1.0000
  S   S103      1.0  0.68626  0.11682  0.97685  1.0000
  H   H739      1.0  0.69194  0.19655  0.45102  1.0000
  C   C422      1.0  0.77436  0.18093  0.40701  1.0000
  C   C423      1.0  0.79683  0.20145  0.42571  1.0000
  C   C424      1.0  0.82187  0.22441  0.41202  1.0000
  C   C425      1.0  0.82455  0.22731  0.37959  1.0000
  C   C426      1.0  0.80174  0.20723  0.36090  1.0000
  C   C427      1.0  0.77685  0.18407  0.37459  1.0000
  H   H740      1.0  0.79518  0.19927  0.45067  1.0000
  H   H741      1.0  0.83940  0.23986  0.42666  1.0000
  H   H742      1.0  0.80355  0.20921  0.33594  1.0000
  H   H743      1.0  0.75956  0.16826  0.35996  1.0000
  C   C428      1.0  0.82741  0.22392  0.16960  1.0000
  C   C429      1.0  0.79901  0.20655  0.18055  1.0000
  C   C430      1.0  0.77605  0.18902  0.15981  1.0000
  C   C431      1.0  0.78089  0.18858  0.12771  1.0000
  C   C432      1.0  0.80920  0.20633  0.11670  1.0000
  C   C433      1.0  0.83220  0.22361  0.13748  1.0000
  H   H744      1.0  0.79485  0.20590  0.20514  1.0000
  H   H745      1.0  0.75439  0.17538  0.16882  1.0000
  H   H746      1.0  0.81352  0.20635  0.09221  1.0000
  H   H747      1.0  0.85401  0.23671  0.12859  1.0000
  C   C434      1.0  0.51812  0.30800  0.07304  1.0000
  H   H748      1.0  0.70304  0.25226  0.40587  1.0000
  C   C435      1.0  0.77494  0.25588  0.09714  1.0000
  H   H749      1.0  0.58861  0.28596  0.01808  1.0000
  C   C436      1.0  0.50077  0.30732  0.04378  1.0000
  H   H750      1.0  0.52778  0.26861  0.04245  1.0000
  H   H751      1.0  0.75062  0.04438  0.18992  1.0000
  H   H752      1.0  0.78495  0.28777  0.36337  1.0000
  H   H753      1.0  0.80152  0.25438  0.22121  1.0000
  H   H754      1.0  0.68864  0.13054  0.37961  1.0000
  C   C437      1.0  0.67043  0.13440  0.38529  1.0000
  H   H755      1.0  0.74868  0.22141  0.35354  1.0000
  H   H756      1.0  0.56010  0.24397  0.43301  1.0000
  S   S104      1.0  0.89866  0.31744  0.23950  1.0000
  C   C438      1.0  0.54634  0.24993  0.41885  1.0000
  C   C439      1.0  0.50060  0.25400  0.41944  1.0000
  C   C440      1.0  0.93710  0.28747  0.39062  1.0000
  H   H757      1.0  0.81041  0.29748  0.11077  1.0000
  H   H758      1.0  0.58748  0.30291  0.14491  1.0000
  H   H759      1.0  0.77833  0.26444  0.26731  1.0000
  H   H760      1.0  0.99379  0.33128  0.37511  1.0000
  C   C441      1.0  0.94490  0.27884  0.35923  1.0000
  C   C442      1.0  0.59463  0.05287  0.46214  1.0000
  H   H761      1.0  0.94912  0.29210  0.45800  1.0000
  H   H762      1.0  0.53074  0.03334  0.45564  1.0000
  C   C443      1.0  0.92685  0.24594  0.35381  1.0000
  H   H763      1.0  0.91337  0.27974  0.39028  1.0000
  H   H764      1.0  0.75230  0.23994  0.10404  1.0000
  H   H765      1.0  0.76207  0.22637  0.25734  1.0000
  N   N23       1.0  0.95371  0.31947  0.39913  1.0000
  H   H766      1.0  0.64777  0.23606  0.37749  1.0000
  S   S105      1.0  0.89527  0.32058  0.31418  1.0000
  C   C444      1.0  0.93332  0.29971  0.45469  1.0000
  C   C445      1.0  0.56241  0.31467  0.04522  1.0000
  C   C446      1.0  0.58142  0.13748  0.44935  1.0000
  C   C447      1.0  0.54141  0.05577  0.46500  1.0000
  H   H767      1.0  0.94047  0.28940  0.33942  1.0000
  H   H768      1.0  0.96809  0.28480  0.35896  1.0000
  H   H769      1.0  0.76530  0.27636  0.99684  1.0000
  H   H770      1.0  0.65575  0.24869  0.41734  1.0000
  H   H771      1.0  0.79391  0.25629  0.15404  1.0000
  C   C448      1.0  0.55173  0.28162  0.04478  1.0000
  H   H772      1.0  0.51085  0.28503  0.07921  1.0000
  H   H773      1.0  0.50858  0.30121  0.02282  1.0000
  H   H774      1.0  0.93106  0.23389  0.37229  1.0000
  H   H775      1.0  0.90329  0.23877  0.35336  1.0000
  H   H776      1.0  0.93267  0.24038  0.33110  1.0000
  H   H777      1.0  0.74662  0.04802  0.13319  1.0000
  H   H778      1.0  0.55437  0.28239  0.16664  1.0000
  H   H779      1.0  0.52932  0.25982  0.45897  1.0000
  H   H780      1.0  0.76340  0.26123  0.15877  1.0000
  H   H781      1.0  0.64178  0.03675  0.42124  1.0000
  H   H782      1.0  0.69793  0.18944  0.36724  1.0000
  H   H783      1.0  0.77519  0.29354  0.11596  1.0000
  H   H784      1.0  0.83401  0.28180  0.18711  1.0000
  C   C449      1.0  0.75088  0.24194  0.36299  1.0000
  H   H785      1.0  0.54346  0.27857  0.11075  1.0000
  H   H786      1.0  0.64130  0.07043  0.42055  1.0000
  Fe  Fe52      1.0  0.51493  0.13328  0.43261  1.0000
  H   H787      1.0  0.72552  0.04800  0.21497  1.0000
  H   H788      1.0  0.99507  0.32140  0.44545  1.0000
  N   N24       1.0  0.71330  0.21751  0.40767  1.0000
  C   C450      1.0  0.62779  0.04662  0.42449  1.0000
  H   H789      1.0  0.78682  0.26674  0.33149  1.0000
  N   N25       1.0  0.72964  0.07150  0.10777  1.0000
  C   C451      1.0  0.71285  0.08703  0.11412  1.0000
  C   C452      1.0  0.76091  0.09403  0.10133  1.0000
  C   C453      1.0  0.71720  0.05375  0.07849  1.0000
  C   C454      1.0  0.72750  0.05136  0.13376  1.0000
  C   C455      1.0  0.72463  0.06051  0.16725  1.0000
  C   C456      1.0  0.67934  0.06726  0.11591  1.0000
  C   C457      1.0  0.73305  0.03800  0.06565  1.0000
  C   C458      1.0  0.77838  0.11488  0.12827  1.0000
  C   C459      1.0  0.80826  0.13864  0.11725  1.0000
  H   H790      1.0  0.76808  0.28718  0.20772  1.0000
  C   C460      1.0  0.66532  0.08266  0.13246  1.0000
  C   C461      1.0  0.56674  0.30174  0.15156  1.0000
  H   H791      1.0  0.71710  0.10321  0.09551  1.0000
  H   H792      1.0  0.72049  0.10028  0.13561  1.0000
  H   H793      1.0  0.77364  0.08341  0.09483  1.0000
  H   H794      1.0  0.76196  0.10764  0.08107  1.0000
  H   H795      1.0  0.71663  0.06775  0.05956  1.0000
  H   H796      1.0  0.69418  0.03650  0.08209  1.0000
  H   H797      1.0  0.72897  0.20688  0.44918  1.0000
  C   C462      1.0  0.98612  0.33153  0.39900  1.0000
  H   H798      1.0  0.70277  0.05791  0.17072  1.0000
  H   H799      1.0  0.74070  0.08351  0.17243  1.0000
  H   H800      1.0  0.67008  0.06178  0.09209  1.0000
  H   H801      1.0  0.67299  0.04648  0.12808  1.0000
  C   C463      1.0  0.56448  0.27361  0.01725  1.0000
  H   H802      1.0  0.75439  0.05399  0.05568  1.0000
  H   H803      1.0  0.76725  0.12598  0.13814  1.0000
  H   H804      1.0  0.78215  0.10263  0.14684  1.0000
  H   H805      1.0  0.82006  0.15378  0.13673  1.0000
  H   H806      1.0  0.82134  0.12892  0.10894  1.0000
  H   H807      1.0  0.80597  0.15149  0.09820  1.0000
  C   C464      1.0  0.71322  0.21410  0.44249  1.0000
  H   H808      1.0  0.55970  0.27303  0.41152  1.0000
  C   C465      1.0  0.78808  0.28237  0.11876  1.0000
  H   H809      1.0  0.67135  0.10371  0.12093  1.0000
  H   H810      1.0  0.64130  0.06869  0.13172  1.0000
  H   H811      1.0  0.67243  0.08694  0.15709  1.0000
  H   H812      1.0  0.74397  0.24633  0.24685  1.0000
  C   C466      1.0  0.54868  0.29904  0.12280  1.0000
  C   C467      1.0  0.51789  0.06371  0.47143  1.0000
  H   H813      1.0  0.84655  0.29542  0.13409  1.0000
  C   C468      1.0  0.66163  0.21161  0.40687  1.0000
  N   N26       1.0  0.80386  0.29683  0.17680  1.0000
  C   C469      1.0  0.64619  0.22915  0.40206  1.0000
  C   C470      1.0  0.78148  0.25567  0.21835  1.0000
  H   H814      1.0  0.57811  0.04307  0.44349  1.0000
  H   H815      1.0  0.67700  0.03441  0.46141  1.0000
  H   H816      1.0  0.65029  0.19194  0.39192  1.0000
  C   C471      1.0  0.58140  0.16029  0.97779  1.0000
  H   H817      1.0  0.68967  0.15587  0.42825  1.0000
  H   H818      1.0  0.66174  0.16216  0.41380  1.0000
  C   C472      1.0  0.78200  0.26619  0.35660  1.0000
  S   S106      1.0  0.55470  0.12973  0.42064  1.0000
  C   C473      1.0  0.52041  0.24574  0.43810  1.0000
  C   C474      1.0  0.99776  0.31663  0.42103  1.0000
  H   H819      1.0  0.53888  0.23569  0.39798  1.0000
  H   H820      1.0  0.55884  0.27517  0.06598  1.0000
  C   C475      1.0  0.71557  0.01690  0.03949  1.0000
  H   H821      1.0  0.71208  0.01815  0.18774  1.0000
  S   S107      1.0  0.74281  0.15101  0.42288  1.0000
  H   H822      1.0  0.79785  0.26235  0.36964  1.0000
  C   C476      1.0  0.88555  0.32308  0.15912  1.0000
  H   H823      1.0  0.62282  0.21537  0.40800  1.0000
  H   H824      1.0  0.60678  0.07664  0.45690  1.0000
  C   C477      1.0  0.83442  0.30222  0.18041  1.0000
  H   H825      1.0  0.78813  0.24491  0.09769  1.0000
  H   H826      1.0  0.76725  0.23862  0.20149  1.0000
  C   C478      1.0  0.94371  0.32449  0.43027  1.0000
  C   C479      1.0  0.68085  0.16057  0.40701  1.0000
  H   H827      1.0  0.60761  0.17737  0.01906  1.0000
  H   H828      1.0  0.78740  0.25930  0.99800  1.0000
  C   C480      1.0  0.66120  0.01325  0.47035  1.0000
  H   H829      1.0  0.55686  0.27814  0.99503  1.0000
  C   C481      1.0  0.78702  0.27305  0.15310  1.0000
  H   H830      1.0  0.65306  0.11472  0.39684  1.0000
  C   C482      1.0  0.76549  0.24782  0.24937  1.0000
  C   C483      1.0  0.62507  0.13674  0.46591  1.0000
  H   H831      1.0  0.69402  0.23118  0.37181  1.0000
  H   H832      1.0  0.93988  0.27390  0.40833  1.0000
  Fe  Fe53      1.0  0.86890  0.32061  0.27395  1.0000
  H   H833      1.0  0.65875  0.20485  0.43151  1.0000
  C   C484      1.0  0.74422  0.23913  0.39833  1.0000
  H   H834      1.0  0.75127  0.24064  0.01392  1.0000
  C   C485      1.0  0.65116  0.01110  0.99920  1.0000
  H   H835      1.0  0.56652  0.16777  0.98417  1.0000
  H   H836      1.0  0.91230  0.28074  0.44715  1.0000
  H   H837      1.0  0.73650  0.02542  0.08409  1.0000
  H   H838      1.0  0.51307  0.27812  0.41615  1.0000
  C   C486      1.0  0.69405  0.22945  0.39747  1.0000
  C   C487      1.0  0.70469  0.18889  0.39159  1.0000
  C   C488      1.0  0.62433  0.15630  0.98956  1.0000
  C   C489      1.0  0.60361  0.13104  0.44344  1.0000
  H   H839      1.0  0.98894  0.30522  0.30817  1.0000
  C   C490      1.0  0.80350  0.32436  0.16833  1.0000
  H   H840      1.0  0.70853  0.21951  0.97889  1.0000
  C   C491      1.0  0.76489  0.25522  0.99497  1.0000
  C   C492      1.0  0.78883  0.28670  0.20779  1.0000
  H   H841      1.0  0.72375  0.18558  0.38981  1.0000
  H   H842      1.0  0.60410  0.12152  0.42141  1.0000
  C   C493      1.0  0.56484  0.00282  0.01567  1.0000
  H   H843      1.0  0.63432  0.05119  0.47350  1.0000
  H   H844      1.0  0.71285  0.02893  0.01984  1.0000
  H   H845      1.0  0.51711  0.15672  0.05208  1.0000
  H   H846      1.0  0.51050  0.22840  0.08216  1.0000
  H   H847      1.0  0.70830  0.02919  0.13030  1.0000
  H   H848      1.0  0.77462  0.26292  0.07296  1.0000
  H   H849      1.0  0.72719  0.00575  0.03086  1.0000
  H   H850      1.0  0.50273  0.32898  0.04000  1.0000
  H   H851      1.0  0.60438  0.01683  0.46110  1.0000
  H   H852      1.0  0.81338  0.33264  0.14532  1.0000
  H   H853      1.0  0.51055  0.31644  0.09245  1.0000
  C   C494      1.0  0.61561  0.04076  0.45740  1.0000
  H   H854      1.0  0.57150  0.32154  0.16509  1.0000
  C   C495      1.0  0.72009  0.24164  0.46179  1.0000
  H   H855      1.0  0.55745  0.32040  0.02202  1.0000
  H   H856      1.0  0.80245  0.30179  0.22667  1.0000
  H   H857      1.0  0.75968  0.23335  0.40950  1.0000
  C   C496      1.0  0.56472  0.32622  0.10163  1.0000
  H   H858      1.0  0.55720  0.24995  0.01803  1.0000
  C   C497      1.0  0.51186  0.13959  0.06982  1.0000
  H   H859      1.0  0.52800  0.29708  0.13102  1.0000
  H   H860      1.0  0.55569  0.07074  0.44662  1.0000
  H   H861      1.0  0.92476  0.32795  0.42722  1.0000
  H   H862      1.0  0.92261  0.32579  0.37303  1.0000
  H   H863      1.0  0.70303  0.24761  0.45807  1.0000
  H   H864      1.0  0.78059  0.31947  0.16600  1.0000
  C   C498      1.0  0.72845  0.04151  0.19135  1.0000
  H   H865      1.0  0.75057  0.26142  0.40666  1.0000
  Fe  Fe54      1.0  0.73492  0.14572  0.98147  1.0000
  H   H866      1.0  0.53149  0.14636  0.08439  1.0000
  H   H867      1.0  0.59214  0.04868  0.02735  1.0000
  H   H868      1.0  0.64196  0.13162  0.46120  1.0000
  H   H869      1.0  0.54521  0.00225  0.02523  1.0000
  H   H870      1.0  0.98652  0.29272  0.41741  1.0000
  H   H871      1.0  0.85373  0.33228  0.14067  1.0000
  H   H872      1.0  0.60648  0.03623  0.99698  1.0000
  C   C499      1.0  0.58623  0.03436  0.00659  1.0000
  H   H873      1.0  0.49871  0.20998  0.35671  1.0000
  H   H874      1.0  0.84575  0.31734  0.20011  1.0000
  C   C500      1.0  0.85393  0.31336  0.15132  1.0000
  Fe  Fe55      1.0  0.73041  0.14227  0.47394  1.0000
  N   N27       1.0  0.55082  0.32568  0.07066  1.0000
  H   H875      1.0  0.58651  0.32577  0.04638  1.0000
  H   H876      1.0  0.57638  0.04225  0.98907  1.0000
  H   H877      1.0  0.58746  0.33094  0.09842  1.0000
  H   H878      1.0  0.50671  0.06331  0.44947  1.0000
  H   H879      1.0  0.50803  0.22275  0.44570  1.0000
  H   H880      1.0  0.50628  0.11868  0.05818  1.0000
  H   H881      1.0  0.89883  0.33039  0.13770  1.0000
  H   H882      1.0  0.72150  0.25449  0.96171  1.0000
  Fe  Fe56      1.0  0.68561  0.14352  0.51676  1.0000
  H   H883      1.0  0.58104  0.07676  0.55130  1.0000
  S   S108      1.0  0.55108  0.14227  0.92256  1.0000
  Fe  Fe57      1.0  0.74261  0.15124  0.54426  1.0000
  S   S109      1.0  0.74305  0.11909  0.50933  1.0000
  S   S110      1.0  0.78157  0.17860  0.57725  1.0000
  H   H884      1.0  0.79751  0.21353  0.95885  1.0000
  S   S111      1.0  0.50780  0.27263  0.68785  1.0000
  Fe  Fe58      1.0  0.69473  0.09084  0.51797  1.0000
  S   S112      1.0  0.66587  0.04146  0.52680  1.0000
  S   S113      1.0  0.73263  0.17561  0.50769  1.0000
  S   S114      1.0  0.69542  0.12123  0.55549  1.0000
  Fe  Fe59      1.0  0.84407  0.26809  0.74703  1.0000
  S   S115      1.0  0.87250  0.26312  0.78329  1.0000
  S   S116      1.0  0.80822  0.23325  0.71533  1.0000
  H   H885      1.0  0.73100  0.26182  0.90833  1.0000
  C   C501      1.0  0.72101  0.23641  0.49650  1.0000
  Fe  Fe60      1.0  0.90685  0.30962  0.77172  1.0000
  C   C502      1.0  0.53422  0.19785  0.80981  1.0000
  Fe  Fe61      1.0  0.85565  0.28408  0.81662  1.0000
  S   S117      1.0  0.84592  0.27438  0.86815  1.0000
  S   S118      1.0  0.50190  0.17855  0.93700  1.0000
  S   S119      1.0  0.82522  0.28614  0.78184  1.0000
  H   H886      1.0  0.78589  0.30949  0.74792  1.0000
  H   H887      1.0  0.54977  0.18641  0.76766  1.0000
  C   C503      1.0  0.78124  0.18885  0.91667  1.0000
  C   C504      1.0  0.79862  0.21418  0.93381  1.0000
  C   C505      1.0  0.81813  0.24022  0.91852  1.0000
  C   C506      1.0  0.82043  0.24124  0.88601  1.0000
  C   C507      1.0  0.80293  0.21598  0.86885  1.0000
  C   C508      1.0  0.78355  0.18991  0.88415  1.0000
  C   C509      1.0  0.83829  0.30011  0.65599  1.0000
  H   H888      1.0  0.83168  0.25965  0.93199  1.0000
  H   H889      1.0  0.80456  0.21643  0.84383  1.0000
  H   H890      1.0  0.77051  0.17032  0.87071  1.0000
  C   C510      1.0  0.80151  0.21747  0.67718  1.0000
  C   C511      1.0  0.82385  0.22240  0.65659  1.0000
  C   C512      1.0  0.81727  0.21017  0.62639  1.0000
  C   C513      1.0  0.78829  0.19281  0.61610  1.0000
  C   C514      1.0  0.76595  0.18784  0.63673  1.0000
  C   C515      1.0  0.77254  0.19997  0.66697  1.0000
  H   H891      1.0  0.84622  0.23545  0.66397  1.0000
  H   H892      1.0  0.83480  0.21412  0.61084  1.0000
  H   H893      1.0  0.74357  0.17455  0.62940  1.0000
  H   H894      1.0  0.75498  0.19583  0.68256  1.0000
  H   H895      1.0  0.56179  0.15543  0.56171  1.0000
  H   H896      1.0  0.83526  0.32765  0.59017  1.0000
  C   C516      1.0  0.91633  0.29462  0.90029  1.0000
  C   C517      1.0  0.65988  0.01386  0.96820  1.0000
  H   H897      1.0  0.67367  0.03534  0.95861  1.0000
  Fe  Fe62      1.0  0.51056  0.14123  0.94116  1.0000
  H   H898      1.0  0.77519  0.28145  0.87535  1.0000
  H   H899      1.0  0.58745  0.23459  0.86819  1.0000
  H   H900      1.0  0.73983  0.23352  0.50207  1.0000
  H   H901      1.0  0.68821  0.18253  0.87847  1.0000
  H   H902      1.0  0.51246  0.16093  0.77697  1.0000
  H   H903      1.0  0.68576  0.25789  0.92067  1.0000
  H   H904      1.0  0.61989  0.05675  0.51875  1.0000
  H   H905      1.0  0.88360  0.28780  0.65561  1.0000
  C   C518      1.0  0.88880  0.30887  0.64467  1.0000
  C   C519      1.0  0.81167  0.32371  0.63406  1.0000
  H   H906      1.0  0.55032  0.22144  0.80724  1.0000
  H   H907      1.0  0.56095  0.24319  0.85306  1.0000
  H   H908      1.0  0.62184  0.18230  0.82031  1.0000
  H   H909      1.0  0.72758  0.19258  0.92466  1.0000
  H   H910      1.0  0.73687  0.21472  0.87193  1.0000
  H   H911      1.0  0.63542  0.13396  0.95529  1.0000
  H   H912      1.0  0.54565  0.18453  0.88469  1.0000
  H   H913      1.0  0.88092  0.19032  0.86045  1.0000
  H   H914      1.0  0.76174  0.23495  0.90212  1.0000
  H   H915      1.0  0.61809  0.08841  0.50906  1.0000
  C   C520      1.0  0.67158  0.23940  0.93601  1.0000
  H   H916      1.0  0.58194  0.04396  0.56037  1.0000
  N   N28       1.0  0.80911  0.29546  0.64544  1.0000
  C   C521      1.0  0.79648  0.27146  0.62141  1.0000
  H   H917      1.0  0.53286  0.12849  0.53805  1.0000
  C   C522      1.0  0.78924  0.28511  0.67330  1.0000
  H   H918      1.0  0.53955  0.23715  0.90534  1.0000
  H   H919      1.0  0.90759  0.32680  0.87877  1.0000
  C   C523      1.0  0.76402  0.25955  0.61310  1.0000
  C   C524      1.0  0.60465  0.06535  0.51692  1.0000
  H   H920      1.0  0.58993  0.19113  0.87497  1.0000
  C   C525      1.0  0.51857  0.14293  0.57833  1.0000
  C   C526      1.0  0.75563  0.24195  0.58293  1.0000
  H   H921      1.0  0.97653  0.26559  0.86733  1.0000
  H   H922      1.0  0.79830  0.25253  0.62951  1.0000
  H   H923      1.0  0.80916  0.27818  0.59963  1.0000
  H   H924      1.0  0.61269  0.08340  0.59600  1.0000
  H   H925      1.0  0.83531  0.28048  0.66871  1.0000
  H   H926      1.0  0.78447  0.26287  0.68028  1.0000
  H   H927      1.0  0.83074  0.17987  0.86819  1.0000
  C   C527      1.0  0.54279  0.19686  0.86543  1.0000
  C   C528      1.0  0.94519  0.25261  0.78633  1.0000
  H   H928      1.0  0.89863  0.32646  0.66239  1.0000
  C   C529      1.0  0.57812  0.14630  0.94934  1.0000
  H   H929      1.0  0.75007  0.24474  0.63178  1.0000
  H   H930      1.0  0.75902  0.27745  0.61067  1.0000
  C   C530      1.0  0.98677  0.27019  0.91562  1.0000
  C   C531      1.0  0.64007  0.23159  0.93028  1.0000
  N   N29       1.0  0.54411  0.18438  0.83441  1.0000
  S   S120      1.0  0.68235  0.11193  0.48047  1.0000
  H   H931      1.0  0.76781  0.28287  0.66742  1.0000
  H   H932      1.0  0.98059  0.27662  0.93759  1.0000
  S   S121      1.0  0.87960  0.31279  0.73303  1.0000
  C   C532      1.0  0.76345  0.26034  0.86273  1.0000
  H   H933      1.0  0.76802  0.25598  0.56309  1.0000
  H   H934      1.0  0.76000  0.22353  0.58470  1.0000
  H   H935      1.0  0.73207  0.23277  0.57826  1.0000
  H   H936      1.0  0.62511  0.21299  0.94517  1.0000
  H   H937      1.0  0.96245  0.27972  0.82661  1.0000
  H   H938      1.0  0.83788  0.15573  0.89110  1.0000
  H   H939      1.0  0.97352  0.29425  0.88676  1.0000
  H   H940      1.0  0.56541  0.22742  0.92074  1.0000
  H   H941      1.0  0.52778  0.14136  0.81431  1.0000
  C   C533      1.0  0.53992  0.14860  0.55198  1.0000
  H   H942      1.0  0.58297  0.00998  0.50828  1.0000
  N   N30       1.0  0.91547  0.25141  0.87031  1.0000
  C   C534      1.0  0.91911  0.28157  0.86910  1.0000
  C   C535      1.0  0.91923  0.24186  0.83829  1.0000
  C   C536      1.0  0.88470  0.23071  0.88061  1.0000
  C   C537      1.0  0.93601  0.24963  0.89327  1.0000
  C   C538      1.0  0.96878  0.27140  0.88854  1.0000
  H   H943      1.0  0.89814  0.23127  0.82542  1.0000
  C   C539      1.0  0.87591  0.19798  0.88226  1.0000
  H   H944      1.0  0.57805  0.15765  0.85415  1.0000
  H   H945      1.0  0.57161  0.08337  0.49912  1.0000
  C   C540      1.0  0.52937  0.18434  0.77689  1.0000
  H   H946      1.0  0.57780  0.26344  0.90549  1.0000
  H   H947      1.0  0.94065  0.29747  0.85990  1.0000
  H   H948      1.0  0.92564  0.22482  0.84010  1.0000
  C   C541      1.0  0.65241  0.01071  0.50128  1.0000
  H   H949      1.0  0.86902  0.23268  0.86489  1.0000
  H   H950      1.0  0.88060  0.23642  0.90412  1.0000
  H   H951      1.0  0.93002  0.25201  0.91737  1.0000
  H   H952      1.0  0.93379  0.22759  0.89262  1.0000
  H   H953      1.0  0.66381  0.19679  0.94901  1.0000
  C   C542      1.0  0.67570  0.21273  0.93026  1.0000
  S   S122      1.0  0.95550  0.32727  0.76262  1.0000
  C   C543      1.0  0.62477  0.14929  0.49431  1.0000
  H   H954      1.0  0.89405  0.28201  0.90977  1.0000
  H   H955      1.0  0.74886  0.26153  0.84502  1.0000
  Fe  Fe63      1.0  0.52101  0.32015  0.68278  1.0000
  C   C544      1.0  0.80056  0.30483  0.70258  1.0000
  H   H956      1.0  0.60240  0.16573  0.52204  1.0000
  H   H957      1.0  0.52076  0.19392  0.86912  1.0000
  H   H958      1.0  0.75823  0.29704  0.71826  1.0000
  S   S123      1.0  0.75780  0.15501  0.93470  1.0000
  H   H959      1.0  0.63738  0.25057  0.93597  1.0000
  H   H960      1.0  0.63073  0.18390  0.86086  1.0000
  H   H961      1.0  0.51732  0.12486  0.59246  1.0000
  H   H962      1.0  0.53099  0.24092  0.55855  1.0000
  H   H963      1.0  0.93191  0.29511  0.91777  1.0000
  C   C545      1.0  0.56159  0.23996  0.90246  1.0000
  C   C546      1.0  0.62096  0.19164  0.84309  1.0000
  C   C547      1.0  0.52486  0.15168  0.83544  1.0000
  C   C548      1.0  0.56470  0.22982  0.87027  1.0000
  H   H964      1.0  0.54169  0.16629  0.53661  1.0000
  H   H965      1.0  0.56422  0.15521  0.48254  1.0000
  S   S124      1.0  0.89167  0.33009  0.80702  1.0000
  H   H966      1.0  0.76931  0.27235  0.73427  1.0000
  C   C549      1.0  0.86148  0.30716  0.63073  1.0000
  H   H967      1.0  0.52799  0.16308  0.59262  1.0000
  C   C550      1.0  0.62045  0.08343  0.57212  1.0000
  N   N31       1.0  0.70669  0.21885  0.92878  1.0000
  S   S125      1.0  0.65168  0.15726  0.52284  1.0000
  H   H968      1.0  0.92011  0.29126  0.50287  1.0000
  H   H969      1.0  0.71765  0.15792  0.88180  1.0000
  H   H970      1.0  0.63402  0.22566  0.90561  1.0000
  C   C551      1.0  0.94087  0.26584  0.81593  1.0000
  H   H971      1.0  0.92418  0.23952  0.77395  1.0000
  C   C552      1.0  0.62043  0.14130  0.96162  1.0000
  C   C553      1.0  0.74621  0.23535  0.88536  1.0000
  C   C554      1.0  0.57462  0.19119  0.82703  1.0000
  H   H972      1.0  0.69671  0.17721  0.94842  1.0000
  C   C555      1.0  0.92827  0.30966  0.48618  1.0000
  H   H973      1.0  0.79147  0.32441  0.63916  1.0000
  H   H974      1.0  0.59529  0.12598  0.91933  1.0000
  H   H975      1.0  0.72350  0.25554  0.50973  1.0000
  H   H976      1.0  0.93214  0.28016  0.80892  1.0000
  C   C556      1.0  0.69506  0.14710  0.89073  1.0000
  H   H977      1.0  0.66337  0.15794  0.90664  1.0000
  H   H978      1.0  0.69349  0.13357  0.91108  1.0000
  H   H979      1.0  0.70579  0.23506  0.88268  1.0000
  C   C557      1.0  0.68655  0.16978  0.89953  1.0000
  H   H980      1.0  0.66388  0.20230  0.90842  1.0000
  H   H981      1.0  0.83691  0.18578  0.90956  1.0000
  H   H982      1.0  0.90506  0.31371  0.62616  1.0000
  H   H983      1.0  0.58886  0.21488  0.82235  1.0000
  H   H984      1.0  0.68028  0.13252  0.87233  1.0000
  H   H985      1.0  0.98364  0.24789  0.91809  1.0000
  C   C558      1.0  0.58955  0.18175  0.85188  1.0000
  C   C559      1.0  0.55964  0.05935  0.49460  1.0000
  N   N32       1.0  0.58070  0.04790  0.49370  1.0000
  H   H986      1.0  0.57478  0.18014  0.80515  1.0000
  C   C560      1.0  0.72173  0.23855  0.90141  1.0000
  H   H987      1.0  0.70061  0.21685  0.50408  1.0000
  Fe  Fe64      1.0  0.86230  0.33031  0.76967  1.0000
  H   H988      1.0  0.76723  0.25746  0.94571  1.0000
  H   H989      1.0  0.90313  0.28184  0.85246  1.0000
  H   H990      1.0  0.63454  0.07342  0.57278  1.0000
  C   C561      1.0  0.70552  0.18979  0.92653  1.0000
  H   H991      1.0  0.77982  0.25672  0.85061  1.0000
  H   H992      1.0  0.84858  0.31846  0.67287  1.0000
  H   H993      1.0  0.95473  0.23862  0.79177  1.0000
  H   H994      1.0  0.63397  0.21582  0.84202  1.0000
  C   C562      1.0  0.60266  0.15582  0.50019  1.0000
  H   H995      1.0  0.53124  0.14242  0.85513  1.0000
  C   C563      1.0  0.59774  0.13686  0.94129  1.0000
  H   H996      1.0  0.85351  0.29019  0.61239  1.0000
  H   H997      1.0  0.96029  0.27039  0.77067  1.0000
  H   H998      1.0  0.81879  0.30335  0.71332  1.0000
  C   C564      1.0  0.72123  0.23348  0.95893  1.0000
  H   H999      1.0  0.88751  0.19430  0.90164  1.0000
  H   H1000     1.0  0.51380  0.19727  0.81691  1.0000
  C   C565      1.0  0.59457  0.06619  0.55055  1.0000
  H   H1001     1.0  0.54432  0.04947  0.51435  1.0000
  C   C566      1.0  0.84338  0.17878  0.88818  1.0000
  C   C567      1.0  0.56620  0.01628  0.50327  1.0000
  H   H1002     1.0  0.67671  0.24665  0.96054  1.0000
  C   C568      1.0  0.92282  0.32600  0.89593  1.0000
  H   H1003     1.0  0.63335  0.10640  0.56428  1.0000
  H   H1004     1.0  0.91182  0.31670  0.48416  1.0000
  H   H1005     1.0  0.75535  0.22156  0.96163  1.0000
  C   C569      1.0  0.77690  0.29523  0.72717  1.0000
  C   C570      1.0  0.75321  0.24126  0.96324  1.0000
  H   H1006     1.0  0.94888  0.32796  0.49544  1.0000
  S   S126      1.0  0.50736  0.20041  0.50821  1.0000
  H   H1007     1.0  0.51638  0.19017  0.73080  1.0000
  H   H1008     1.0  0.50871  0.25317  0.60242  1.0000
  C   C571      1.0  0.50758  0.22995  0.56059  1.0000
  C   C572      1.0  0.51927  0.19980  0.75433  1.0000
  H   H1009     1.0  0.55445  0.01287  0.52551  1.0000
  H   H1010     1.0  0.86824  0.32876  0.62037  1.0000
  H   H1011     1.0  0.79757  0.31562  0.58526  1.0000
  H   H1012     1.0  0.53549  0.22344  0.75294  1.0000
  H   H1013     1.0  0.50230  0.25420  0.84036  1.0000
  S   S127      1.0  0.49828  0.12555  0.48099  1.0000
  H   H1014     1.0  0.50145  0.04799  0.48783  1.0000
  C   C573      1.0  0.81726  0.33045  0.59888  1.0000
  H   H1015     1.0  0.52767  0.08608  0.48125  1.0000
  H   H1016     1.0  0.80824  0.32799  0.69682  1.0000
  C   C574      1.0  0.58098  0.14984  0.47787  1.0000
  Fe  Fe65      1.0  0.73395  0.55070  0.15317  1.0000
  S   S128      1.0  0.72529  0.50834  0.13244  1.0000
  S   S129      1.0  0.77029  0.57599  0.18821  1.0000
  Fe  Fe66      1.0  0.68205  0.54910  0.11996  1.0000
  S   S130      1.0  0.67043  0.50626  0.09632  1.0000
  S   S131      1.0  0.65023  0.56611  0.11140  1.0000
  Fe  Fe67      1.0  0.67846  0.49272  0.14294  1.0000
  S   S132      1.0  0.65372  0.45056  0.17010  1.0000
  Fe  Fe68      1.0  0.71867  0.52548  0.08706  1.0000
  S   S133      1.0  0.73527  0.51309  0.04287  1.0000
  S   S134      1.0  0.68751  0.53409  0.16688  1.0000
  S   S135      1.0  0.72972  0.56931  0.10736  1.0000
  S   S136      1.0  0.52204  0.35628  0.14354  1.0000
  Fe  Fe69      1.0  0.85991  0.53087  0.30615  1.0000
  S   S137      1.0  0.83968  0.49625  0.34301  1.0000
  S   S138      1.0  0.83483  0.51925  0.26031  1.0000
  Fe  Fe70      1.0  0.91593  0.56612  0.34351  1.0000
  S   S139      1.0  0.89856  0.53422  0.38322  1.0000
  S   S140      1.0  0.96267  0.60470  0.34790  1.0000
  Fe  Fe71      1.0  0.88341  0.49961  0.34624  1.0000
  S   S141      1.0  0.89509  0.46394  0.35289  1.0000
  Fe  Fe72      1.0  0.85583  0.53341  0.37745  1.0000
  S   S142      1.0  0.82518  0.52519  0.41953  1.0000
  S   S143      1.0  0.90270  0.53146  0.30715  1.0000
  S   S144      1.0  0.87421  0.56824  0.34009  1.0000
  H   H1017     1.0  0.92326  0.37154  0.36118  1.0000
  C   C575      1.0  0.62649  0.61892  0.25883  1.0000
  C   C576      1.0  0.86492  0.38376  0.28951  1.0000
  C   C577      1.0  0.85455  0.40323  0.28443  1.0000
  C   C578      1.0  0.86379  0.42810  0.30338  1.0000
  C   C579      1.0  0.88344  0.43362  0.32766  1.0000
  C   C580      1.0  0.89410  0.41438  0.33244  1.0000
  C   C581      1.0  0.88494  0.38963  0.31345  1.0000
  H   H1018     1.0  0.83913  0.39895  0.26593  1.0000
  H   H1019     1.0  0.85547  0.44279  0.29944  1.0000
  H   H1020     1.0  0.90932  0.41849  0.35110  1.0000
  H   H1021     1.0  0.89321  0.37498  0.31748  1.0000
  H   H1022     1.0  0.51730  0.48208  0.14305  1.0000
  H   H1023     1.0  0.81753  0.59632  0.30481  1.0000
  H   H1024     1.0  0.97336  0.58357  0.28897  1.0000
  C   C582      1.0  0.76313  0.52584  0.01376  1.0000
  Fe  Fe73      1.0  0.51288  0.62445  0.18702  1.0000
  C   C583      1.0  0.50368  0.51133  0.18564  1.0000
  C   C584      1.0  0.80564  0.53609  0.44525  1.0000
  C   C585      1.0  0.98722  0.49386  0.34614  1.0000
  H   H1025     1.0  0.97796  0.45558  0.39440  1.0000
  H   H1026     1.0  0.73798  0.52361  0.25806  1.0000
  H   H1027     1.0  0.98385  0.38048  0.37618  1.0000
  C   C586      1.0  0.51838  0.49323  0.19175  1.0000
  C   C587      1.0  0.78822  0.51683  0.46884  1.0000
  C   C588      1.0  0.78808  0.56007  0.20831  1.0000
  C   C589      1.0  0.78158  0.53149  0.20225  1.0000
  C   C590      1.0  0.79665  0.51971  0.21788  1.0000
  C   C591      1.0  0.81776  0.53601  0.24047  1.0000
  C   C592      1.0  0.82403  0.56447  0.24691  1.0000
  C   C593      1.0  0.80938  0.57651  0.23070  1.0000
  H   H1028     1.0  0.76481  0.51840  0.18567  1.0000
  H   H1029     1.0  0.79148  0.49758  0.21292  1.0000
  H   H1030     1.0  0.84036  0.57729  0.26409  1.0000
  H   H1031     1.0  0.81456  0.59866  0.23554  1.0000
  C   C594      1.0  0.61679  0.42501  0.16327  1.0000
  C   C595      1.0  0.60196  0.40158  0.18387  1.0000
  C   C596      1.0  0.57258  0.38059  0.17877  1.0000
  C   C597      1.0  0.55800  0.38293  0.15292  1.0000
  C   C598      1.0  0.57276  0.40644  0.13253  1.0000
  C   C599      1.0  0.60205  0.42741  0.13760  1.0000
  H   H1032     1.0  0.61330  0.39959  0.20378  1.0000
  H   H1033     1.0  0.56141  0.36245  0.19456  1.0000
  H   H1034     1.0  0.56140  0.40838  0.11267  1.0000
  H   H1035     1.0  0.61333  0.44532  0.12160  1.0000
  C   C600      1.0  0.64104  0.58899  0.13352  1.0000
  C   C601      1.0  0.61645  0.59094  0.12484  1.0000
  C   C602      1.0  0.60902  0.60979  0.14054  1.0000
  C   C603      1.0  0.62636  0.62734  0.16499  1.0000
  C   C604      1.0  0.65069  0.62506  0.17398  1.0000
  C   C605      1.0  0.65788  0.60590  0.15856  1.0000
  H   H1036     1.0  0.60327  0.57809  0.10549  1.0000
  H   H1037     1.0  0.59029  0.61124  0.13324  1.0000
  H   H1038     1.0  0.95687  0.40554  0.36162  1.0000
  H   H1039     1.0  0.67690  0.60481  0.16551  1.0000
  H   H1040     1.0  0.50851  0.60727  0.07827  1.0000
  H   H1041     1.0  0.84242  0.35685  0.19399  1.0000
  S   S145      1.0  0.54302  0.63652  0.14633  1.0000
  N   N33       1.0  0.54912  0.47367  0.16522  1.0000
  C   C606      1.0  0.55870  0.47012  0.13345  1.0000
  C   C607      1.0  0.50020  0.42474  0.16126  1.0000
  C   C608      1.0  0.53365  0.49095  0.16213  1.0000
  C   C609      1.0  0.57479  0.48989  0.18675  1.0000
  C   C610      1.0  0.59628  0.47806  0.18876  1.0000
  C   C611      1.0  0.58165  0.49856  0.11736  1.0000
  H   H1042     1.0  0.96108  0.34494  0.44113  1.0000
  H   H1043     1.0  0.83885  0.52270  0.00907  1.0000
  H   H1044     1.0  0.51719  0.56911  0.10904  1.0000
  C   C612      1.0  0.62026  0.49523  0.21253  1.0000
  C   C613      1.0  0.59059  0.49181  0.08617  1.0000
  H   H1045     1.0  0.72473  0.51776  0.41924  1.0000
  H   H1046     1.0  0.53978  0.45973  0.11737  1.0000
  H   H1047     1.0  0.56735  0.45492  0.13436  1.0000
  H   H1048     1.0  0.64401  0.61461  0.25140  1.0000
  C   C614      1.0  0.81500  0.58837  0.32907  1.0000
  H   H1049     1.0  0.87459  0.55429  0.00782  1.0000
  H   H1050     1.0  0.54928  0.51379  0.15512  1.0000
  H   H1051     1.0  0.58753  0.51342  0.18040  1.0000
  H   H1052     1.0  0.56715  0.48966  0.21079  1.0000
  H   H1053     1.0  0.60702  0.48000  0.16619  1.0000
  H   H1054     1.0  0.58512  0.45485  0.19587  1.0000
  H   H1055     1.0  0.57291  0.51339  0.11290  1.0000
  H   H1056     1.0  0.60157  0.51042  0.13166  1.0000
  H   H1057     1.0  0.79168  0.59127  0.46106  1.0000
  C   C615      1.0  0.80658  0.56295  0.44270  1.0000
  H   H1058     1.0  0.58510  0.41714  0.06424  1.0000
  H   H1059     1.0  0.99770  0.35496  0.40570  1.0000
  H   H1060     1.0  0.75852  0.55151  0.32143  1.0000
  C   C616      1.0  0.74728  0.49931  0.35087  1.0000
  C   C617      1.0  0.76884  0.44878  0.28430  1.0000
  H   H1061     1.0  0.63253  0.51871  0.20627  1.0000
  H   H1062     1.0  0.61095  0.49281  0.23608  1.0000
  H   H1063     1.0  0.63567  0.48677  0.21296  1.0000
  H   H1064     1.0  0.60055  0.47787  0.08947  1.0000
  H   H1065     1.0  0.57153  0.48062  0.07044  1.0000
  H   H1066     1.0  0.69469  0.49266  0.22679  1.0000
  H   H1067     1.0  0.96503  0.48257  0.35646  1.0000
  C   C618      1.0  0.52946  0.44372  0.17852  1.0000
  H   H1068     1.0  0.60693  0.51247  0.07504  1.0000
  N   N34       1.0  0.82038  0.53992  0.09989  1.0000
  C   C619      1.0  0.82558  0.52859  0.06985  1.0000
  C   C620      1.0  0.79257  0.51634  0.11404  1.0000
  C   C621      1.0  0.81572  0.56514  0.09203  1.0000
  C   C622      1.0  0.84536  0.55041  0.12265  1.0000
  C   C623      1.0  0.86329  0.53451  0.12238  1.0000
  C   C624      1.0  0.85011  0.55166  0.04909  1.0000
  C   C625      1.0  0.80692  0.57825  0.11928  1.0000
  C   C626      1.0  0.79207  0.48807  0.12427  1.0000
  C   C627      1.0  0.76170  0.46501  0.13483  1.0000
  C   C628      1.0  0.88289  0.54252  0.15100  1.0000
  C   C629      1.0  0.85825  0.53726  0.02331  1.0000
  C   C630      1.0  0.80969  0.60749  0.11038  1.0000
  H   H1069     1.0  0.80537  0.51850  0.05543  1.0000
  H   H1070     1.0  0.83029  0.51069  0.07399  1.0000
  H   H1071     1.0  0.78732  0.52449  0.13537  1.0000
  H   H1072     1.0  0.77413  0.51023  0.09758  1.0000
  H   H1073     1.0  0.79853  0.55843  0.07393  1.0000
  H   H1074     1.0  0.83583  0.58349  0.08205  1.0000
  H   H1075     1.0  0.86141  0.57391  0.11884  1.0000
  H   H1076     1.0  0.83731  0.54944  0.14674  1.0000
  H   H1077     1.0  0.87743  0.54093  0.10162  1.0000
  H   H1078     1.0  0.84948  0.51052  0.12183  1.0000
  H   H1079     1.0  0.84266  0.56560  0.03767  1.0000
  H   H1080     1.0  0.86987  0.56605  0.06281  1.0000
  H   H1081     1.0  0.82051  0.58176  0.14019  1.0000
  H   H1082     1.0  0.78387  0.56341  0.12541  1.0000
  H   H1083     1.0  0.79837  0.47835  0.10520  1.0000
  H   H1084     1.0  0.80682  0.49270  0.14442  1.0000
  H   H1085     1.0  0.76186  0.44489  0.14183  1.0000
  H   H1086     1.0  0.75477  0.47298  0.15510  1.0000
  H   H1087     1.0  0.74566  0.45941  0.11572  1.0000
  H   H1088     1.0  0.89605  0.53155  0.14990  1.0000
  H   H1089     1.0  0.89789  0.56647  0.15218  1.0000
  H   H1090     1.0  0.86962  0.53528  0.17249  1.0000
  C   C631      1.0  0.78442  0.55525  0.01059  1.0000
  C   C632      1.0  0.55885  0.35667  0.06276  1.0000
  H   H1091     1.0  0.60474  0.37273  0.04963  1.0000
  H   H1092     1.0  0.83274  0.62398  0.10587  1.0000
  H   H1093     1.0  0.79643  0.60504  0.08942  1.0000
  H   H1094     1.0  0.80172  0.61547  0.12974  1.0000
  H   H1095     1.0  0.68463  0.50397  0.26175  1.0000
  H   H1096     1.0  0.96107  0.55455  0.41702  1.0000
  C   C633      1.0  0.76809  0.49395  0.30250  1.0000
  H   H1097     1.0  0.99662  0.55804  0.41827  1.0000
  H   H1098     1.0  0.80873  0.34483  0.21439  1.0000
  H   H1099     1.0  0.67861  0.46719  0.25818  1.0000
  H   H1100     1.0  0.57276  0.65175  0.31859  1.0000
  H   H1101     1.0  0.86767  0.52440  0.03319  1.0000
  C   C634      1.0  0.81918  0.35035  0.19126  1.0000
  H   H1102     1.0  0.74748  0.48274  0.99498  1.0000
  C   C635      1.0  0.69355  0.49047  0.25246  1.0000
  H   H1103     1.0  0.71343  0.51076  0.31045  1.0000
  C   C636      1.0  0.79057  0.57038  0.46339  1.0000
  H   H1104     1.0  0.78408  0.57136  0.02575  1.0000
  H   H1105     1.0  0.59661  0.64694  0.26022  1.0000
  H   H1106     1.0  0.50407  0.41910  0.13764  1.0000
  H   H1107     1.0  0.73198  0.48717  0.25450  1.0000
  S   S146      1.0  0.97275  0.34768  0.28515  1.0000
  C   C637      1.0  0.93436  0.49130  0.26529  1.0000
  H   H1108     1.0  0.55108  0.35775  0.03909  1.0000
  C   C638      1.0  0.80077  0.55514  0.32973  1.0000
  C   C639      1.0  0.94707  0.38177  0.35766  1.0000
  H   H1109     1.0  0.70760  0.47497  0.30759  1.0000
  H   H1110     1.0  0.60028  0.38304  0.08799  1.0000
  H   H1111     1.0  0.71203  0.48144  0.40448  1.0000
  C   C640      1.0  0.61555  0.65824  0.27628  1.0000
  H   H1112     1.0  0.51987  0.53383  0.17835  1.0000
  C   C641      1.0  0.96719  0.51604  0.31164  1.0000
  H   H1113     1.0  0.96233  0.51551  0.38638  1.0000
  C   C642      1.0  0.97160  0.53763  0.37629  1.0000
  H   H1114     1.0  0.54059  0.43061  0.17852  1.0000
  C   C643      1.0  0.80622  0.56398  0.98764  1.0000
  H   H1115     1.0  0.83686  0.59833  0.33999  1.0000
  C   C644      1.0  0.59778  0.40912  0.05136  1.0000
  H   H1116     1.0  0.92906  0.47503  0.24650  1.0000
  H   H1117     1.0  0.95611  0.37418  0.40402  1.0000
  H   H1118     1.0  0.95250  0.47165  0.29420  1.0000
  H   H1119     1.0  0.94019  0.51266  0.25468  1.0000
  C   C645      1.0  0.77064  0.54058  0.31351  1.0000
  H   H1120     1.0  0.78695  0.49586  0.47099  1.0000
  H   H1121     1.0  0.94733  0.50720  0.32607  1.0000
  H   H1122     1.0  0.81535  0.54917  0.31737  1.0000
  H   H1123     1.0  0.77242  0.45651  0.25990  1.0000
  H   H1124     1.0  0.75390  0.53973  0.37324  1.0000
  H   H1125     1.0  0.72936  0.55424  0.98551  1.0000
  H   H1126     1.0  0.95432  0.53890  0.36302  1.0000
  H   H1127     1.0  0.56661  0.34443  0.11628  1.0000
  H   H1128     1.0  0.73070  0.47580  0.35304  1.0000
  H   H1129     1.0  0.82931  0.38450  0.15709  1.0000
  S   S147      1.0  0.50896  0.66474  0.18417  1.0000
  C   C646      1.0  0.76380  0.50554  0.99302  1.0000
  H   H1130     1.0  0.53429  0.50399  0.21082  1.0000
  H   H1131     1.0  0.97011  0.53673  0.30163  1.0000
  H   H1132     1.0  0.98671  0.47838  0.32834  1.0000
  C   C647      1.0  0.73048  0.50421  0.40443  1.0000
  C   C648      1.0  0.95953  0.49373  0.28483  1.0000
  H   H1133     1.0  0.98996  0.58205  0.39398  1.0000
  H   H1134     1.0  0.78888  0.50062  0.31489  1.0000
  H   H1135     1.0  0.79029  0.45643  0.29559  1.0000
  H   H1136     1.0  0.60824  0.64697  0.29892  1.0000
  H   H1137     1.0  0.80174  0.59557  0.34224  1.0000
  S   S148      1.0  0.61928  0.65312  0.18428  1.0000
  H   H1138     1.0  0.61604  0.60585  0.27992  1.0000
  H   H1139     1.0  0.66437  0.63852  0.19275  1.0000
  H   H1140     1.0  0.52368  0.64940  0.99627  1.0000
  Fe  Fe74      1.0  0.57913  0.65871  0.18089  1.0000
  C   C649      1.0  0.59186  0.37960  0.06384  1.0000
  C   C650      1.0  0.96004  0.36904  0.38024  1.0000
  H   H1141     1.0  0.77451  0.50194  0.27850  1.0000
  N   N35       1.0  0.75235  0.50795  0.31713  1.0000
  H   H1142     1.0  0.82259  0.58677  0.98572  1.0000
  H   H1143     1.0  0.59207  0.40739  0.02635  1.0000
  H   H1144     1.0  0.73012  0.45127  0.29002  1.0000
  H   H1145     1.0  0.91468  0.48390  0.27983  1.0000
  H   H1146     1.0  0.75677  0.42457  0.28425  1.0000
  S   S149      1.0  0.54910  0.64445  0.22195  1.0000
  H   H1147     1.0  0.82926  0.39516  0.19677  1.0000
  H   H1148     1.0  0.89446  0.34155  0.17583  1.0000
  C   C651      1.0  0.75147  0.46014  0.30177  1.0000
  C   C652      1.0  0.72337  0.49801  0.30153  1.0000
  C   C653      1.0  0.81809  0.37710  0.17974  1.0000
  H   H1149     1.0  0.62123  0.42540  0.05408  1.0000
  H   H1150     1.0  0.77525  0.54648  0.28862  1.0000
  H   H1151     1.0  0.54767  0.36440  0.07881  1.0000
  H   H1152     1.0  0.74790  0.45126  0.32567  1.0000
  H   H1153     1.0  0.81968  0.57807  0.42478  1.0000
  S   S150      1.0  0.85220  0.35219  0.26586  1.0000
  H   H1154     1.0  0.61016  0.61183  0.23981  1.0000
  C   C654      1.0  0.72393  0.50070  0.26555  1.0000
  H   H1155     1.0  0.71685  0.51503  0.36199  1.0000
  H   H1156     1.0  0.76728  0.50128  0.36173  1.0000
  H   H1157     1.0  0.74988  0.50462  0.41468  1.0000
  C   C655      1.0  0.73692  0.51640  0.37147  1.0000
  H   H1158     1.0  0.65597  0.65748  0.28386  1.0000
  H   H1159     1.0  0.97829  0.50007  0.26921  1.0000
  H   H1160     1.0  0.95141  0.37826  0.33329  1.0000
  H   H1161     1.0  0.79944  0.54848  0.35430  1.0000
  H   H1162     1.0  0.71947  0.58154  0.97730  1.0000
  C   C656      1.0  0.98050  0.55946  0.40301  1.0000
  C   C657      1.0  0.63934  0.65149  0.26538  1.0000
  H   H1163     1.0  0.79523  0.37210  0.17731  1.0000
  H   H1164     1.0  0.52475  0.44529  0.20336  1.0000
  H   H1165     1.0  0.65009  0.66321  0.24384  1.0000
  C   C658      1.0  0.99774  0.54502  0.35481  1.0000
  H   H1166     1.0  0.50135  0.47141  0.19976  1.0000
  N   N36       1.0  0.99334  0.52213  0.33113  1.0000
  C   C659      1.0  0.99412  0.59866  0.29929  1.0000
  C   C660      1.0  0.99492  0.61210  0.32754  1.0000
  H   H1167     1.0  0.50149  0.64127  0.04826  1.0000
  C   C661      1.0  0.50160  0.63448  0.98698  1.0000
  H   H1168     1.0  0.95433  0.33363  0.35167  1.0000
  C   C662      1.0  0.94666  0.33568  0.37495  1.0000
  Fe  Fe75      1.0  0.73228  0.52619  0.62507  1.0000
  S   S151      1.0  0.71923  0.50249  0.57919  1.0000
  S   S152      1.0  0.76281  0.51555  0.65274  1.0000
  Fe  Fe76      1.0  0.69546  0.55596  0.61289  1.0000
  S   S153      1.0  0.68121  0.53486  0.56576  1.0000
  S   S154      1.0  0.67505  0.57782  0.64201  1.0000
  Fe  Fe77      1.0  0.67429  0.49408  0.58963  1.0000
  S   S155      1.0  0.63396  0.45057  0.57916  1.0000
  Fe  Fe78      1.0  0.72768  0.54473  0.55846  1.0000
  S   S156      1.0  0.75356  0.56209  0.51258  1.0000
  S   S157      1.0  0.68645  0.51420  0.63679  1.0000
  S   S158      1.0  0.74277  0.56940  0.60423  1.0000
  S   S159      1.0  0.56678  0.35915  0.68593  1.0000
  Fe  Fe79      1.0  0.83904  0.53723  0.82283  1.0000
  S   S160      1.0  0.81820  0.50474  0.86160  1.0000
  S   S161      1.0  0.80813  0.54566  0.79295  1.0000
  Fe  Fe80      1.0  0.90136  0.55965  0.84848  1.0000
  S   S162      1.0  0.88345  0.52948  0.88953  1.0000
  S   S163      1.0  0.95135  0.58900  0.85022  1.0000
  Fe  Fe81      1.0  0.85514  0.49583  0.85424  1.0000
  S   S164      1.0  0.85340  0.45232  0.86043  1.0000
  Fe  Fe82      1.0  0.84802  0.54085  0.89386  1.0000
  S   S165      1.0  0.83548  0.55631  0.93874  1.0000
  S   S166      1.0  0.87384  0.52539  0.81299  1.0000
  S   S167      1.0  0.86812  0.57389  0.85533  1.0000
  S   S168      1.0  0.85594  0.36833  0.75623  1.0000
  H   H1169     1.0  0.53430  0.38439  0.71518  1.0000
  C   C663      1.0  0.85580  0.39195  0.78524  1.0000
  C   C664      1.0  0.85345  0.41634  0.77666  1.0000
  C   C665      1.0  0.85317  0.43542  0.79933  1.0000
  C   C666      1.0  0.85491  0.42999  0.83079  1.0000
  C   C667      1.0  0.85751  0.40576  0.83928  1.0000
  C   C668      1.0  0.85808  0.38688  0.81665  1.0000
  H   H1170     1.0  0.85174  0.42043  0.75239  1.0000
  H   H1171     1.0  0.85108  0.45397  0.79253  1.0000
  H   H1172     1.0  0.85882  0.40138  0.86355  1.0000
  H   H1173     1.0  0.85986  0.36818  0.82356  1.0000
  H   H1174     1.0  0.75142  0.47632  0.55127  1.0000
  H   H1175     1.0  0.84423  0.54024  0.52897  1.0000
  H   H1176     1.0  0.96056  0.58424  0.78338  1.0000
  C   C669      1.0  0.50971  0.40215  0.69259  1.0000
  C   C670      1.0  0.53386  0.58840  0.60527  1.0000
  H   H1177     1.0  0.73718  0.58101  0.81298  1.0000
  H   H1178     1.0  0.76574  0.55737  0.82846  1.0000
  H   H1179     1.0  0.76549  0.45282  0.56158  1.0000
  H   H1180     1.0  0.96167  0.33757  0.82971  1.0000
  H   H1181     1.0  0.55252  0.61119  0.60636  1.0000
  H   H1182     1.0  0.54004  0.57350  0.72047  1.0000
  C   C671      1.0  0.53484  0.42336  0.67150  1.0000
  H   H1183     1.0  0.96604  0.53344  0.87350  1.0000
  C   C672      1.0  0.77556  0.52459  0.69161  1.0000
  C   C673      1.0  0.76844  0.54156  0.71049  1.0000
  C   C674      1.0  0.77863  0.54771  0.74136  1.0000
  C   C675      1.0  0.79624  0.53722  0.75372  1.0000
  C   C676      1.0  0.80344  0.52028  0.73479  1.0000
  C   C677      1.0  0.79314  0.51403  0.70393  1.0000
  H   H1184     1.0  0.75534  0.55022  0.70124  1.0000
  H   H1185     1.0  0.77314  0.56104  0.75567  1.0000
  H   H1186     1.0  0.81697  0.51207  0.74393  1.0000
  H   H1187     1.0  0.79892  0.50100  0.68950  1.0000
  C   C678      1.0  0.61384  0.42589  0.60897  1.0000
  C   C679      1.0  0.59251  0.39726  0.60130  1.0000
  C   C680      1.0  0.57703  0.37677  0.62466  1.0000
  C   C681      1.0  0.58298  0.38481  0.65584  1.0000
  C   C682      1.0  0.60364  0.41369  0.66349  1.0000
  C   C683      1.0  0.61878  0.43424  0.64012  1.0000
  H   H1188     1.0  0.58838  0.39072  0.57720  1.0000
  H   H1189     1.0  0.56120  0.35454  0.61853  1.0000
  H   H1190     1.0  0.60806  0.42011  0.68758  1.0000
  H   H1191     1.0  0.63453  0.45643  0.64614  1.0000
  C   C684      1.0  0.66007  0.60151  0.63963  1.0000
  C   C685      1.0  0.64710  0.60552  0.66624  1.0000
  C   C686      1.0  0.63515  0.62415  0.66591  1.0000
  C   C687      1.0  0.63594  0.63914  0.63888  1.0000
  C   C688      1.0  0.64877  0.63505  0.61219  1.0000
  C   C689      1.0  0.66069  0.61634  0.61249  1.0000
  H   H1192     1.0  0.64660  0.59437  0.68744  1.0000
  H   H1193     1.0  0.92004  0.33466  0.91833  1.0000
  H   H1194     1.0  0.94504  0.49176  0.91049  1.0000
  H   H1195     1.0  0.67061  0.61363  0.59185  1.0000
  H   H1196     1.0  0.87327  0.56971  0.59139  1.0000
  H   H1197     1.0  0.82494  0.55854  0.52086  1.0000
  C   C690      1.0  0.98300  0.60224  0.82635  1.0000
  H   H1198     1.0  0.58938  0.54673  0.54515  1.0000
  H   H1199     1.0  0.82105  0.51827  0.62423  1.0000
  C   C691      1.0  0.80708  0.54364  0.96714  1.0000
  H   H1200     1.0  0.49976  0.61247  0.58989  1.0000
  C   C692      1.0  0.55399  0.45154  0.62407  1.0000
  H   H1201     1.0  0.74461  0.57934  0.86947  1.0000
  C   C693      1.0  0.57605  0.48147  0.63874  1.0000
  C   C694      1.0  0.60253  0.49819  0.61786  1.0000
  C   C695      1.0  0.52133  0.39477  0.72160  1.0000
  H   H1202     1.0  0.54855  0.45583  0.60036  1.0000
  H   H1203     1.0  0.56634  0.43985  0.62068  1.0000
  H   H1204     1.0  0.51003  0.53327  0.56021  1.0000
  C   C696      1.0  0.80082  0.52877  0.57089  1.0000
  H   H1205     1.0  0.58420  0.47854  0.66138  1.0000
  H   H1206     1.0  0.56625  0.49547  0.64231  1.0000
  H   H1207     1.0  0.85652  0.52846  0.66571  1.0000
  H   H1208     1.0  0.59586  0.50090  0.59426  1.0000
  H   H1209     1.0  0.61723  0.52013  0.62783  1.0000
  H   H1210     1.0  0.61489  0.48644  0.61599  1.0000
  N   N37       1.0  0.54454  0.56716  0.61099  1.0000
  C   C697      1.0  0.56772  0.57276  0.58741  1.0000
  C   C698      1.0  0.55887  0.57394  0.64260  1.0000
  H   H1211     1.0  0.89373  0.50424  0.75216  1.0000
  C   C699      1.0  0.83787  0.61738  0.87629  1.0000
  C   C700      1.0  0.58521  0.55688  0.59326  1.0000
  H   H1212     1.0  0.95389  0.42831  0.78190  1.0000
  H   H1213     1.0  0.61768  0.54972  0.57079  1.0000
  C   C701      1.0  0.60353  0.55900  0.56508  1.0000
  H   H1214     1.0  0.97385  0.47640  0.80934  1.0000
  H   H1215     1.0  0.58401  0.59656  0.58659  1.0000
  H   H1216     1.0  0.55862  0.56731  0.56362  1.0000
  H   H1217     1.0  0.57852  0.59603  0.64260  1.0000
  H   H1218     1.0  0.56651  0.55839  0.64837  1.0000
  H   H1219     1.0  0.64960  0.64649  0.59111  1.0000
  H   H1220     1.0  0.80291  0.49870  0.53700  1.0000
  H   H1221     1.0  0.70378  0.54684  0.81929  1.0000
  H   H1222     1.0  0.60049  0.56724  0.61298  1.0000
  H   H1223     1.0  0.64472  0.36935  0.76134  1.0000
  H   H1224     1.0  0.53512  0.41471  0.73546  1.0000
  N   N38       1.0  0.83129  0.55451  0.56991  1.0000
  H   H1225     1.0  0.90887  0.48229  0.89761  1.0000
  C   C702      1.0  0.53992  0.57318  0.67023  1.0000
  H   H1226     1.0  0.78639  0.53224  0.55485  1.0000
  H   H1227     1.0  0.69859  0.54563  0.96061  1.0000
  C   C703      1.0  0.76674  0.47395  0.56691  1.0000
  H   H1228     1.0  0.63628  0.37723  0.69216  1.0000
  H   H1229     1.0  0.88882  0.58684  0.54331  1.0000
  H   H1230     1.0  0.96034  0.53802  0.75864  1.0000
  N   N39       1.0  0.75932  0.55352  0.89432  1.0000
  C   C704      1.0  0.76458  0.52846  0.88794  1.0000
  C   C705      1.0  0.78818  0.58139  0.89722  1.0000
  C   C706      1.0  0.74437  0.54792  0.92544  1.0000
  C   C707      1.0  0.74040  0.55650  0.86994  1.0000
  C   C708      1.0  0.74297  0.54764  0.83618  1.0000
  C   C709      1.0  0.73737  0.49760  0.89067  1.0000
  H   H1231     1.0  0.95681  0.40791  0.85027  1.0000
  C   C710      1.0  0.80823  0.59102  0.86855  1.0000
  H   H1232     1.0  0.53801  0.39936  0.59688  1.0000
  C   C711      1.0  0.84161  0.55884  0.53676  1.0000
  C   C712      1.0  0.74248  0.47414  0.87641  1.0000
  H   H1233     1.0  0.50038  0.41539  0.60087  1.0000
  H   H1234     1.0  0.78115  0.52916  0.90432  1.0000
  H   H1235     1.0  0.77431  0.53034  0.86474  1.0000
  C   C713      1.0  0.77199  0.52416  0.48933  1.0000
  H   H1236     1.0  0.80059  0.57979  0.91727  1.0000
  H   H1237     1.0  0.75623  0.54243  0.94308  1.0000
  H   H1238     1.0  0.72213  0.52858  0.92412  1.0000
  H   H1239     1.0  0.71699  0.54299  0.87602  1.0000
  H   H1240     1.0  0.54900  0.44254  0.68622  1.0000
  H   H1241     1.0  0.73311  0.52363  0.83425  1.0000
  H   H1242     1.0  0.83549  0.63606  0.88419  1.0000
  H   H1243     1.0  0.73200  0.49190  0.91551  1.0000
  H   H1244     1.0  0.71821  0.49668  0.87920  1.0000
  C   C714      1.0  0.50637  0.40736  0.62197  1.0000
  H   H1245     1.0  0.86780  0.51855  0.63055  1.0000
  H   H1246     1.0  0.81202  0.57348  0.86002  1.0000
  H   H1247     1.0  0.85178  0.62415  0.85530  1.0000
  C   C715      1.0  0.85177  0.54939  0.58976  1.0000
  H   H1248     1.0  0.96314  0.39300  0.81551  1.0000
  H   H1249     1.0  0.75832  0.50876  0.50672  1.0000
  H   H1250     1.0  0.61470  0.37177  0.74430  1.0000
  C   C716      1.0  0.87090  0.58686  0.53005  1.0000
  C   C717      1.0  0.65073  0.38274  0.71278  1.0000
  H   H1251     1.0  0.72228  0.45262  0.87785  1.0000
  H   H1252     1.0  0.74871  0.47897  0.85162  1.0000
  H   H1253     1.0  0.75986  0.47274  0.88934  1.0000
  S   S169      1.0  0.62120  0.66305  0.63704  1.0000
  H   H1254     1.0  0.76339  0.43978  0.73471  1.0000
  H   H1255     1.0  0.91631  0.54288  0.76024  1.0000
  H   H1256     1.0  0.99284  0.54040  0.79163  1.0000
  C   C718      1.0  0.51256  0.45129  0.64962  1.0000
  H   H1257     1.0  0.98187  0.55013  0.82589  1.0000
  H   H1258     1.0  0.50282  0.37931  0.73621  1.0000
  H   H1259     1.0  0.61782  0.58217  0.55837  1.0000
  C   C719      1.0  0.83093  0.58100  0.58234  1.0000
  H   H1260     1.0  0.93166  0.51668  0.91659  1.0000
  H   H1261     1.0  0.54823  0.41314  0.66602  1.0000
  H   H1262     1.0  0.81024  0.61764  0.60053  1.0000
  C   C720      1.0  0.81353  0.59176  0.56298  1.0000
  H   H1263     1.0  0.76091  0.40961  0.71275  1.0000
  H   H1264     1.0  0.51766  0.46788  0.63116  1.0000
  H   H1265     1.0  0.94615  0.44231  0.74699  1.0000
  C   C721      1.0  0.98279  0.34355  0.82052  1.0000
  C   C722      1.0  0.81721  0.62030  0.57591  1.0000
  Fe  Fe83      1.0  0.52894  0.63952  0.69555  1.0000
  H   H1266     1.0  0.57070  0.53357  0.59897  1.0000
  H   H1267     1.0  0.76009  0.47354  0.59140  1.0000
  H   H1268     1.0  0.66630  0.37501  0.70845  1.0000
  H   H1269     1.0  0.85345  0.59954  0.58555  1.0000
  H   H1270     1.0  0.82110  0.57650  0.60587  1.0000
  H   H1271     1.0  0.79108  0.52685  0.59414  1.0000
  C   C723      1.0  0.84168  0.53943  0.62362  1.0000
  C   C724      1.0  0.55387  0.57330  0.70131  1.0000
  H   H1272     1.0  0.81222  0.49394  0.57586  1.0000
  H   H1273     1.0  0.83831  0.55571  0.63634  1.0000
  H   H1274     1.0  0.87006  0.60678  0.53618  1.0000
  H   H1275     1.0  0.79015  0.57535  0.56397  1.0000
  H   H1276     1.0  0.82033  0.59558  0.53837  1.0000
  H   H1277     1.0  0.88526  0.55638  0.64284  1.0000
  H   H1278     1.0  0.91948  0.52817  0.72381  1.0000
  H   H1279     1.0  0.51853  0.58669  0.62367  1.0000
  H   H1280     1.0  0.80659  0.36529  0.59926  1.0000
  H   H1281     1.0  0.82769  0.36565  0.56643  1.0000
  H   H1282     1.0  0.76228  0.59111  0.94725  1.0000
  H   H1283     1.0  0.52290  0.37735  0.63117  1.0000
  H   H1284     1.0  0.78567  0.49827  0.95448  1.0000
  H   H1285     1.0  0.55603  0.55357  0.70369  1.0000
  H   H1286     1.0  0.84022  0.63798  0.57416  1.0000
  H   H1287     1.0  0.80351  0.62673  0.56230  1.0000
  N   N40       1.0  0.68862  0.43610  0.69566  1.0000
  C   C725      1.0  0.68052  0.42279  0.66362  1.0000
  C   C726      1.0  0.66636  0.41611  0.71914  1.0000
  C   C727      1.0  0.68810  0.46439  0.69512  1.0000
  C   C728      1.0  0.71886  0.44317  0.70487  1.0000
  C   C729      1.0  0.72499  0.41754  0.70493  1.0000
  C   C730      1.0  0.70001  0.44142  0.63650  1.0000
  C   C731      1.0  0.69325  0.48044  0.72672  1.0000
  H   H1288     1.0  0.85649  0.53319  0.57873  1.0000
  H   H1289     1.0  0.78497  0.60017  0.90234  1.0000
  C   C732      1.0  0.75705  0.42839  0.71194  1.0000
  C   C733      1.0  0.69021  0.42442  0.60599  1.0000
  C   C734      1.0  0.68786  0.50616  0.72395  1.0000
  H   H1290     1.0  0.65796  0.41746  0.65796  1.0000
  H   H1291     1.0  0.68007  0.40164  0.66258  1.0000
  H   H1292     1.0  0.67626  0.42014  0.74273  1.0000
  H   H1293     1.0  0.64826  0.42100  0.72097  1.0000
  H   H1294     1.0  0.66697  0.46053  0.68559  1.0000
  H   H1295     1.0  0.70515  0.48045  0.67948  1.0000
  H   H1296     1.0  0.73526  0.46070  0.68983  1.0000
  H   H1297     1.0  0.72408  0.45245  0.72870  1.0000
  H   H1298     1.0  0.71999  0.40630  0.68218  1.0000
  C   C735      1.0  0.97279  0.40379  0.83803  1.0000
  H   H1299     1.0  0.69845  0.46137  0.63337  1.0000
  H   H1300     1.0  0.72306  0.44774  0.64047  1.0000
  H   H1301     1.0  0.71607  0.48929  0.73453  1.0000
  H   H1302     1.0  0.67869  0.46588  0.74509  1.0000
  H   H1303     1.0  0.53785  0.59301  0.66985  1.0000
  H   H1304     1.0  0.50416  0.34787  0.58397  1.0000
  C   C736      1.0  0.86430  0.53549  0.64165  1.0000
  H   H1305     1.0  0.71209  0.40172  0.72330  1.0000
  H   H1306     1.0  0.52924  0.58402  0.55421  1.0000
  S   S170      1.0  0.54607  0.65122  0.64749  1.0000
  H   H1307     1.0  0.84892  0.61176  0.89472  1.0000
  H   H1308     1.0  0.77104  0.44363  0.69358  1.0000
  H   H1309     1.0  0.69231  0.40458  0.60710  1.0000
  H   H1310     1.0  0.66726  0.41796  0.60079  1.0000
  H   H1311     1.0  0.70386  0.43828  0.58668  1.0000
  H   H1312     1.0  0.69219  0.51762  0.74658  1.0000
  H   H1313     1.0  0.70252  0.52198  0.70641  1.0000
  H   H1314     1.0  0.66497  0.49850  0.71715  1.0000
  N   N41       1.0  0.95551  0.50453  0.81372  1.0000
  C   C737      1.0  0.95939  0.48208  0.79617  1.0000
  C   C738      1.0  0.51706  0.58470  0.57467  1.0000
  C   C739      1.0  0.94424  0.49280  0.84569  1.0000
  C   C740      1.0  0.93395  0.51093  0.79780  1.0000
  C   C741      1.0  0.93904  0.51815  0.76267  1.0000
  C   C742      1.0  0.93125  0.45271  0.78967  1.0000
  C   C743      1.0  0.94389  0.51489  0.86908  1.0000
  C   C744      1.0  0.79770  0.49890  0.56187  1.0000
  C   C745      1.0  0.51810  0.38728  0.61100  1.0000
  C   C746      1.0  0.91564  0.52366  0.74901  1.0000
  C   C747      1.0  0.93779  0.43258  0.77013  1.0000
  C   C748      1.0  0.93162  0.50039  0.90031  1.0000
  H   H1315     1.0  0.99548  0.44784  0.82167  1.0000
  C   C749      1.0  0.98153  0.59631  0.79454  1.0000
  C   C750      1.0  0.72083  0.56290  0.96731  1.0000
  H   H1316     1.0  0.73182  0.58180  0.92166  1.0000
  H   H1317     1.0  0.95674  0.48326  0.85631  1.0000
  H   H1318     1.0  0.92143  0.47435  0.84422  1.0000
  H   H1319     1.0  0.91136  0.49246  0.80078  1.0000
  H   H1320     1.0  0.93400  0.52991  0.80908  1.0000
  H   H1321     1.0  0.93839  0.49994  0.74930  1.0000
  H   H1322     1.0  0.52749  0.51363  0.57233  1.0000
  H   H1323     1.0  0.92129  0.44122  0.81167  1.0000
  H   H1324     1.0  0.91497  0.45596  0.77690  1.0000
  H   H1325     1.0  0.93021  0.52367  0.86021  1.0000
  C   C751      1.0  0.72713  0.55688  0.81320  1.0000
  H   H1326     1.0  0.53202  0.63059  0.56651  1.0000
  H   H1327     1.0  0.97689  0.38884  0.85247  1.0000
  H   H1328     1.0  0.84494  0.37757  0.60380  1.0000
  N   N42       1.0  0.52644  0.43294  0.64220  1.0000
  C   C752      1.0  0.82455  0.36168  0.59179  1.0000
  H   H1329     1.0  0.57562  0.59312  0.70349  1.0000
  C   C753      1.0  0.74091  0.57313  0.93914  1.0000
  H   H1330     1.0  0.79872  0.59788  0.84969  1.0000
  H   H1331     1.0  0.97077  0.49120  0.77382  1.0000
  C   C754      1.0  0.87835  0.58889  0.49558  1.0000
  C   C755      1.0  0.98443  0.53241  0.81530  1.0000
  C   C756      1.0  0.63149  0.36549  0.74002  1.0000
  H   H1332     1.0  0.51794  0.55362  0.66941  1.0000
  H   H1333     1.0  0.62575  0.62728  0.68675  1.0000
  H   H1334     1.0  0.72880  0.54962  0.78951  1.0000
  C   C757      1.0  0.51129  0.60996  0.56977  1.0000
  H   H1335     1.0  0.91757  0.41135  0.76666  1.0000
  C   C758      1.0  0.77318  0.55116  0.48699  1.0000
  S   S171      1.0  0.57337  0.65697  0.71686  1.0000
  C   C759      1.0  0.51957  0.53605  0.61085  1.0000
  H   H1336     1.0  0.87990  0.56962  0.48803  1.0000
  H   H1337     1.0  0.52205  0.46398  0.67136  1.0000
  H   H1338     1.0  0.52417  0.52219  0.62666  1.0000
  H   H1339     1.0  0.82907  0.34252  0.64717  1.0000
  C   C760      1.0  0.78549  0.51429  0.96992  1.0000
  H   H1340     1.0  0.94550  0.34017  0.88791  1.0000
  H   H1341     1.0  0.86148  0.59009  0.48138  1.0000
  H   H1342     1.0  0.89955  0.60884  0.49121  1.0000
  C   C761      1.0  0.51117  0.51984  0.57914  1.0000
  H   H1343     1.0  0.62014  0.34182  0.73450  1.0000
  H   H1344     1.0  0.49977  0.53530  0.62063  1.0000
  C   C762      1.0  0.98582  0.34148  0.78858  1.0000
  H   H1345     1.0  0.50378  0.62493  0.96492  1.0000
  Fe  Fe84      1.0  0.52542  0.82804  0.44743  1.0000
  H   H1346     1.0  0.56111  0.89945  0.04040  1.0000
  Fe  Fe85      1.0  0.57212  0.82144  0.41219  1.0000
  S   S172      1.0  0.60637  0.85135  0.44668  1.0000
  S   S173      1.0  0.58900  0.80602  0.37074  1.0000
  H   H1347     1.0  0.56863  0.87593  0.32820  1.0000
  S   S174      1.0  0.58420  0.81269  0.02807  1.0000
  Fe  Fe86      1.0  0.58696  0.88061  0.44454  1.0000
  S   S175      1.0  0.61564  0.92994  0.43628  1.0000
  S   S176      1.0  0.54066  0.79502  0.45010  1.0000
  S   S177      1.0  0.55477  0.85256  0.40758  1.0000
  H   H1348     1.0  0.68174  0.89443  0.34976  1.0000
  H   H1349     1.0  0.62640  0.98028  0.03502  1.0000
  Fe  Fe87      1.0  0.54771  0.68619  0.21673  1.0000
  S   S178      1.0  0.58053  0.70232  0.17762  1.0000
  S   S179      1.0  0.54436  0.71013  0.26049  1.0000
  H   H1350     1.0  0.65744  0.96536  0.34022  1.0000
  S   S180      1.0  0.53102  0.69059  0.09812  1.0000
  H   H1351     1.0  0.63736  0.89899  0.39204  1.0000
  C   C763      1.0  0.68026  0.72015  0.28908  1.0000
  H   H1352     1.0  0.60887  0.96365  0.38067  1.0000
  C   C764      1.0  0.70270  0.73052  0.31527  1.0000
  C   C765      1.0  0.56816  0.77886  0.04796  1.0000
  C   C766      1.0  0.54246  0.75454  0.03772  1.0000
  C   C767      1.0  0.53116  0.72783  0.05370  1.0000
  C   C768      1.0  0.54522  0.72522  0.08022  1.0000
  C   C769      1.0  0.57071  0.74962  0.09065  1.0000
  C   C770      1.0  0.58217  0.77623  0.07448  1.0000
  H   H1353     1.0  0.53127  0.75636  0.01760  1.0000
  H   H1354     1.0  0.54556  0.83395  0.29246  1.0000
  H   H1355     1.0  0.58181  0.74789  0.11092  1.0000
  H   H1356     1.0  0.60203  0.79494  0.08261  1.0000
  C   C771      1.0  0.57557  0.77930  0.34008  1.0000
  C   C772      1.0  0.59513  0.78054  0.31727  1.0000
  C   C773      1.0  0.58594  0.76004  0.29268  1.0000
  C   C774      1.0  0.55694  0.73754  0.29050  1.0000
  C   C775      1.0  0.53734  0.73636  0.31326  1.0000
  C   C776      1.0  0.54648  0.75706  0.33773  1.0000
  H   H1357     1.0  0.61763  0.79760  0.31858  1.0000
  H   H1358     1.0  0.60135  0.76174  0.27539  1.0000
  H   H1359     1.0  0.51486  0.71920  0.31202  1.0000
  H   H1360     1.0  0.53103  0.75563  0.35490  1.0000
  C   C777      1.0  0.55756  0.98203  0.98741  1.0000
  H   H1361     1.0  0.67675  0.89236  0.25257  1.0000
  C   C778      1.0  0.59802  0.69137  0.29076  1.0000
  H   H1362     1.0  0.64911  0.86285  0.36401  1.0000
  C   C779      1.0  0.65005  0.91555  0.31401  1.0000
  H   H1363     1.0  0.65404  0.77218  0.21435  1.0000
  H   H1364     1.0  0.61531  0.85806  0.33192  1.0000
  H   H1365     1.0  0.69983  0.71173  0.32943  1.0000
  H   H1366     1.0  0.64644  0.74794  0.26591  1.0000
  N   N43       1.0  0.63200  0.90381  0.34307  1.0000
  H   H1367     1.0  0.64724  0.72351  0.31405  1.0000
  C   C780      1.0  0.65054  0.90510  0.37035  1.0000
  H   H1368     1.0  0.61108  0.93622  0.00218  1.0000
  H   H1369     1.0  0.52151  0.89156  0.00217  1.0000
  C   C781      1.0  0.60736  0.87288  0.33937  1.0000
  H   H1370     1.0  0.67237  0.93323  0.32016  1.0000
  C   C782      1.0  0.67580  0.90879  0.26782  1.0000
  H   H1371     1.0  0.67029  0.92272  0.25331  1.0000
  C   C783      1.0  0.56349  0.68429  0.33502  1.0000
  H   H1372     1.0  0.64603  0.79129  0.00116  1.0000
  H   H1373     1.0  0.60037  0.75312  0.01511  1.0000
  H   H1374     1.0  0.50426  0.90072  0.03296  1.0000
  C   C784      1.0  0.63324  0.98282  0.01108  1.0000
  H   H1375     1.0  0.65679  0.99078  0.42713  1.0000
  C   C785      1.0  0.54500  0.93772  0.01642  1.0000
  C   C786      1.0  0.61895  0.92269  0.35104  1.0000
  H   H1376     1.0  0.64353  0.73803  0.19515  1.0000
  H   H1377     1.0  0.55697  0.70668  0.01177  1.0000
  H   H1378     1.0  0.59154  0.71486  0.05570  1.0000
  H   H1379     1.0  0.60215  0.68128  0.33969  1.0000
  H   H1380     1.0  0.66872  0.92769  0.37409  1.0000
  H   H1381     1.0  0.61389  0.73305  0.24286  1.0000
  C   C787      1.0  0.62532  0.97283  0.36190  1.0000
  C   C788      1.0  0.62947  0.96048  0.46215  1.0000
  H   H1382     1.0  0.51138  0.70909  0.04551  1.0000
  H   H1383     1.0  0.72493  0.74142  0.30533  1.0000
  H   H1384     1.0  0.62284  0.74037  0.99911  1.0000
  H   H1385     1.0  0.55155  0.99712  0.45632  1.0000
  H   H1386     1.0  0.65206  0.95721  0.38101  1.0000
  C   C789      1.0  0.53916  0.89471  0.04778  1.0000
  H   H1387     1.0  0.54821  0.94910  0.03899  1.0000
  H   H1388     1.0  0.59714  0.86412  0.36223  1.0000
  H   H1389     1.0  0.50609  0.96965  0.99409  1.0000
  H   H1390     1.0  0.52538  0.87079  0.05117  1.0000
  C   C790      1.0  0.64885  0.70567  0.30210  1.0000
  H   H1391     1.0  0.54106  0.90573  0.07030  1.0000
  C   C791      1.0  0.52530  0.90492  0.02333  1.0000
  C   C792      1.0  0.50690  0.95037  0.00333  1.0000
  N   N44       1.0  0.62420  0.69003  0.27915  1.0000
  H   H1392     1.0  0.69800  0.91047  0.40373  1.0000
  C   C793      1.0  0.63132  0.70355  0.24728  1.0000
  C   C794      1.0  0.57787  0.70737  0.00716  1.0000
  H   H1393     1.0  0.63190  0.87893  0.28085  1.0000
  S   S181      1.0  0.56117  0.86379  0.98708  1.0000
  H   H1394     1.0  0.66549  0.87906  0.41812  1.0000
  C   C795      1.0  0.68101  0.88764  0.39851  1.0000
  H   H1395     1.0  0.61360  0.68976  0.23069  1.0000
  C   C796      1.0  0.60108  0.73852  0.99682  1.0000
  H   H1396     1.0  0.56682  0.94138  0.00997  1.0000
  C   C797      1.0  0.64083  0.95518  0.35864  1.0000
  H   H1397     1.0  0.70065  0.74640  0.33041  1.0000
  C   C798      1.0  0.56311  0.83639  0.30838  1.0000
  Fe  Fe88      1.0  0.54188  0.67865  0.14552  1.0000
  C   C799      1.0  0.58694  0.69857  0.03709  1.0000
  H   H1398     1.0  0.55290  0.82327  0.32953  1.0000
  C   C800      1.0  0.66515  0.88612  0.36831  1.0000
  H   H1399     1.0  0.61451  0.97278  0.33981  1.0000
  H   H1400     1.0  0.65868  0.87896  0.30589  1.0000
  C   C801      1.0  0.65283  0.89327  0.29283  1.0000
  H   H1401     1.0  0.69158  0.87415  0.39636  1.0000
  H   H1402     1.0  0.57448  0.70811  0.33974  1.0000
  C   C802      1.0  0.58262  0.86852  0.31689  1.0000
  C   C803      1.0  0.63553  0.73470  0.24500  1.0000
  H   H1403     1.0  0.64105  0.92619  0.29880  1.0000
  H   H1404     1.0  0.67598  0.75515  0.21886  1.0000
  H   H1405     1.0  0.57580  0.82769  0.29663  1.0000
  C   C804      1.0  0.65338  0.75095  0.21657  1.0000
  H   H1406     1.0  0.68497  0.73953  0.27493  1.0000
  H   H1407     1.0  0.60541  0.92300  0.33147  1.0000
  H   H1408     1.0  0.69756  0.92249  0.27852  1.0000
  C   C805      1.0  0.64969  0.98837  0.45094  1.0000
  H   H1409     1.0  0.59141  0.88120  0.29526  1.0000
  H   H1410     1.0  0.60392  0.91330  0.37116  1.0000
  H   H1411     1.0  0.60342  0.71442  0.29381  1.0000
  H   H1412     1.0  0.65077  0.70392  0.23752  1.0000
  C   C806      1.0  0.62441  0.95773  0.99245  1.0000
  H   H1413     1.0  0.54534  0.67836  0.31839  1.0000
  H   H1414     1.0  0.56907  0.67715  0.04514  1.0000
  N   N45       1.0  0.53414  0.95062  0.99230  1.0000
  H   H1415     1.0  0.58020  0.68204  0.27325  1.0000
  H   H1416     1.0  0.50729  0.95266  0.02904  1.0000
  H   H1417     1.0  0.57382  0.69074  0.98939  1.0000
  H   H1418     1.0  0.68378  0.70521  0.27416  1.0000
  H   H1419     1.0  0.64700  0.69046  0.32096  1.0000
  H   H1420     1.0  0.60661  0.69669  0.03324  1.0000
  H   H1421     1.0  0.55422  0.67254  0.35708  1.0000
  H   H1422     1.0  0.57531  0.99686  0.03438  1.0000
  C   C807      1.0  0.58496  0.67577  0.32200  1.0000
  Fe  Fe89      1.0  0.56889  0.82549  0.98437  1.0000
  H   H1423     1.0  0.51989  0.94668  0.47312  1.0000
  H   H1424     1.0  0.64235  0.83604  0.99472  1.0000
  H   H1425     1.0  0.57858  0.98354  0.98122  1.0000
  H   H1426     1.0  0.64136  0.99575  0.36806  1.0000
  H   H1427     1.0  0.59924  0.78815  0.98053  1.0000
  H   H1428     1.0  0.67835  0.84227  0.98749  1.0000
  H   H1429     1.0  0.69376  0.00006  0.04774  1.0000
  C   C808      1.0  0.64399  0.79814  0.97741  1.0000
  C   C809      1.0  0.65563  0.83099  0.97874  1.0000
  C   C810      1.0  0.62294  0.89325  0.79235  1.0000
  C   C811      1.0  0.62096  0.88080  0.73518  1.0000
  Fe  Fe90      1.0  0.56198  0.81931  0.91347  1.0000
  S   S182      1.0  0.60094  0.84432  0.94484  1.0000
  S   S183      1.0  0.55515  0.79382  0.86738  1.0000
  H   H1430     1.0  0.63831  0.94687  0.81537  1.0000
  S   S184      1.0  0.58905  0.81920  0.53050  1.0000
  Fe  Fe91      1.0  0.59074  0.88105  0.94610  1.0000
  S   S185      1.0  0.62337  0.92948  0.93703  1.0000
  S   S186      1.0  0.53046  0.79848  0.95311  1.0000
  S   S187      1.0  0.55449  0.85757  0.91167  1.0000
  H   H1431     1.0  0.57741  0.89056  0.58507  1.0000
  H   H1432     1.0  0.65516  0.84462  0.89920  1.0000
  Fe  Fe92      1.0  0.57295  0.69964  0.72155  1.0000
  S   S188      1.0  0.59384  0.71515  0.67419  1.0000
  S   S189      1.0  0.59166  0.72788  0.76608  1.0000
  Fe  Fe93      1.0  0.54806  0.69393  0.65597  1.0000
  S   S190      1.0  0.52851  0.70601  0.61550  1.0000
  C   C812      1.0  0.61273  0.74062  0.94048  1.0000
  C   C813      1.0  0.61576  0.86876  0.76819  1.0000
  S   S191      1.0  0.52713  0.68070  0.70318  1.0000
  Fe  Fe94      1.0  0.52529  0.83835  0.95283  1.0000
  C   C814      1.0  0.57206  0.78729  0.55345  1.0000
  C   C815      1.0  0.54930  0.76100  0.54214  1.0000
  C   C816      1.0  0.53632  0.73622  0.56138  1.0000
  C   C817      1.0  0.54658  0.73725  0.59171  1.0000
  C   C818      1.0  0.56962  0.76344  0.60288  1.0000
  C   C819      1.0  0.58204  0.78842  0.58392  1.0000
  H   H1433     1.0  0.54174  0.75974  0.51856  1.0000
  H   H1434     1.0  0.51838  0.71607  0.55263  1.0000
  H   H1435     1.0  0.57735  0.76464  0.62637  1.0000
  H   H1436     1.0  0.59953  0.80876  0.59289  1.0000
  C   C820      1.0  0.56569  0.77540  0.83972  1.0000
  C   C821      1.0  0.54807  0.76235  0.81339  1.0000
  C   C822      1.0  0.55541  0.74760  0.79085  1.0000
  C   C823      1.0  0.58073  0.74578  0.79409  1.0000
  C   C824      1.0  0.59842  0.75898  0.82040  1.0000
  C   C825      1.0  0.59097  0.77354  0.84305  1.0000
  H   H1437     1.0  0.52845  0.76351  0.81042  1.0000
  H   H1438     1.0  0.54150  0.73770  0.77090  1.0000
  H   H1439     1.0  0.61807  0.75783  0.82329  1.0000
  H   H1440     1.0  0.60479  0.78330  0.86306  1.0000
  H   H1441     1.0  0.57366  0.95595  0.94311  1.0000
  H   H1442     1.0  0.64401  0.89807  0.73214  1.0000
  N   N46       1.0  0.59762  0.74856  0.96498  1.0000
  H   H1443     1.0  0.61602  0.86296  0.71840  1.0000
  H   H1444     1.0  0.68115  0.74833  0.69064  1.0000
  H   H1445     1.0  0.61077  0.90419  0.78492  1.0000
  C   C826      1.0  0.65671  0.85161  0.87470  1.0000
  C   C827      1.0  0.69276  0.71841  0.56021  1.0000
  C   C828      1.0  0.65104  0.98875  0.94958  1.0000
  H   H1446     1.0  0.69630  0.78469  0.67516  1.0000
  C   C829      1.0  0.56228  0.86862  0.82127  1.0000
  H   H1447     1.0  0.56516  0.87667  0.79713  1.0000
  H   H1448     1.0  0.62181  0.71265  0.60474  1.0000
  H   H1449     1.0  0.51532  0.84813  0.81721  1.0000
  H   H1450     1.0  0.52954  0.82450  0.80740  1.0000
  C   C830      1.0  0.54634  0.91939  0.91491  1.0000
  H   H1451     1.0  0.61202  0.79021  0.94222  1.0000
  H   H1452     1.0  0.51733  0.70547  0.91901  1.0000
  H   H1453     1.0  0.60976  0.94794  0.87685  1.0000
  C   C831      1.0  0.52863  0.93511  0.96148  1.0000
  C   C832      1.0  0.53182  0.84194  0.82348  1.0000
  H   H1454     1.0  0.61462  0.75258  0.91857  1.0000
  H   H1455     1.0  0.52737  0.83316  0.84747  1.0000
  C   C833      1.0  0.66836  0.82934  0.54605  1.0000
  C   C834      1.0  0.58561  0.86074  0.83076  1.0000
  H   H1456     1.0  0.69254  0.80829  0.55905  1.0000
  H   H1457     1.0  0.65170  0.83267  0.85954  1.0000
  Fe  Fe95      1.0  0.57348  0.82698  0.48398  1.0000
  H   H1458     1.0  0.60011  0.92769  0.82360  1.0000
  H   H1459     1.0  0.64100  0.88100  0.88467  1.0000
  H   H1460     1.0  0.62876  0.85023  0.82099  1.0000
  H   H1461     1.0  0.60661  0.88995  0.72984  1.0000
  H   H1462     1.0  0.69451  0.72397  0.53518  1.0000
  H   H1463     1.0  0.64633  0.90999  0.78965  1.0000
  N   N47       1.0  0.65044  0.75715  0.58945  1.0000
  C   C835      1.0  0.62067  0.73061  0.59286  1.0000
  C   C836      1.0  0.66228  0.76918  0.62130  1.0000
  C   C837      1.0  0.64658  0.77996  0.57237  1.0000
  C   C838      1.0  0.67122  0.75096  0.57153  1.0000
  C   C839      1.0  0.66745  0.71996  0.57494  1.0000
  H   H1464     1.0  0.63702  0.71343  0.90676  1.0000
  C   C840      1.0  0.67417  0.81032  0.56833  1.0000
  H   H1465     1.0  0.52081  0.94548  0.94437  1.0000
  C   C841      1.0  0.62688  0.95776  0.85888  1.0000
  H   H1466     1.0  0.53915  0.84149  0.60054  1.0000
  H   H1467     1.0  0.60689  0.73559  0.60828  1.0000
  C   C842      1.0  0.62068  0.95790  0.49313  1.0000
  C   C843      1.0  0.63332  0.96047  0.96152  1.0000
  H   H1468     1.0  0.57559  0.69724  0.92798  1.0000
  H   H1469     1.0  0.68335  0.78984  0.61961  1.0000
  H   H1470     1.0  0.64845  0.96596  0.87010  1.0000
  H   H1471     1.0  0.63011  0.78357  0.58429  1.0000
  H   H1472     1.0  0.63793  0.77227  0.54859  1.0000
  H   H1473     1.0  0.66955  0.75402  0.54618  1.0000
  H   H1474     1.0  0.69406  0.76721  0.57782  1.0000
  H   H1475     1.0  0.50509  0.74695  0.62339  1.0000
  H   H1476     1.0  0.65037  0.83238  0.55477  1.0000
  H   H1477     1.0  0.71349  0.73359  0.57212  1.0000
  H   H1478     1.0  0.56140  0.92120  0.96158  1.0000
  C   C844      1.0  0.61198  0.78146  0.96569  1.0000
  H   H1479     1.0  0.68079  0.82216  0.59079  1.0000
  H   H1480     1.0  0.65822  0.99131  0.92577  1.0000
  H   H1481     1.0  0.68754  0.74831  0.63419  1.0000
  H   H1482     1.0  0.65835  0.76429  0.68609  1.0000
  C   C845      1.0  0.52598  0.72937  0.92010  1.0000
  H   H1483     1.0  0.52690  0.95737  0.51331  1.0000
  H   H1484     1.0  0.64712  0.77467  0.63353  1.0000
  H   H1485     1.0  0.51794  0.78807  0.58394  1.0000
  H   H1486     1.0  0.66246  0.81926  0.52262  1.0000
  H   H1487     1.0  0.56639  0.76927  0.92561  1.0000
  H   H1488     1.0  0.56135  0.88608  0.54719  1.0000
  H   H1489     1.0  0.60334  0.69646  0.95180  1.0000
  H   H1490     1.0  0.52131  0.73638  0.89757  1.0000
  C   C846      1.0  0.60335  0.71852  0.56218  1.0000
  H   H1491     1.0  0.61756  0.71954  0.54287  1.0000
  H   H1492     1.0  0.58173  0.85497  0.85564  1.0000
  H   H1493     1.0  0.51458  0.73428  0.93864  1.0000
  H   H1494     1.0  0.52411  0.86384  0.58807  1.0000
  C   C847      1.0  0.66867  0.74974  0.64300  1.0000
  C   C848      1.0  0.61318  0.70361  0.90352  1.0000
  C   C849      1.0  0.63559  0.87072  0.83426  1.0000
  H   H1495     1.0  0.64866  0.92023  0.85366  1.0000
  H   H1496     1.0  0.53047  0.82113  0.54478  1.0000
  C   C850      1.0  0.55876  0.74557  0.92604  1.0000
  H   H1497     1.0  0.59316  0.73167  0.55544  1.0000
  C   C851      1.0  0.63204  0.98284  0.51247  1.0000
  H   H1498     1.0  0.52757  0.89689  0.91676  1.0000
  H   H1499     1.0  0.56501  0.91824  0.90506  1.0000
  H   H1500     1.0  0.56898  0.74029  0.90660  1.0000
  C   C852      1.0  0.53613  0.96268  0.48955  1.0000
  C   C853      1.0  0.63519  0.86232  0.86885  1.0000
  C   C854      1.0  0.55466  0.93396  0.94677  1.0000
  H   H1501     1.0  0.64726  0.70343  0.56321  1.0000
  H   H1502     1.0  0.62975  0.85892  0.77156  1.0000
  H   H1503     1.0  0.55583  0.96039  0.48862  1.0000
  H   H1504     1.0  0.58069  0.84003  0.81899  1.0000
  C   C855      1.0  0.62528  0.90985  0.84690  1.0000
  H   H1505     1.0  0.64979  0.72750  0.64519  1.0000
  H   H1506     1.0  0.66602  0.71317  0.59937  1.0000
  H   H1507     1.0  0.59267  0.85131  0.76967  1.0000
  C   C856      1.0  0.56437  0.87433  0.56690  1.0000
  H   H1508     1.0  0.67929  0.86936  0.87030  1.0000
  N   N48       1.0  0.61687  0.88382  0.82584  1.0000
  H   H1509     1.0  0.62515  0.98051  0.53637  1.0000
  H   H1510     1.0  0.61309  0.90272  0.86918  1.0000
  H   H1511     1.0  0.55586  0.74370  0.97606  1.0000
  H   H1512     1.0  0.54064  0.93216  0.89882  1.0000
  H   H1513     1.0  0.56299  0.88535  0.83734  1.0000
  H   H1514     1.0  0.65865  0.88601  0.82782  1.0000
  H   H1515     1.0  0.60521  0.93669  0.50221  1.0000
  C   C857      1.0  0.67661  0.76269  0.67566  1.0000
  C   C858      1.0  0.62188  0.93534  0.83375  1.0000
  H   H1516     1.0  0.57676  0.86375  0.55889  1.0000
  H   H1517     1.0  0.61340  0.84433  0.87533  1.0000
  H   H1518     1.0  0.60376  0.67995  0.89875  1.0000
  C   C859      1.0  0.53499  0.85172  0.58018  1.0000
  H   H1519     1.0  0.68916  0.69592  0.56250  1.0000
  C   C860      1.0  0.51610  0.82843  0.55553  1.0000
  H   H1520     1.0  0.65835  0.79442  0.96175  1.0000
  H   H1521     1.0  0.63555  0.74811  0.94752  1.0000
  H   H1522     1.0  0.60894  0.71374  0.88304  1.0000
  C   C861      1.0  0.59924  0.70785  0.93256  1.0000
  C   C862      1.0  0.56583  0.73668  0.95773  1.0000
  S   S192      1.0  0.55608  0.85813  0.48377  1.0000
  H   H1523     1.0  0.51106  0.83977  0.53687  1.0000
  H   H1524     1.0  0.56655  0.67942  0.54371  1.0000
  H   H1525     1.0  0.65544  0.83961  0.95536  1.0000
  H   H1526     1.0  0.68814  0.85114  0.54395  1.0000
  H   H1527     1.0  0.55162  0.99154  0.96754  1.0000
  H   H1528     1.0  0.56404  0.68522  0.58447  1.0000
  H   H1529     1.0  0.55355  0.71253  0.95847  1.0000
  H   H1530     1.0  0.51093  0.91204  0.96314  1.0000
  C   C863      1.0  0.57908  0.68697  0.56571  1.0000
  H   H1531     1.0  0.50345  0.79470  0.50248  1.0000
  H   H1532     1.0  0.49984  0.79578  0.61350  1.0000
  H   H1533     1.0  0.50266  0.76910  0.53032  1.0000
  C   C864      1.0  0.54360  0.99362  0.48050  1.0000
  H   H1534     1.0  0.62608  0.97655  0.84850  1.0000
  Fe  Fe96      1.0  0.59058  0.67094  0.66843  1.0000
  H   H1535     1.0  0.52319  0.99451  0.48145  1.0000
  H   H1536     1.0  0.58818  0.67260  0.57126  1.0000
