data_image0
_chemical_formula_structural       FeSHC2HFeS2FeS2FeSFeS3FeS3FeSFeSH2C6H4C6H5C5H4C5HCHC2H2CHCH2C2HCH4CH5CH3CH12CH3N2C8SCHCH17CH4CH8SCH5C3H6CHSNCH5CH8CFeH2C2H2NC5HC5H11SHCH10CH3CNC8H2C2HCH12CH6CHC2H5CHC2H2C2HCHSH2CH5CHCHFeS2FeS2FeSFeS3FeHFeHFeS2H2FeS2FeS2FeSFeS3CHSHFeHFeHC6HC2HC6H7C4H2C7H4C4H2NHC7H5C3H5CS2CH2SCH3CH2CHC2H3CH2NC4HC4SC2H15SH4CH7NC12H29C2NC3HC5H8CH13SNH4CH3CH5CH4C2H3CS2CH5CH2CH5C2H3CHC2HFeHCHCH5SH3CFeS2FeSFeSFeS2FeS2FeSFeS3FeS2NC2H2C5HCH5SC6H4C3H2C2SC5H2SCH5CH2CHCHC2H4CH5CH2CHC2H2CH3CHCHCH2CH2CH2FeH6CNCHC2HCH4CH9SH3CH13CH7C2H5NC10HCH10CH2CH4C2HC2H3CH2CSH6CNH4CH3CH2CFeSFe2S2FeS2FeS2FeS2FeSFeS3H3C4HC2H5C5HCH2C6H5SC2HNH4CH2C2H2C2HNSH5CH2CH2CH8CH6FeCNC2HC2HCH2C4H2C2H2SH5CH5SC3H9CHCH3CHCH2CHCHNC2H2C2HCHCH9C4H3CH5C2HNC5HC7H28C2H2CH5CH2CNHCHC2H5CH2CH3CHNC2HFeS2FeS2FeSFeS3HFeS2Fe2SH3Fe2H2SHFeS2FeS2FeSFeS3C5H4C8H4C4H5C6H5C5H4C6H4C7H3CSHCH3C2H3CH3NCHCHSHCH2CH5NC12H18CH11CH2C2HC3H2CNC5HC5H10CH11CH4NCHC2HC3HC2H4SH5CH3CH2NH2CH2C3HCH8CH4SH3FeH2CH6C3H5SCH5FeS2FeS2FeSFeS3HFeS3Fe2S2CH5FeSH3CH2SCHCHCSH3C6H4C6H2CHC6H4NC4HC4HC2H18CH3CHCH3CH3CH4CHCH3CH3C2H3CH7C3H6NH3C4H6C2H4CH4CH2CH5C3H2CNC12H18CH8C2HFeH2NHC2SH2CHCH3NH5CH2C3HC2H3CH2CSH2CSHCHC2HC3HCH2CHNH2CH2CHSH2CHNH5FeHFeSFeSFeSFeS3FeS2FeS2FeSFeS3C6H4CHC2H2CHCHC4H3CH4C2H3C2H3CH4CH4CH2CH7CH2CH9CHCHCHCH2C2H5NC3H3CHCHCH5C2HCH7CSCHCH4NC3H3C3HCHC3H6CH2CHNH3CH2CH4C2NC9HCH22CH5SNCH4CHCHCH3CSHCH2CH2FeNHFe2SFeS2FeS2FeS2FeSFeS3H4S2HFeS2FeS2FeSFeS3C6FeH3C4H6C5HCHC8H4C6H4C6H5C6H9C2H2CH4C2H5CHC2H3CHSCH4C2H2C4HCNC11H27CH2CH2CH4CHCHCH2C2H2CH4CH2CH4C2SHC2H4C3H3C2NH3CH5CN2HCH11NHC2HCH3SC2HC2SNCH2CH3FeC2HCH11CH2CHCH4CHCH2CH4CH2CH2NCHCH2CHCH3SCHC2H2CH2C2HC2H4C3H3CH4CH6FeSFeS2FeSFeS3FeS2FeS2FeSFeS3CFeCSCH6C2H3C6H4C6H6C4H3NCSHCH4CHSHCH10CH2CHCSH4C2H4CHCH3CH2CNHC3HC2H8CHC3H2C2H3NC11H19SH8CHCH2NHC2H3CNH3C2H8C2H2CHC2HCHCHC3H2CH2C2H4CH7CSCH3CHCHC2H2CH3CHCH4CH2CH6C3H3CH4C4H4C2HFeHFeS2FeS2FeSFeS3HFeS2FeS2Fe2S3C3H2C2H4C6H4C6H4C2HC5H3C4SH3CH3NC5HC4HCH11CH10CH6CHCH7CH6CSCHCSH3CHCHSCHN2C10HCH28C2H2CHC2HCHCH8CH5CHCH2C4H2CNH4C3HC2H7CSC2H11CHCHC2HCH2CH4CH3CFeS2FeS2FeSFeS3HSHFeHC3Fe2S2FeS2FeSFeS3HSH4FeH3C4HCH3C7H2CHC6H2FeHC6H4C6H4C4H5C6H4CHCH3CHCH2CH4SC2HCH2CH6C2H2CHCH4C3H2C2H2CHCSH3SNCHC4H2C3H4CH5SH4C2H2CH7CH2CHCH3CH2CH2NH4C4HCH4NH2FeHSHCH2CH3CSH3CHNCH2CH2CH4CH2CH3FeH4CH3SC2SH3CH7C2H5CH7C2H5C2H5CH2C2FeS2FeS2FeSFeS3FeS2FeCSFe2S2HFeCSHCH3C2H3CHCH2CHCH3C4H4C2H3CH2CHC6H6CH2C2H3C2HNCH3CHCSC2HCNHC3H4CH7C2H5C2H4C2H2CH2CH17CH5CHNC8HCHCH12C2H3NC2SCH3C3H6CH6CH2CH2SCH10CHNSCHC2H6C2H3C2HCH4CHCH3CH3CHCHCH6
_chemical_formula_sum              "Fe128 S256 H2048 C1152 N64"
_cell_length_a       42.497
_cell_length_b       42.448
_cell_length_c       71.2764
_cell_angle_alpha    89.9398
_cell_angle_beta     89.9842
_cell_angle_gamma    90.3599

_space_group_name_H-M_alt    "P 1"
_space_group_IT_number       1

loop_
  _space_group_symop_operation_xyz
  'x, y, z'

loop_
  _atom_site_type_symbol
  _atom_site_label
  _atom_site_symmetry_multiplicity
  _atom_site_fract_x
  _atom_site_fract_y
  _atom_site_fract_z
  _atom_site_occupancy
  Fe  Fe1       1.0  0.07768  0.42474  0.30397  1.0000
  S   S1        1.0  0.08505  0.43350  0.27210  1.0000
  H   H1        1.0  0.25428  0.43682  0.11917  1.0000
  C   C1        1.0  0.43715  0.35681  0.18167  1.0000
  C   C2        1.0  0.26019  0.04859  0.30664  1.0000
  H   H2        1.0  0.14276  0.46840  0.19469  1.0000
  Fe  Fe2       1.0  0.26291  0.34578  0.04922  1.0000
  S   S2        1.0  0.23005  0.32335  0.07011  1.0000
  S   S3        1.0  0.25539  0.35654  0.01778  1.0000
  Fe  Fe3       1.0  0.31624  0.35265  0.07912  1.0000
  S   S4        1.0  0.28628  0.33120  0.10202  1.0000
  S   S5        1.0  0.36976  0.36146  0.07899  1.0000
  Fe  Fe4       1.0  0.27166  0.29538  0.08052  1.0000
  S   S6        1.0  0.26790  0.24190  0.08465  1.0000
  Fe  Fe5       1.0  0.24674  0.36103  0.09017  1.0000
  S   S7        1.0  0.20965  0.38147  0.11010  1.0000
  S   S8        1.0  0.30327  0.31515  0.05810  1.0000
  S   S9        1.0  0.27783  0.38518  0.06878  1.0000
  Fe  Fe6       1.0  0.39228  0.04621  0.13306  1.0000
  S   S10       1.0  0.38890  0.07990  0.15714  1.0000
  S   S11       1.0  0.43862  0.03110  0.11936  1.0000
  S   S12       1.0  0.31307  0.06744  0.15729  1.0000
  Fe  Fe7       1.0  0.34685  0.09999  0.14217  1.0000
  S   S13       1.0  0.34444  0.15402  0.14122  1.0000
  Fe  Fe8       1.0  0.35555  0.04488  0.17064  1.0000
  S   S14       1.0  0.35213  0.06815  0.11729  1.0000
  H   H3        1.0  0.39299  0.24821  0.14559  1.0000
  H   H4        1.0  0.44413  0.09967  0.11436  1.0000
  C   C3        1.0  0.29012  0.21795  0.10018  1.0000
  C   C4        1.0  0.28916  0.18500  0.09805  1.0000
  C   C5        1.0  0.30584  0.16508  0.11034  1.0000
  C   C6        1.0  0.32361  0.17794  0.12499  1.0000
  C   C7        1.0  0.32455  0.21089  0.12716  1.0000
  C   C8        1.0  0.30789  0.23078  0.11485  1.0000
  H   H5        1.0  0.27528  0.17480  0.08684  1.0000
  H   H6        1.0  0.30482  0.13979  0.10851  1.0000
  H   H7        1.0  0.33792  0.22108  0.13857  1.0000
  H   H8        1.0  0.30814  0.25601  0.11692  1.0000
  C   C9        1.0  0.39712  0.37480  0.09630  1.0000
  C   C10       1.0  0.42905  0.37823  0.09133  1.0000
  C   C11       1.0  0.45166  0.38873  0.10450  1.0000
  C   C12       1.0  0.44271  0.39553  0.12294  1.0000
  C   C13       1.0  0.41079  0.39195  0.12793  1.0000
  C   C14       1.0  0.38814  0.38167  0.11473  1.0000
  H   H9        1.0  0.43631  0.37315  0.07712  1.0000
  H   H10       1.0  0.42176  0.35516  0.19423  1.0000
  H   H11       1.0  0.40346  0.39745  0.14207  1.0000
  H   H12       1.0  0.36372  0.37925  0.11880  1.0000
  H   H13       1.0  0.47265  0.29100  0.10830  1.0000
  C   C15       1.0  0.17817  0.47076  0.09956  1.0000
  C   C16       1.0  0.19555  0.44258  0.09856  1.0000
  C   C17       1.0  0.18824  0.41737  0.11046  1.0000
  C   C18       1.0  0.16357  0.42089  0.12348  1.0000
  C   C19       1.0  0.14616  0.44907  0.12448  1.0000
  H   H14       1.0  0.25305  0.05225  0.26831  1.0000
  H   H15       1.0  0.21483  0.44045  0.08875  1.0000
  H   H16       1.0  0.15780  0.40161  0.13284  1.0000
  H   H17       1.0  0.12716  0.45129  0.13449  1.0000
  C   C20       1.0  0.07916  0.46193  0.25374  1.0000
  C   C21       1.0  0.08637  0.45358  0.23508  1.0000
  C   C22       1.0  0.48380  0.31201  0.11482  1.0000
  C   C23       1.0  0.17886  0.48322  0.17504  1.0000
  C   C24       1.0  0.27920  0.00196  0.28883  1.0000
  H   H18       1.0  0.40909  0.16416  0.11496  1.0000
  C   C25       1.0  0.13974  0.40246  0.99117  1.0000
  H   H19       1.0  0.15525  0.31480  0.99154  1.0000
  C   C26       1.0  0.22661  0.34940  0.99996  1.0000
  C   C27       1.0  0.19888  0.33231  0.00329  1.0000
  H   H20       1.0  0.15597  0.34057  0.08927  1.0000
  H   H21       1.0  0.19443  0.32273  0.01711  1.0000
  C   C28       1.0  0.44001  0.24941  0.15794  1.0000
  H   H22       1.0  0.13568  0.45989  0.07131  1.0000
  C   C29       1.0  0.24435  0.25733  0.00122  1.0000
  H   H23       1.0  0.18289  0.43744  0.29465  1.0000
  H   H24       1.0  0.37486  0.99721  0.26671  1.0000
  C   C30       1.0  0.36945  0.01520  0.23836  1.0000
  C   C31       1.0  0.22890  0.47835  0.14635  1.0000
  H   H25       1.0  0.42471  0.37054  0.17070  1.0000
  C   C32       1.0  0.45461  0.27224  0.14321  1.0000
  H   H26       1.0  0.47599  0.39170  0.10036  1.0000
  H   H27       1.0  0.11296  0.42640  0.01216  1.0000
  H   H28       1.0  0.37501  0.15917  0.10029  1.0000
  H   H29       1.0  0.24574  0.09637  0.11730  1.0000
  C   C33       1.0  0.39937  0.16877  0.10076  1.0000
  H   H30       1.0  0.33312  0.03320  0.28805  1.0000
  H   H31       1.0  0.43519  0.28537  0.13631  1.0000
  H   H32       1.0  0.32409  0.05179  0.25999  1.0000
  H   H33       1.0  0.18086  0.45872  0.16972  1.0000
  H   H34       1.0  0.47615  0.27297  0.04898  1.0000
  C   C34       1.0  0.23683  0.09684  0.13196  1.0000
  H   H35       1.0  0.45027  0.33606  0.14572  1.0000
  H   H36       1.0  0.47116  0.08306  0.17560  1.0000
  H   H37       1.0  0.15811  0.03004  0.13807  1.0000
  C   C35       1.0  0.08774  0.44857  0.07763  1.0000
  H   H38       1.0  0.12517  0.38066  0.99038  1.0000
  H   H39       1.0  0.23823  0.44951  0.05442  1.0000
  H   H40       1.0  0.21233  0.46732  0.13615  1.0000
  H   H41       1.0  0.38457  0.03539  0.24075  1.0000
  H   H42       1.0  0.43220  0.26169  0.17076  1.0000
  H   H43       1.0  0.33324  0.11210  0.20570  1.0000
  H   H44       1.0  0.45669  0.31115  0.18613  1.0000
  H   H45       1.0  0.40189  0.21529  0.16058  1.0000
  H   H46       1.0  0.30643  0.05855  0.22753  1.0000
  H   H47       1.0  0.16920  0.45360  0.03853  1.0000
  H   H48       1.0  0.39997  0.03861  0.08163  1.0000
  H   H49       1.0  0.28049  0.08078  0.27615  1.0000
  C   C36       1.0  0.27747  0.05505  0.27350  1.0000
  H   H50       1.0  0.28008  0.48186  0.14919  1.0000
  H   H51       1.0  0.28265  0.98937  0.30236  1.0000
  H   H52       1.0  0.26594  0.05977  0.23484  1.0000
  N   N1        1.0  0.47971  0.29505  0.14990  1.0000
  N   N2        1.0  0.38623  0.24489  0.07052  1.0000
  C   C37       1.0  0.42053  0.25198  0.06682  1.0000
  C   C38       1.0  0.38296  0.21172  0.07805  1.0000
  C   C39       1.0  0.36943  0.24596  0.05179  1.0000
  C   C40       1.0  0.37120  0.26842  0.08363  1.0000
  C   C41       1.0  0.39213  0.28210  0.09962  1.0000
  C   C42       1.0  0.42732  0.28309  0.05600  1.0000
  C   C43       1.0  0.33458  0.23498  0.05175  1.0000
  C   C44       1.0  0.39964  0.20421  0.09682  1.0000
  S   S15       1.0  0.47025  0.40812  0.14035  1.0000
  C   C45       1.0  0.37227  0.29788  0.11478  1.0000
  H   H53       1.0  0.46228  0.07060  0.15191  1.0000
  C   C46       1.0  0.31892  0.24115  0.03279  1.0000
  H   H54       1.0  0.43125  0.23249  0.05855  1.0000
  H   H55       1.0  0.43424  0.25281  0.08001  1.0000
  H   H56       1.0  0.35780  0.20588  0.08080  1.0000
  H   H57       1.0  0.39125  0.19455  0.06732  1.0000
  H   H58       1.0  0.38211  0.23141  0.04123  1.0000
  H   H59       1.0  0.36933  0.27049  0.04621  1.0000
  H   H60       1.0  0.36262  0.28933  0.07572  1.0000
  H   H61       1.0  0.34962  0.25804  0.09000  1.0000
  H   H62       1.0  0.40842  0.30024  0.09387  1.0000
  H   H63       1.0  0.40668  0.26408  0.10656  1.0000
  H   H64       1.0  0.42048  0.28063  0.04103  1.0000
  H   H65       1.0  0.41398  0.30311  0.06200  1.0000
  H   H66       1.0  0.32129  0.24774  0.06263  1.0000
  H   H67       1.0  0.33254  0.20929  0.05442  1.0000
  H   H68       1.0  0.42456  0.21193  0.09696  1.0000
  H   H69       1.0  0.38679  0.21572  0.10849  1.0000
  H   H70       1.0  0.11303  0.99634  0.09176  1.0000
  C   C47       1.0  0.46866  0.05611  0.11002  1.0000
  H   H71       1.0  0.14966  0.46711  0.27141  1.0000
  H   H72       1.0  0.38772  0.31100  0.12464  1.0000
  H   H73       1.0  0.35564  0.31489  0.10844  1.0000
  H   H74       1.0  0.35874  0.27996  0.12280  1.0000
  C   C48       1.0  0.29912  0.04631  0.25679  1.0000
  H   H75       1.0  0.02009  0.99323  0.12840  1.0000
  H   H76       1.0  0.25661  0.11790  0.21192  1.0000
  H   H77       1.0  0.29378  0.23389  0.03353  1.0000
  H   H78       1.0  0.31992  0.26658  0.02915  1.0000
  H   H79       1.0  0.33061  0.22739  0.02156  1.0000
  H   H80       1.0  0.12330  0.31662  0.08151  1.0000
  H   H81       1.0  0.32047  0.06956  0.29798  1.0000
  H   H82       1.0  0.18871  0.14028  0.21815  1.0000
  S   S16       1.0  0.36243  0.04010  0.20268  1.0000
  C   C49       1.0  0.15328  0.47418  0.11246  1.0000
  H   H83       1.0  0.10879  0.99915  0.12650  1.0000
  H   H84       1.0  0.24310  0.07412  0.13872  1.0000
  H   H85       1.0  0.46443  0.25632  0.13227  1.0000
  H   H86       1.0  0.46161  0.04243  0.17078  1.0000
  H   H87       1.0  0.15347  0.46885  0.23599  1.0000
  C   C50       1.0  0.37667  0.99497  0.08949  1.0000
  C   C51       1.0  0.16530  0.48113  0.30710  1.0000
  C   C52       1.0  0.46547  0.08888  0.10924  1.0000
  H   H88       1.0  0.35889  0.03682  0.07536  1.0000
  H   H89       1.0  0.07781  0.46593  0.06761  1.0000
  H   H90       1.0  0.29311  0.09078  0.24181  1.0000
  H   H91       1.0  0.22271  0.10556  0.19861  1.0000
  H   H92       1.0  0.15364  0.43816  0.01055  1.0000
  H   H93       1.0  0.45768  0.23154  0.16216  1.0000
  C   C53       1.0  0.23370  0.44507  0.03930  1.0000
  H   H94       1.0  0.23295  0.24657  0.01372  1.0000
  S   S17       1.0  0.36157  0.00938  0.14729  1.0000
  N   N3        1.0  0.28251  0.03706  0.29155  1.0000
  C   C54       1.0  0.46234  0.29132  0.05636  1.0000
  H   H95       1.0  0.35381  0.14887  0.20928  1.0000
  H   H96       1.0  0.19619  0.01377  0.13269  1.0000
  H   H97       1.0  0.24088  0.10212  0.16893  1.0000
  H   H98       1.0  0.08882  0.46842  0.20596  1.0000
  H   H99       1.0  0.46632  0.31430  0.04923  1.0000
  C   C55       1.0  0.38095  0.02298  0.07623  1.0000
  H   H100      1.0  0.09418  0.42990  0.23211  1.0000
  H   H101      1.0  0.11333  0.37104  0.07301  1.0000
  H   H102      1.0  0.21026  0.11240  0.23216  1.0000
  H   H103      1.0  0.99834  0.30717  0.31725  1.0000
  H   H104      1.0  0.26603  0.42544  0.14258  1.0000
  H   H105      1.0  0.12764  0.48223  0.17255  1.0000
  H   H106      1.0  0.15956  0.31630  0.06847  1.0000
  H   H107      1.0  0.12980  0.42206  0.08221  1.0000
  C   C56       1.0  0.41175  0.23158  0.14984  1.0000
  Fe  Fe9       1.0  0.32086  0.03389  0.13316  1.0000
  H   H108      1.0  0.35309  0.13125  0.18630  1.0000
  H   H109      1.0  0.29658  0.15780  0.20808  1.0000
  C   C57       1.0  0.23362  0.12563  0.20622  1.0000
  C   C58       1.0  0.29047  0.06510  0.23922  1.0000
  H   H110      1.0  0.29827  0.99305  0.27961  1.0000
  H   H111      1.0  0.11967  0.34816  0.05213  1.0000
  N   N4        1.0  0.25699  0.14926  0.17569  1.0000
  C   C59       1.0  0.23759  0.15459  0.19309  1.0000
  C   C60       1.0  0.26231  0.18049  0.16606  1.0000
  C   C61       1.0  0.23975  0.12639  0.16302  1.0000
  C   C62       1.0  0.28846  0.13514  0.18051  1.0000
  C   C63       1.0  0.30915  0.15361  0.19470  1.0000
  H   H112      1.0  0.41402  0.15612  0.09031  1.0000
  C   C64       1.0  0.25184  0.12450  0.14245  1.0000
  C   C65       1.0  0.23209  0.19786  0.15967  1.0000
  C   C66       1.0  0.23996  0.22491  0.14628  1.0000
  C   C67       1.0  0.33908  0.13527  0.19925  1.0000
  C   C68       1.0  0.21259  0.13342  0.22296  1.0000
  H   H113      1.0  0.22971  0.08301  0.29275  1.0000
  H   H114      1.0  0.21344  0.16223  0.18917  1.0000
  H   H115      1.0  0.24745  0.17445  0.20148  1.0000
  H   H116      1.0  0.27482  0.19719  0.17551  1.0000
  H   H117      1.0  0.27836  0.17770  0.15385  1.0000
  H   H118      1.0  0.21417  0.13179  0.16242  1.0000
  H   H119      1.0  0.25580  0.43636  0.03283  1.0000
  H   H120      1.0  0.28557  0.11063  0.18582  1.0000
  H   H121      1.0  0.30289  0.13273  0.16770  1.0000
  H   H122      1.0  0.21083  0.09921  0.13159  1.0000
  H   H123      1.0  0.31660  0.17663  0.18874  1.0000
  S   S18       1.0  0.27910  0.01444  0.11612  1.0000
  H   H124      1.0  0.22298  0.15296  0.23133  1.0000
  C   C69       1.0  0.17674  0.32776  0.98872  1.0000
  H   H125      1.0  0.24602  0.14633  0.13463  1.0000
  H   H126      1.0  0.21533  0.18201  0.15236  1.0000
  H   H127      1.0  0.21991  0.20797  0.17205  1.0000
  H   H128      1.0  0.25753  0.24123  0.15260  1.0000
  H   H129      1.0  0.24941  0.21549  0.13291  1.0000
  H   H130      1.0  0.21833  0.23841  0.14302  1.0000
  H   H131      1.0  0.45904  0.36966  0.18562  1.0000
  H   H132      1.0  0.23166  0.99152  0.09083  1.0000
  H   H133      1.0  0.24015  0.00263  0.26829  1.0000
  H   H134      1.0  0.07176  0.42784  0.07867  1.0000
  C   C70       1.0  0.46546  0.32550  0.15670  1.0000
  H   H135      1.0  0.38769  0.01481  0.06200  1.0000
  H   H136      1.0  0.27767  0.12153  0.14185  1.0000
  H   H137      1.0  0.03577  0.03422  0.28699  1.0000
  C   C71       1.0  0.35572  0.01094  0.22051  1.0000
  N   N5        1.0  0.14992  0.40754  0.04563  1.0000
  C   C72       1.0  0.17636  0.43144  0.04564  1.0000
  C   C73       1.0  0.12001  0.42363  0.05159  1.0000
  C   C74       1.0  0.15851  0.38115  0.05891  1.0000
  C   C75       1.0  0.14512  0.39372  0.02633  1.0000
  C   C76       1.0  0.13738  0.41767  0.01052  1.0000
  C   C77       1.0  0.20779  0.42031  0.03686  1.0000
  C   C78       1.0  0.13131  0.35851  0.06462  1.0000
  C   C79       1.0  0.12058  0.43847  0.07146  1.0000
  H   H138      1.0  0.29449  0.44170  0.12643  1.0000
  H   H139      1.0  0.08916  0.45986  0.09168  1.0000
  C   C80       1.0  0.17181  0.00789  0.13725  1.0000
  C   C81       1.0  0.14340  0.33140  0.07670  1.0000
  H   H140      1.0  0.18176  0.43879  0.06025  1.0000
  C   C82       1.0  0.26965  0.44303  0.13121  1.0000
  H   H141      1.0  0.11446  0.44337  0.04189  1.0000
  H   H142      1.0  0.09957  0.40721  0.05044  1.0000
  H   H143      1.0  0.16907  0.39056  0.07209  1.0000
  H   H144      1.0  0.17732  0.36632  0.05267  1.0000
  H   H145      1.0  0.16600  0.37980  0.02204  1.0000
  H   H146      1.0  0.12542  0.37638  0.02643  1.0000
  H   H147      1.0  0.16463  0.39669  0.98806  1.0000
  H   H148      1.0  0.42213  0.31205  0.17122  1.0000
  H   H149      1.0  0.21600  0.39830  0.04360  1.0000
  H   H150      1.0  0.20513  0.41599  0.02158  1.0000
  H   H151      1.0  0.29689  0.02096  0.25324  1.0000
  H   H152      1.0  0.48414  0.34358  0.15904  1.0000
  C   C83       1.0  0.08356  0.47549  0.22016  1.0000
  H   H153      1.0  0.41898  0.21733  0.13754  1.0000
  H   H154      1.0  0.02078  0.03616  0.31076  1.0000
  H   H155      1.0  0.20011  0.26079  0.98684  1.0000
  H   H156      1.0  0.46521  0.32961  0.11719  1.0000
  H   H157      1.0  0.22917  0.46248  0.15876  1.0000
  H   H158      1.0  0.21548  0.04324  0.29070  1.0000
  C   C84       1.0  0.22725  0.06014  0.30024  1.0000
  H   H159      1.0  0.04779  0.00554  0.30419  1.0000
  C   C85       1.0  0.44485  0.32377  0.17454  1.0000
  C   C86       1.0  0.00023  0.99858  0.29376  1.0000
  H   H160      1.0  0.22707  0.46746  0.03231  1.0000
  H   H161      1.0  0.18333  0.07682  0.31217  1.0000
  H   H162      1.0  0.37173  0.00453  0.10366  1.0000
  H   H163      1.0  0.26793  0.24664  0.99939  1.0000
  H   H164      1.0  0.18934  0.47971  0.27114  1.0000
  C   C87       1.0  0.19160  0.45625  0.30422  1.0000
  H   H165      1.0  0.24727  0.28298  0.00384  1.0000
  C   C88       1.0  0.02778  0.02003  0.29922  1.0000
  C   C89       1.0  0.31582  0.04367  0.29795  1.0000
  H   H166      1.0  0.15781  0.99665  0.10923  1.0000
  H   H167      1.0  0.14364  0.46691  0.30991  1.0000
  C   C90       1.0  0.47385  0.06371  0.16526  1.0000
  C   C91       1.0  0.24728  0.98998  0.28118  1.0000
  H   H168      1.0  0.37553  0.03218  0.31253  1.0000
  C   C92       1.0  0.26255  0.47633  0.13812  1.0000
  H   H169      1.0  0.17305  0.99687  0.15137  1.0000
  S   S19       1.0  0.04319  0.38838  0.31497  1.0000
  H   H170      1.0  0.21318  0.46633  0.29794  1.0000
  H   H171      1.0  0.12699  0.99375  0.05861  1.0000
  C   C93       1.0  0.36394  0.99357  0.25317  1.0000
  H   H172      1.0  0.32688  0.98605  0.08662  1.0000
  H   H173      1.0  0.47077  0.29327  0.07102  1.0000
  H   H174      1.0  0.22887  0.99269  0.29210  1.0000
  H   H175      1.0  0.27059  0.06914  0.31423  1.0000
  H   H176      1.0  0.19270  0.48580  0.23652  1.0000
  C   C94       1.0  0.32488  0.03085  0.31764  1.0000
  H   H177      1.0  0.25673  0.03010  0.31756  1.0000
  C   C95       1.0  0.20540  0.06547  0.31694  1.0000
  H   H178      1.0  0.22222  0.46319  0.58386  1.0000
  Fe  Fe10      1.0  0.15950  0.08540  0.38271  1.0000
  S   S20       1.0  0.12477  0.07124  0.40543  1.0000
  S   S21       1.0  0.18289  0.04618  0.36526  1.0000
  Fe  Fe11      1.0  0.14367  0.15621  0.38676  1.0000
  S   S22       1.0  0.10863  0.14537  0.40929  1.0000
  S   S23       1.0  0.15501  0.20870  0.38203  1.0000
  Fe  Fe12      1.0  0.14468  0.11267  0.42166  1.0000
  S   S24       1.0  0.15018  0.11890  0.45371  1.0000
  Fe  Fe13      1.0  0.09184  0.10526  0.39116  1.0000
  S   S25       1.0  0.03797  0.10305  0.38841  1.0000
  S   S26       1.0  0.18094  0.12499  0.39974  1.0000
  S   S27       1.0  0.12526  0.11782  0.36775  1.0000
  Fe  Fe14      1.0  0.10558  0.43576  0.34347  1.0000
  H   H179      1.0  0.46435  0.19333  0.59684  1.0000
  Fe  Fe15      1.0  0.03473  0.42131  0.33909  1.0000
  H   H180      1.0  0.06693  0.32831  0.40850  1.0000
  Fe  Fe16      1.0  0.08272  0.36881  0.33265  1.0000
  S   S28       1.0  0.08409  0.31454  0.33366  1.0000
  S   S29       1.0  0.07260  0.40040  0.35727  1.0000
  H   H181      1.0  0.24809  0.39807  0.64767  1.0000
  H   H182      1.0  0.21334  0.00040  0.51209  1.0000
  Fe  Fe17      1.0  0.24472  0.10217  0.58817  1.0000
  S   S30       1.0  0.27145  0.07206  0.56775  1.0000
  S   S31       1.0  0.20226  0.08494  0.60538  1.0000
  Fe  Fe18      1.0  0.28341  0.16207  0.57885  1.0000
  S   S32       1.0  0.31084  0.13509  0.55727  1.0000
  S   S33       1.0  0.30146  0.21344  0.57988  1.0000
  Fe  Fe19      1.0  0.26541  0.11292  0.54776  1.0000
  S   S34       1.0  0.25769  0.10287  0.51626  1.0000
  Fe  Fe20      1.0  0.31483  0.09689  0.57896  1.0000
  S   S35       1.0  0.36463  0.07636  0.58085  1.0000
  S   S36       1.0  0.23723  0.14254  0.56773  1.0000
  S   S37       1.0  0.28858  0.12432  0.60088  1.0000
  C   C96       1.0  0.03472  0.32588  0.38465  1.0000
  H   H183      1.0  0.05885  0.28408  0.37517  1.0000
  S   S38       1.0  0.37295  0.38803  0.62185  1.0000
  H   H184      1.0  0.00711  0.25492  0.33246  1.0000
  Fe  Fe21      1.0  0.40781  0.40086  0.64438  1.0000
  H   H185      1.0  0.28106  0.47785  0.41947  1.0000
  Fe  Fe22      1.0  0.34748  0.43293  0.62990  1.0000
  H   H186      1.0  0.20795  0.99517  0.34364  1.0000
  C   C97       1.0  0.39186  0.07191  0.59972  1.0000
  C   C98       1.0  0.38253  0.07240  0.61855  1.0000
  C   C99       1.0  0.40487  0.06764  0.63294  1.0000
  C   C100      1.0  0.43683  0.06245  0.62877  1.0000
  C   C101      1.0  0.44629  0.06271  0.60996  1.0000
  C   C102      1.0  0.42390  0.06722  0.59556  1.0000
  H   H187      1.0  0.35798  0.07558  0.62201  1.0000
  C   C103      1.0  0.24526  0.37216  0.64630  1.0000
  C   C104      1.0  0.45771  0.16957  0.60201  1.0000
  H   H188      1.0  0.43142  0.06666  0.58107  1.0000
  C   C105      1.0  0.30741  0.24140  0.59821  1.0000
  C   C106      1.0  0.29522  0.23706  0.61626  1.0000
  C   C107      1.0  0.29974  0.26039  0.63012  1.0000
  C   C108      1.0  0.31674  0.28824  0.62625  1.0000
  C   C109      1.0  0.32951  0.29232  0.60830  1.0000
  C   C110      1.0  0.32465  0.26915  0.59436  1.0000
  H   H189      1.0  0.28181  0.21597  0.61946  1.0000
  H   H190      1.0  0.03813  0.23916  0.35904  1.0000
  H   H191      1.0  0.34289  0.31342  0.60515  1.0000
  H   H192      1.0  0.33426  0.27275  0.58046  1.0000
  H   H193      1.0  0.31275  0.16587  0.63157  1.0000
  H   H194      1.0  0.12962  0.01868  0.52679  1.0000
  H   H195      1.0  0.19857  0.43890  0.56844  1.0000
  C   C111      1.0  0.20065  0.01956  0.60076  1.0000
  C   C112      1.0  0.18668  0.04618  0.60870  1.0000
  C   C113      1.0  0.15911  0.04210  0.61945  1.0000
  C   C114      1.0  0.14557  0.01193  0.62220  1.0000
  H   H196      1.0  0.22194  0.02220  0.59258  1.0000
  H   H197      1.0  0.14810  0.06249  0.62568  1.0000
  C   C115      1.0  0.28226  0.00259  0.36123  1.0000
  C   C116      1.0  0.18024  0.11367  0.47092  1.0000
  C   C117      1.0  0.17591  0.12643  0.48900  1.0000
  C   C118      1.0  0.19914  0.12333  0.50307  1.0000
  C   C119      1.0  0.22704  0.10714  0.49932  1.0000
  C   C120      1.0  0.23121  0.09412  0.48131  1.0000
  C   C121      1.0  0.20796  0.09717  0.46726  1.0000
  H   H198      1.0  0.15450  0.13909  0.49207  1.0000
  H   H199      1.0  0.19560  0.13376  0.51674  1.0000
  H   H200      1.0  0.25261  0.08146  0.47822  1.0000
  H   H201      1.0  0.21150  0.08677  0.45357  1.0000
  C   C122      1.0  0.17470  0.08292  0.55185  1.0000
  C   C123      1.0  0.47379  0.37349  0.60719  1.0000
  C   C124      1.0  0.02139  0.05493  0.36351  1.0000
  C   C125      1.0  0.01231  0.08234  0.37294  1.0000
  H   H202      1.0  0.05527  0.18525  0.37035  1.0000
  H   H203      1.0  0.25990  0.03484  0.51221  1.0000
  N   N6        1.0  0.17403  0.02376  0.54140  1.0000
  H   H204      1.0  0.04531  0.04665  0.36482  1.0000
  C   C126      1.0  0.99908  0.03749  0.35304  1.0000
  C   C127      1.0  0.13428  0.23782  0.36884  1.0000
  C   C128      1.0  0.14168  0.26993  0.37153  1.0000
  C   C129      1.0  0.12666  0.29376  0.36099  1.0000
  C   C130      1.0  0.10431  0.28577  0.34735  1.0000
  C   C131      1.0  0.09702  0.25367  0.34462  1.0000
  C   C132      1.0  0.11159  0.22989  0.35539  1.0000
  H   H205      1.0  0.15929  0.27643  0.38180  1.0000
  H   H206      1.0  0.13268  0.31827  0.36325  1.0000
  H   H207      1.0  0.08000  0.24712  0.33402  1.0000
  H   H208      1.0  0.10586  0.20537  0.35297  1.0000
  H   H209      1.0  0.21158  0.28870  0.57556  1.0000
  C   C133      1.0  0.27655  0.02771  0.37364  1.0000
  C   C134      1.0  0.24638  0.04128  0.37516  1.0000
  C   C135      1.0  0.22141  0.02974  0.36433  1.0000
  H   H210      1.0  0.15163  0.02253  0.48398  1.0000
  H   H211      1.0  0.27246  0.01901  0.53456  1.0000
  H   H212      1.0  0.29565  0.03681  0.38213  1.0000
  H   H213      1.0  0.24245  0.06066  0.38471  1.0000
  H   H214      1.0  0.37958  0.13884  0.63320  1.0000
  C   C136      1.0  0.33271  0.15391  0.63861  1.0000
  S   S39       1.0  0.06684  0.45934  0.32710  1.0000
  S   S40       1.0  0.46359  0.05501  0.64753  1.0000
  C   C137      1.0  0.17114  0.99245  0.55144  1.0000
  H   H215      1.0  0.11497  0.03590  0.49422  1.0000
  H   H216      1.0  0.45543  0.15298  0.59008  1.0000
  S   S41       1.0  0.46142  0.39434  0.64351  1.0000
  C   C138      1.0  0.22710  0.00445  0.35200  1.0000
  H   H217      1.0  0.19873  0.08403  0.55796  1.0000
  H   H218      1.0  0.01079  0.21940  0.39757  1.0000
  H   H219      1.0  0.15241  0.10103  0.57719  1.0000
  C   C139      1.0  0.16122  0.04907  0.55421  1.0000
  H   H220      1.0  0.26790  0.45924  0.62922  1.0000
  H   H221      1.0  0.05123  0.22995  0.39261  1.0000
  C   C140      1.0  0.15719  0.04963  0.50980  1.0000
  H   H222      1.0  0.04429  0.17288  0.39359  1.0000
  C   C141      1.0  0.00236  0.02741  0.41247  1.0000
  C   C142      1.0  0.02921  0.22008  0.38657  1.0000
  H   H223      1.0  0.01490  0.17418  0.37544  1.0000
  H   H224      1.0  0.30891  0.03958  0.32876  1.0000
  H   H225      1.0  0.17655  0.09024  0.53704  1.0000
  C   C143      1.0  0.22543  0.00409  0.52570  1.0000
  H   H226      1.0  0.47072  0.05870  0.60648  1.0000
  H   H227      1.0  0.99677  0.05079  0.41859  1.0000
  N   N7        1.0  0.26043  0.37257  0.59192  1.0000
  C   C144      1.0  0.23810  0.34636  0.58637  1.0000
  C   C145      1.0  0.24770  0.40369  0.58506  1.0000
  C   C146      1.0  0.29109  0.36682  0.58171  1.0000
  C   C147      1.0  0.26665  0.37360  0.61282  1.0000
  H   H228      1.0  0.36439  0.03102  0.33690  1.0000
  C   C148      1.0  0.25074  0.31244  0.58952  1.0000
  C   C149      1.0  0.31624  0.39332  0.58305  1.0000
  C   C150      1.0  0.21592  0.41453  0.59335  1.0000
  C   C151      1.0  0.20419  0.44413  0.58334  1.0000
  S   S42       1.0  0.32039  0.31734  0.64415  1.0000
  C   C152      1.0  0.22438  0.28784  0.58913  1.0000
  C   C153      1.0  0.34784  0.38251  0.57515  1.0000
  H   H229      1.0  0.23203  0.34833  0.57120  1.0000
  H   H230      1.0  0.21523  0.34833  0.59372  1.0000
  H   H231      1.0  0.26428  0.42325  0.58850  1.0000
  H   H232      1.0  0.24559  0.40335  0.56946  1.0000
  H   H233      1.0  0.28668  0.36256  0.56649  1.0000
  H   H234      1.0  0.30246  0.34509  0.58713  1.0000
  H   H235      1.0  0.28684  0.35822  0.61664  1.0000
  H   H236      1.0  0.27437  0.39773  0.61702  1.0000
  H   H237      1.0  0.00613  0.01582  0.34631  1.0000
  H   H238      1.0  0.48150  0.46211  0.61718  1.0000
  H   H239      1.0  0.26768  0.30629  0.57824  1.0000
  H   H240      1.0  0.26321  0.31037  0.60312  1.0000
  H   H241      1.0  0.31962  0.40064  0.59782  1.0000
  H   H242      1.0  0.30913  0.41422  0.57472  1.0000
  H   H243      1.0  0.19734  0.39627  0.59197  1.0000
  S   S43       1.0  0.32082  0.98650  0.35985  1.0000
  H   H244      1.0  0.21265  0.05240  0.53047  1.0000
  H   H245      1.0  0.18064  0.42853  0.32919  1.0000
  H   H246      1.0  0.99903  0.22617  0.36259  1.0000
  H   H247      1.0  0.12430  0.00930  0.63040  1.0000
  C   C154      1.0  0.42670  0.17035  0.61336  1.0000
  H   H248      1.0  0.47828  0.25797  0.62752  1.0000
  H   H249      1.0  0.38432  0.24566  0.61861  1.0000
  H   H250      1.0  0.22144  0.03146  0.55117  1.0000
  H   H251      1.0  0.20764  0.29178  0.60085  1.0000
  H   H252      1.0  0.36537  0.40191  0.57647  1.0000
  H   H253      1.0  0.35670  0.36177  0.58301  1.0000
  H   H254      1.0  0.34549  0.37628  0.56009  1.0000
  N   N8        1.0  0.23884  0.18817  0.44682  1.0000
  C   C155      1.0  0.23745  0.18655  0.46799  1.0000
  C   C156      1.0  0.20586  0.18935  0.43866  1.0000
  C   C157      1.0  0.25416  0.15827  0.44000  1.0000
  C   C158      1.0  0.25835  0.21566  0.43995  1.0000
  C   C159      1.0  0.24852  0.24866  0.44689  1.0000
  C   C160      1.0  0.26925  0.18238  0.47841  1.0000
  C   C161      1.0  0.25755  0.15494  0.41839  1.0000
  C   C162      1.0  0.18012  0.20598  0.45049  1.0000
  C   C163      1.0  0.14992  0.21030  0.43920  1.0000
  C   C164      1.0  0.27187  0.27386  0.44027  1.0000
  C   C165      1.0  0.26571  0.18845  0.49945  1.0000
  C   C166      1.0  0.26600  0.12120  0.41293  1.0000
  H   H255      1.0  0.22215  0.16647  0.47233  1.0000
  H   H256      1.0  0.22599  0.20765  0.47397  1.0000
  H   H257      1.0  0.20615  0.20043  0.42446  1.0000
  H   H258      1.0  0.19641  0.16507  0.43632  1.0000
  H   H259      1.0  0.24083  0.13748  0.44535  1.0000
  H   H260      1.0  0.27841  0.15595  0.44566  1.0000
  H   H261      1.0  0.28363  0.21214  0.44336  1.0000
  H   H262      1.0  0.25755  0.21692  0.42435  1.0000
  H   H263      1.0  0.24764  0.24989  0.46241  1.0000
  H   H264      1.0  0.22525  0.25491  0.44096  1.0000
  H   H265      1.0  0.27769  0.15780  0.47679  1.0000
  H   H266      1.0  0.28754  0.19877  0.47307  1.0000
  H   H267      1.0  0.27666  0.17066  0.41320  1.0000
  H   H268      1.0  0.23567  0.16131  0.41092  1.0000
  H   H269      1.0  0.17413  0.19134  0.46295  1.0000
  H   H270      1.0  0.18775  0.22944  0.45550  1.0000
  H   H271      1.0  0.13194  0.22217  0.44796  1.0000
  H   H272      1.0  0.15433  0.22484  0.42648  1.0000
  H   H273      1.0  0.14042  0.18702  0.43492  1.0000
  H   H274      1.0  0.29566  0.26936  0.44612  1.0000
  H   H275      1.0  0.27321  0.27428  0.42470  1.0000
  H   H276      1.0  0.26402  0.29739  0.44514  1.0000
  H   H277      1.0  0.24703  0.17317  0.50553  1.0000
  H   H278      1.0  0.28816  0.18305  0.50673  1.0000
  H   H279      1.0  0.25977  0.21350  0.50210  1.0000
  H   H280      1.0  0.28854  0.11413  0.41956  1.0000
  H   H281      1.0  0.24712  0.10454  0.41735  1.0000
  H   H282      1.0  0.26859  0.11954  0.39745  1.0000
  H   H283      1.0  0.02295  0.03049  0.40302  1.0000
  C   C167      1.0  0.98891  0.27091  0.33827  1.0000
  C   C168      1.0  0.13997  0.04220  0.49147  1.0000
  N   N9        1.0  0.39784  0.18213  0.60324  1.0000
  C   C169      1.0  0.40193  0.21534  0.59593  1.0000
  C   C170      1.0  0.38909  0.16010  0.58732  1.0000
  C   C171      1.0  0.37091  0.18250  0.61709  1.0000
  H   H284      1.0  0.18256  0.45284  0.59032  1.0000
  C   C172      1.0  0.40661  0.24157  0.61085  1.0000
  C   C173      1.0  0.36042  0.15012  0.62512  1.0000
  C   C174      1.0  0.40328  0.16745  0.56763  1.0000
  C   C175      1.0  0.40239  0.13865  0.55481  1.0000
  C   C176      1.0  0.41583  0.27288  0.60164  1.0000
  H   H285      1.0  0.11881  0.99001  0.55101  1.0000
  H   H286      1.0  0.38079  0.22197  0.58752  1.0000
  H   H287      1.0  0.42206  0.21710  0.58611  1.0000
  H   H288      1.0  0.39511  0.13546  0.59112  1.0000
  H   H289      1.0  0.36310  0.15976  0.58506  1.0000
  H   H290      1.0  0.34985  0.19347  0.61049  1.0000
  H   H291      1.0  0.37689  0.19720  0.62951  1.0000
  H   H292      1.0  0.16624  0.04321  0.56916  1.0000
  C   C177      1.0  0.00310  0.29027  0.35474  1.0000
  H   H293      1.0  0.21040  0.45858  0.33268  1.0000
  H   H294      1.0  0.42524  0.23528  0.62102  1.0000
  H   H295      1.0  0.14040  0.06319  0.48218  1.0000
  H   H296      1.0  0.35312  0.13389  0.61374  1.0000
  H   H297      1.0  0.38943  0.18649  0.56086  1.0000
  H   H298      1.0  0.42802  0.17551  0.56823  1.0000
  H   H299      1.0  0.41178  0.14496  0.54076  1.0000
  H   H300      1.0  0.41697  0.11941  0.56074  1.0000
  H   H301      1.0  0.37795  0.12987  0.55308  1.0000
  H   H302      1.0  0.98803  0.31116  0.35719  1.0000
  H   H303      1.0  0.39796  0.27984  0.59106  1.0000
  H   H304      1.0  0.23464  0.26396  0.59078  1.0000
  H   H305      1.0  0.06199  0.36485  0.39597  1.0000
  S   S44       1.0  0.14649  0.45788  0.36042  1.0000
  N   N10       1.0  0.00914  0.27330  0.37306  1.0000
  H   H306      1.0  0.18187  0.05542  0.50612  1.0000
  H   H307      1.0  0.43083  0.18398  0.62645  1.0000
  H   H308      1.0  0.21642  0.37384  0.62183  1.0000
  H   H309      1.0  0.14561  0.07055  0.51594  1.0000
  C   C178      1.0  0.01842  0.23958  0.36933  1.0000
  H   H310      1.0  0.13052  0.10794  0.55578  1.0000
  H   H311      1.0  0.98656  0.42732  0.55508  1.0000
  H   H312      1.0  0.39722  0.06739  0.64741  1.0000
  C   C179      1.0  0.15503  0.02148  0.52354  1.0000
  H   H313      1.0  0.21902  0.42081  0.60836  1.0000
  H   H314      1.0  0.23598  0.33727  0.62544  1.0000
  H   H315      1.0  0.03956  0.28010  0.39721  1.0000
  H   H316      1.0  0.02551  0.29978  0.34890  1.0000
  H   H317      1.0  0.03318  0.33763  0.37077  1.0000
  C   C180      1.0  0.20856  0.02950  0.53759  1.0000
  H   H318      1.0  0.08537  0.33402  0.38581  1.0000
  H   H319      1.0  0.41710  0.29172  0.61242  1.0000
  H   H320      1.0  0.13509  0.05003  0.55314  1.0000
  H   H321      1.0  0.98639  0.26483  0.39983  1.0000
  C   C181      1.0  0.45282  0.30319  0.65042  1.0000
  C   C182      1.0  0.06409  0.33892  0.39436  1.0000
  H   H322      1.0  0.46888  0.48016  0.59556  1.0000
  H   H323      1.0  0.42294  0.14560  0.61806  1.0000
  H   H324      1.0  0.44931  0.37806  0.60411  1.0000
  C   C183      1.0  0.15441  0.10706  0.56206  1.0000
  S   S45       1.0  0.32718  0.46783  0.60847  1.0000
  S   S46       1.0  0.11793  0.40246  0.31986  1.0000
  C   C184      1.0  0.03655  0.28941  0.38273  1.0000
  H   H325      1.0  0.13543  0.99926  0.57347  1.0000
  H   H326      1.0  0.43918  0.27106  0.59472  1.0000
  H   H327      1.0  0.27153  0.99431  0.51399  1.0000
  H   H328      1.0  0.01410  0.33305  0.39312  1.0000
  H   H329      1.0  0.16537  0.13078  0.56084  1.0000
  C   C185      1.0  0.26535  0.47917  0.61990  1.0000
  H   H330      1.0  0.20822  0.47622  0.37302  1.0000
  H   H331      1.0  0.45505  0.32260  0.64005  1.0000
  C   C186      1.0  0.23908  0.36324  0.62590  1.0000
  H   H332      1.0  0.18898  0.99084  0.56287  1.0000
  H   H333      1.0  0.48009  0.13265  0.61860  1.0000
  H   H334      1.0  0.19906  0.04263  0.32355  1.0000
  H   H335      1.0  0.21668  0.08094  0.32761  1.0000
  H   H336      1.0  0.00892  0.01081  0.42385  1.0000
  C   C187      1.0  0.18708  0.98943  0.60347  1.0000
  C   C188      1.0  0.03627  0.18610  0.38104  1.0000
  H   H337      1.0  0.16126  0.99980  0.51564  1.0000
  H   H338      1.0  0.21965  0.42299  0.32010  1.0000
  H   H339      1.0  0.32457  0.13033  0.64343  1.0000
  C   C189      1.0  0.48482  0.15732  0.61406  1.0000
  H   H340      1.0  0.28975  0.25694  0.64395  1.0000
  C   C190      1.0  0.20107  0.44072  0.32270  1.0000
  C   C191      1.0  0.35828  0.04101  0.32296  1.0000
  H   H341      1.0  0.43409  0.28661  0.64577  1.0000
  Fe  Fe23      1.0  0.34530  0.36545  0.64519  1.0000
  H   H342      1.0  0.11533  0.47359  0.42100  1.0000
  C   C192      1.0  0.25938  0.01374  0.52141  1.0000
  H   H343      1.0  0.36004  0.06707  0.32383  1.0000
  C   C193      1.0  0.25733  0.99109  0.35034  1.0000
  H   H344      1.0  0.00665  0.40928  0.57453  1.0000
  H   H345      1.0  0.22370  0.48283  0.42280  1.0000
  H   H346      1.0  0.47974  0.43923  0.59582  1.0000
  H   H347      1.0  0.32418  0.00474  0.31784  1.0000
  H   H348      1.0  0.48514  0.35957  0.57884  1.0000
  S   S47       1.0  0.38511  0.44785  0.65042  1.0000
  H   H349      1.0  0.15625  0.06673  0.76763  1.0000
  H   H350      1.0  0.35025  0.37571  0.86022  1.0000
  H   H351      1.0  0.99065  0.37193  0.82844  1.0000
  C   C194      1.0  0.23789  0.26855  0.96637  1.0000
  Fe  Fe24      1.0  0.02653  0.03879  0.83004  1.0000
  S   S48       1.0  0.04203  0.07290  0.80777  1.0000
  S   S49       1.0  0.11401  0.05694  0.81767  1.0000
  Fe  Fe25      1.0  0.07747  0.09039  0.82892  1.0000
  S   S50       1.0  0.07535  0.14393  0.83397  1.0000
  Fe  Fe26      1.0  0.07670  0.03619  0.79856  1.0000
  S   S51       1.0  0.06095  0.05706  0.85144  1.0000
  Fe  Fe27      1.0  0.16137  0.36695  0.88168  1.0000
  S   S52       1.0  0.12641  0.38019  0.90439  1.0000
  S   S53       1.0  0.18506  0.40406  0.86253  1.0000
  Fe  Fe28      1.0  0.14695  0.29573  0.88611  1.0000
  S   S54       1.0  0.11213  0.30520  0.90885  1.0000
  S   S55       1.0  0.15931  0.24445  0.87920  1.0000
  Fe  Fe29      1.0  0.09418  0.34452  0.89061  1.0000
  S   S56       1.0  0.04053  0.34315  0.88690  1.0000
  Fe  Fe30      1.0  0.14739  0.33962  0.92082  1.0000
  S   S57       1.0  0.15250  0.33427  0.95299  1.0000
  S   S58       1.0  0.12761  0.33325  0.86712  1.0000
  S   S59       1.0  0.18374  0.32821  0.89878  1.0000
  Fe  Fe31      1.0  0.35644  0.42249  0.67239  1.0000
  S   S60       1.0  0.33698  0.44593  0.69929  1.0000
  S   S61       1.0  0.38119  0.37617  0.66769  1.0000
  N   N11       1.0  0.99010  0.32553  0.81624  1.0000
  C   C195      1.0  0.18198  0.33998  0.97056  1.0000
  C   C196      1.0  0.20987  0.35676  0.96719  1.0000
  H   H352      1.0  0.25870  0.34542  0.78731  1.0000
  H   H353      1.0  0.21418  0.36664  0.95343  1.0000
  C   C197      1.0  0.23998  0.20079  0.94846  1.0000
  C   C198      1.0  0.32984  0.47904  0.73241  1.0000
  C   C199      1.0  0.00480  0.41669  0.85654  1.0000
  C   C200      1.0  0.02608  0.39670  0.86593  1.0000
  C   C201      1.0  0.01497  0.37004  0.87547  1.0000
  H   H354      1.0  0.20205  0.01307  0.75845  1.0000
  C   C202      1.0  0.18813  0.02664  0.76878  1.0000
  H   H355      1.0  0.01364  0.43726  0.84922  1.0000
  H   H356      1.0  0.05103  0.40192  0.86579  1.0000
  H   H357      1.0  0.47615  0.02089  0.74875  1.0000
  H   H358      1.0  0.28863  0.43924  0.88711  1.0000
  H   H359      1.0  0.01345  0.16543  0.84657  1.0000
  S   S62       1.0  0.13334  0.99927  0.85788  1.0000
  C   C203      1.0  0.09831  0.17067  0.84772  1.0000
  C   C204      1.0  0.08694  0.20137  0.85077  1.0000
  C   C205      1.0  0.10488  0.22391  0.86078  1.0000
  C   C206      1.0  0.13477  0.21626  0.86759  1.0000
  C   C207      1.0  0.14588  0.18539  0.86484  1.0000
  C   C208      1.0  0.12773  0.16268  0.85508  1.0000
  H   H360      1.0  0.06428  0.20791  0.84515  1.0000
  H   H361      1.0  0.09586  0.24738  0.86301  1.0000
  H   H362      1.0  0.16888  0.17912  0.87008  1.0000
  H   H363      1.0  0.13686  0.13925  0.85286  1.0000
  C   C209      1.0  0.09669  0.00154  0.73226  1.0000
  C   C210      1.0  0.35146  0.46470  0.72010  1.0000
  C   C211      1.0  0.23194  0.36142  0.98178  1.0000
  H   H364      1.0  0.02751  0.27089  0.82375  1.0000
  H   H365      1.0  0.21868  0.05843  0.83658  1.0000
  C   C212      1.0  0.99800  0.37875  0.79866  1.0000
  C   C213      1.0  0.27737  0.46267  0.86113  1.0000
  S   S63       1.0  0.31400  0.48341  0.86051  1.0000
  C   C214      1.0  0.22662  0.44775  0.84782  1.0000
  C   C215      1.0  0.22080  0.42640  0.86261  1.0000
  C   C216      1.0  0.24334  0.42367  0.87682  1.0000
  C   C217      1.0  0.27134  0.44176  0.87608  1.0000
  C   C218      1.0  0.23648  0.44133  0.68417  1.0000
  H   H366      1.0  0.20927  0.45024  0.83681  1.0000
  H   H367      1.0  0.23922  0.40754  0.88834  1.0000
  S   S64       1.0  0.05933  0.00043  0.81962  1.0000
  C   C219      1.0  0.22401  0.25152  0.98385  1.0000
  H   H368      1.0  0.05914  0.02570  0.69489  1.0000
  H   H369      1.0  0.08319  0.26937  0.83258  1.0000
  H   H370      1.0  0.42751  0.03716  0.80298  1.0000
  H   H371      1.0  0.24608  0.41927  0.69024  1.0000
  H   H372      1.0  0.24418  0.34940  0.92384  1.0000
  C   C220      1.0  0.07109  0.02982  0.66586  1.0000
  H   H373      1.0  0.18693  0.06717  0.75014  1.0000
  H   H374      1.0  0.02903  0.99452  0.71709  1.0000
  C   C221      1.0  0.39344  0.48002  0.74170  1.0000
  H   H375      1.0  0.40042  0.45474  0.71559  1.0000
  C   C222      1.0  0.99569  0.01271  0.74635  1.0000
  H   H376      1.0  0.24868  0.45955  0.79305  1.0000
  C   C223      1.0  0.07426  0.29011  0.82480  1.0000
  C   C224      1.0  0.99634  0.19638  0.87645  1.0000
  H   H377      1.0  0.06233  0.05433  0.66461  1.0000
  H   H378      1.0  0.44555  0.31360  0.66404  1.0000
  H   H379      1.0  0.30046  0.44590  0.77846  1.0000
  H   H380      1.0  0.40339  0.41695  0.81286  1.0000
  C   C225      1.0  0.20126  0.02679  0.81496  1.0000
  H   H381      1.0  0.06044  0.09777  0.88993  1.0000
  H   H382      1.0  0.14728  0.01945  0.78665  1.0000
  H   H383      1.0  0.25325  0.37470  0.97899  1.0000
  H   H384      1.0  0.06752  0.01744  0.65229  1.0000
  H   H385      1.0  0.22181  0.22579  0.98189  1.0000
  C   C226      1.0  0.26178  0.33133  0.91986  1.0000
  H   H386      1.0  0.47965  0.26624  0.66269  1.0000
  H   H387      1.0  0.02126  0.08197  0.88720  1.0000
  C   C227      1.0  0.25552  0.17511  0.93669  1.0000
  H   H388      1.0  0.27928  0.28685  0.92921  1.0000
  C   C228      1.0  0.00338  0.25579  0.87611  1.0000
  C   C229      1.0  0.03885  0.29328  0.82799  1.0000
  H   H389      1.0  0.10583  0.02447  0.72834  1.0000
  H   H390      1.0  0.22811  0.99115  0.78633  1.0000
  C   C230      1.0  0.41444  0.01443  0.80357  1.0000
  H   H391      1.0  0.25866  0.48197  0.83561  1.0000
  H   H392      1.0  0.00164  0.42667  0.78809  1.0000
  H   H393      1.0  0.04168  0.15134  0.88375  1.0000
  C   C231      1.0  0.38342  0.46552  0.72484  1.0000
  H   H394      1.0  0.28207  0.45480  0.67427  1.0000
  C   C232      1.0  0.02661  0.13132  0.87923  1.0000
  H   H395      1.0  0.41821  0.48022  0.74520  1.0000
  C   C233      1.0  0.26117  0.30388  0.93377  1.0000
  H   H396      1.0  0.21105  0.30692  0.93868  1.0000
  H   H397      1.0  0.29670  0.33276  0.79547  1.0000
  C   C234      1.0  0.01829  0.00965  0.67791  1.0000
  H   H398      1.0  0.13141  0.41912  0.98025  1.0000
  H   H399      1.0  0.07952  0.28666  0.80968  1.0000
  C   C235      1.0  0.20368  0.03700  0.83548  1.0000
  H   H400      1.0  0.29291  0.35176  0.77278  1.0000
  H   H401      1.0  0.99534  0.19780  0.89204  1.0000
  Fe  Fe32      1.0  0.09557  0.02212  0.83910  1.0000
  H   H402      1.0  0.26815  0.31349  0.94764  1.0000
  H   H403      1.0  0.09676  0.03075  0.66878  1.0000
  H   H404      1.0  0.03023  0.10825  0.90652  1.0000
  H   H405      1.0  0.99405  0.27833  0.87058  1.0000
  H   H406      1.0  0.25402  0.15223  0.94422  1.0000
  H   H407      1.0  0.06491  0.98891  0.68311  1.0000
  C   C236      1.0  0.16517  0.00449  0.77960  1.0000
  N   N12       1.0  0.22448  0.25995  0.94735  1.0000
  C   C237      1.0  0.18975  0.25261  0.94897  1.0000
  H   H408      1.0  0.30508  0.47873  0.72894  1.0000
  C   C238      1.0  0.22799  0.28824  0.93457  1.0000
  C   C239      1.0  0.24246  0.23318  0.93859  1.0000
  H   H409      1.0  0.45374  0.01458  0.77539  1.0000
  C   C240      1.0  0.17230  0.24527  0.93035  1.0000
  H   H410      1.0  0.99003  0.31858  0.78618  1.0000
  H   H411      1.0  0.28074  0.18080  0.93419  1.0000
  H   H412      1.0  0.40501  0.01133  0.81800  1.0000
  H   H413      1.0  0.25664  0.32289  0.90542  1.0000
  C   C241      1.0  0.13801  0.23613  0.93400  1.0000
  H   H414      1.0  0.28544  0.34259  0.91986  1.0000
  H   H415      1.0  0.17749  0.27277  0.95569  1.0000
  H   H416      1.0  0.18524  0.23244  0.95847  1.0000
  H   H417      1.0  0.02852  0.25398  0.87194  1.0000
  H   H418      1.0  0.23395  0.29398  0.96934  1.0000
  H   H419      1.0  0.08691  0.31140  0.82996  1.0000
  H   H420      1.0  0.22188  0.28182  0.91987  1.0000
  H   H421      1.0  0.23545  0.23007  0.92364  1.0000
  H   H422      1.0  0.03289  0.12529  0.86460  1.0000
  S   S65       1.0  0.08752  0.02860  0.76706  1.0000
  H   H423      1.0  0.21521  0.19347  0.95073  1.0000
  H   H424      1.0  0.17209  0.26623  0.92106  1.0000
  H   H425      1.0  0.18341  0.22546  0.92274  1.0000
  C   C242      1.0  0.05420  0.01245  0.68180  1.0000
  H   H426      1.0  0.03639  0.34288  0.82447  1.0000
  H   H427      1.0  0.21428  0.01809  0.84416  1.0000
  H   H428      1.0  0.31281  0.37172  0.83389  1.0000
  H   H429      1.0  0.21760  0.45008  0.69356  1.0000
  H   H430      1.0  0.26799  0.23889  0.93805  1.0000
  H   H431      1.0  0.24331  0.17253  0.92298  1.0000
  H   H432      1.0  0.38804  0.39338  0.79382  1.0000
  H   H433      1.0  0.42330  0.45675  0.79028  1.0000
  H   H434      1.0  0.43897  0.41816  0.78575  1.0000
  H   H435      1.0  0.12558  0.25551  0.94134  1.0000
  H   H436      1.0  0.12596  0.23175  0.92039  1.0000
  H   H437      1.0  0.13654  0.21431  0.94257  1.0000
  H   H438      1.0  0.31012  0.37902  0.86826  1.0000
  C   C243      1.0  0.02558  0.32213  0.81722  1.0000
  H   H439      1.0  0.20496  0.03881  0.77814  1.0000
  H   H440      1.0  0.26392  0.26553  0.96641  1.0000
  H   H441      1.0  0.02392  0.37587  0.79828  1.0000
  H   H442      1.0  0.27912  0.38223  0.81105  1.0000
  H   H443      1.0  0.22632  0.43592  0.67018  1.0000
  H   H444      1.0  0.19000  0.04647  0.80727  1.0000
  H   H445      1.0  0.03588  0.32223  0.80285  1.0000
  C   C244      1.0  0.25463  0.46581  0.84708  1.0000
  C   C245      1.0  0.03501  0.10309  0.89152  1.0000
  H   H446      1.0  0.25255  0.20162  0.96208  1.0000
  H   H447      1.0  0.31457  0.46503  0.81934  1.0000
  H   H448      1.0  0.29536  0.40883  0.84039  1.0000
  H   H449      1.0  0.33449  0.41376  0.86656  1.0000
  H   H450      1.0  0.02190  0.19548  0.87303  1.0000
  N   N13       1.0  0.33366  0.42182  0.80813  1.0000
  C   C246      1.0  0.30789  0.44605  0.80926  1.0000
  C   C247      1.0  0.34293  0.41257  0.82784  1.0000
  C   C248      1.0  0.36195  0.43744  0.79907  1.0000
  C   C249      1.0  0.32444  0.39324  0.79665  1.0000
  C   C250      1.0  0.28909  0.38350  0.79674  1.0000
  C   C251      1.0  0.29976  0.46253  0.79045  1.0000
  C   C252      1.0  0.39266  0.41780  0.79866  1.0000
  C   C253      1.0  0.31760  0.39547  0.83975  1.0000
  C   C254      1.0  0.32895  0.39072  0.85991  1.0000
  C   C255      1.0  0.28420  0.35138  0.78749  1.0000
  H   H451      1.0  0.40824  0.43341  0.77097  1.0000
  C   C256      1.0  0.41721  0.43250  0.78560  1.0000
  H   H452      1.0  0.03509  0.29638  0.84332  1.0000
  H   H453      1.0  0.28598  0.43585  0.81518  1.0000
  H   H454      1.0  0.36313  0.39612  0.82765  1.0000
  H   H455      1.0  0.35102  0.43386  0.83573  1.0000
  H   H456      1.0  0.36754  0.46016  0.80615  1.0000
  H   H457      1.0  0.35669  0.44378  0.78423  1.0000
  H   H458      1.0  0.33065  0.39676  0.78159  1.0000
  H   H459      1.0  0.33847  0.37248  0.80116  1.0000
  H   H460      1.0  0.27494  0.40080  0.78874  1.0000
  H   H461      1.0  0.99040  0.11084  0.84637  1.0000
  C   C257      1.0  0.18108  0.99650  0.81295  1.0000
  H   H462      1.0  0.01598  0.99806  0.66397  1.0000
  H   H463      1.0  0.22556  0.02346  0.80977  1.0000
  C   C258      1.0  0.08584  0.99662  0.75073  1.0000
  H   H464      1.0  0.00937  0.03412  0.67607  1.0000
  H   H465      1.0  0.18004  0.04274  0.84113  1.0000
  H   H466      1.0  0.19731  0.48004  0.88512  1.0000
  H   H467      1.0  0.00291  0.26586  0.79707  1.0000
  C   C259      1.0  0.26286  0.46579  0.68244  1.0000
  C   C260      1.0  0.00723  0.00576  0.71161  1.0000
  H   H468      1.0  0.15390  0.04066  0.74762  1.0000
  C   C261      1.0  0.26728  0.47773  0.79098  1.0000
  C   C262      1.0  0.17014  0.05180  0.75790  1.0000
  H   H469      1.0  0.27160  0.47114  0.69676  1.0000
  H   H470      1.0  0.22511  0.36453  0.65516  1.0000
  H   H471      1.0  0.00888  0.13501  0.81617  1.0000
  C   C263      1.0  0.99128  0.41398  0.80026  1.0000
  H   H472      1.0  0.01289  0.03139  0.71041  1.0000
  H   H473      1.0  0.00185  0.25655  0.89166  1.0000
  C   C264      1.0  0.98770  0.16263  0.84904  1.0000
  S   S66       1.0  0.31799  0.40948  0.65181  1.0000
  H   H474      1.0  0.98806  0.37067  0.78509  1.0000
  H   H475      1.0  0.46442  0.99707  0.71847  1.0000
  H   H476      1.0  0.00178  0.42374  0.81331  1.0000
  H   H477      1.0  0.15737  0.00333  0.81792  1.0000
  H   H478      1.0  0.01332  0.99496  0.75071  1.0000
  H   H479      1.0  0.39436  0.01515  0.79360  1.0000
  C   C265      1.0  0.99115  0.13939  0.88105  1.0000
  N   N14       1.0  0.99896  0.99230  0.69254  1.0000
  H   H480      1.0  0.15179  0.99146  0.76857  1.0000
  H   H481      1.0  0.00721  0.03629  0.74591  1.0000
  H   H482      1.0  0.31738  0.48141  0.78775  1.0000
  H   H483      1.0  0.26672  0.36027  0.65156  1.0000
  C   C266      1.0  0.43626  0.98708  0.79888  1.0000
  H   H484      1.0  0.98661  0.22853  0.85282  1.0000
  H   H485      1.0  0.98682  0.14372  0.89621  1.0000
  H   H486      1.0  0.98554  0.32456  0.84631  1.0000
  C   C267      1.0  0.44897  0.98942  0.77846  1.0000
  H   H487      1.0  0.45568  0.98682  0.80930  1.0000
  H   H488      1.0  0.33987  0.16793  0.65106  1.0000
  C   C268      1.0  0.48407  0.28596  0.65280  1.0000
  Fe  Fe33      1.0  0.34915  0.92923  0.29941  1.0000
  S   S67       1.0  0.33515  0.93979  0.26871  1.0000
  Fe  Fe34      1.0  0.07254  0.54428  0.17356  1.0000
  Fe  Fe35      1.0  0.08413  0.60048  0.14570  1.0000
  S   S68       1.0  0.06745  0.57261  0.12082  1.0000
  S   S69       1.0  0.10015  0.65220  0.14593  1.0000
  Fe  Fe36      1.0  0.02818  0.55536  0.13956  1.0000
  S   S70       1.0  0.04339  0.58554  0.16385  1.0000
  S   S71       1.0  0.11473  0.56191  0.15724  1.0000
  Fe  Fe37      1.0  0.15601  0.84490  0.04579  1.0000
  S   S72       1.0  0.18672  0.81929  0.06639  1.0000
  S   S73       1.0  0.15932  0.84332  0.01352  1.0000
  Fe  Fe38      1.0  0.10671  0.85999  0.07700  1.0000
  S   S74       1.0  0.13421  0.83467  0.09927  1.0000
  S   S75       1.0  0.05882  0.88404  0.07957  1.0000
  Fe  Fe39      1.0  0.17652  0.85938  0.08634  1.0000
  S   S76       1.0  0.21520  0.87861  0.10576  1.0000
  Fe  Fe40      1.0  0.14231  0.79694  0.07760  1.0000
  S   S77       1.0  0.13615  0.74334  0.07764  1.0000
  S   S78       1.0  0.14851  0.88656  0.06501  1.0000
  S   S79       1.0  0.11197  0.82090  0.05620  1.0000
  H   H489      1.0  0.13820  0.88161  0.15762  1.0000
  H   H490      1.0  0.44063  0.67739  0.30134  1.0000
  H   H491      1.0  0.42300  0.90507  0.04687  1.0000
  C   C269      1.0  0.21638  0.73307  0.99978  1.0000
  C   C270      1.0  0.23061  0.91730  0.10925  1.0000
  C   C271      1.0  0.25224  0.92242  0.12390  1.0000
  C   C272      1.0  0.26651  0.95220  0.12664  1.0000
  H   H492      1.0  0.31510  0.94317  0.23026  1.0000
  C   C273      1.0  0.23732  0.52492  0.16709  1.0000
  C   C274      1.0  0.22280  0.94261  0.09759  1.0000
  H   H493      1.0  0.25822  0.90311  0.13313  1.0000
  H   H494      1.0  0.11021  0.49362  0.28820  1.0000
  H   H495      1.0  0.00601  0.96576  0.14587  1.0000
  H   H496      1.0  0.20624  0.93909  0.08625  1.0000
  H   H497      1.0  0.14251  0.51000  0.18967  1.0000
  C   C275      1.0  0.46600  0.62046  0.30561  1.0000
  C   C276      1.0  0.24403  0.85365  0.98655  1.0000
  C   C277      1.0  0.02871  0.88251  0.09694  1.0000
  C   C278      1.0  0.03363  0.86964  0.11478  1.0000
  C   C279      1.0  0.00958  0.67963  0.13403  1.0000
  H   H498      1.0  0.00545  0.78219  0.16053  1.0000
  C   C280      1.0  0.38949  0.92592  0.06612  1.0000
  H   H499      1.0  0.05593  0.85888  0.11810  1.0000
  H   H500      1.0  0.17634  0.94560  0.99324  1.0000
  C   C281      1.0  0.11139  0.67641  0.12665  1.0000
  C   C282      1.0  0.12358  0.70672  0.13025  1.0000
  C   C283      1.0  0.13106  0.72759  0.11546  1.0000
  C   C284      1.0  0.12671  0.71821  0.09684  1.0000
  C   C285      1.0  0.11504  0.68770  0.09321  1.0000
  C   C286      1.0  0.10727  0.66694  0.10802  1.0000
  H   H501      1.0  0.12728  0.71409  0.14460  1.0000
  H   H502      1.0  0.14042  0.75079  0.11848  1.0000
  H   H503      1.0  0.11179  0.68011  0.07886  1.0000
  H   H504      1.0  0.09794  0.64371  0.10502  1.0000
  H   H505      1.0  0.12079  0.53269  0.28126  1.0000
  S   S80       1.0  0.07284  0.53627  0.20577  1.0000
  C   C287      1.0  0.11342  0.52704  0.31082  1.0000
  C   C288      1.0  0.34428  0.96739  0.25041  1.0000
  H   H506      1.0  0.44758  0.62564  0.29494  1.0000
  N   N15       1.0  0.34848  0.94087  0.09199  1.0000
  H   H507      1.0  0.22449  0.51527  0.30403  1.0000
  H   H508      1.0  0.32761  0.89842  0.06158  1.0000
  H   H509      1.0  0.05910  0.53853  0.24530  1.0000
  H   H510      1.0  0.48348  0.79182  0.30514  1.0000
  C   C289      1.0  0.31762  0.92495  0.08718  1.0000
  H   H511      1.0  0.17307  0.53093  0.25510  1.0000
  H   H512      1.0  0.06382  0.51876  0.30424  1.0000
  C   C290      1.0  0.22093  0.85236  0.00079  1.0000
  C   C291      1.0  0.19002  0.84353  0.99645  1.0000
  H   H513      1.0  0.09046  0.77012  0.02782  1.0000
  H   H514      1.0  0.22684  0.85906  0.01500  1.0000
  C   C292      1.0  0.07425  0.50652  0.22370  1.0000
  C   C293      1.0  0.06860  0.49261  0.25715  1.0000
  H   H515      1.0  0.32522  0.98101  0.20422  1.0000
  N   N16       1.0  0.02933  0.73786  0.13185  1.0000
  S   S81       1.0  0.05541  0.51283  0.15001  1.0000
  H   H516      1.0  0.25711  0.94100  0.28847  1.0000
  H   H517      1.0  0.12754  0.54739  0.31578  1.0000
  H   H518      1.0  0.36998  0.89538  0.08779  1.0000
  H   H519      1.0  0.12127  0.97270  0.14401  1.0000
  H   H520      1.0  0.05462  0.78139  0.12532  1.0000
  C   C294      1.0  0.00826  0.64879  0.12296  1.0000
  H   H521      1.0  0.12901  0.95150  0.05927  1.0000
  H   H522      1.0  0.36118  0.89603  0.12019  1.0000
  C   C295      1.0  0.31158  0.91742  0.06624  1.0000
  H   H523      1.0  0.41954  0.57436  0.29807  1.0000
  H   H524      1.0  0.16123  0.50589  0.22452  1.0000
  C   C296      1.0  0.41322  0.90039  0.06107  1.0000
  H   H525      1.0  0.16922  0.86690  0.14280  1.0000
  H   H526      1.0  0.05037  0.93100  0.14068  1.0000
  H   H527      1.0  0.99777  0.62987  0.13182  1.0000
  H   H528      1.0  0.37220  0.95605  0.11736  1.0000
  H   H529      1.0  0.15777  0.97507  0.07191  1.0000
  H   H530      1.0  0.10132  0.92157  0.14343  1.0000
  H   H531      1.0  0.10926  0.92381  0.09228  1.0000
  H   H532      1.0  0.22532  0.57632  0.28088  1.0000
  C   C297      1.0  0.11060  0.91933  0.12892  1.0000
  H   H533      1.0  0.37770  0.92947  0.14742  1.0000
  H   H534      1.0  0.20521  0.89173  0.30810  1.0000
  H   H535      1.0  0.03202  0.72462  0.16125  1.0000
  H   H536      1.0  0.02342  0.67494  0.14692  1.0000
  H   H537      1.0  0.26077  0.92431  0.06637  1.0000
  H   H538      1.0  0.07773  0.55820  0.29916  1.0000
  Fe  Fe41      1.0  0.09626  0.53269  0.13313  1.0000
  C   C298      1.0  0.37613  0.92080  0.08622  1.0000
  N   N17       1.0  0.10665  0.94983  0.11826  1.0000
  C   C299      1.0  0.11115  0.97304  0.08482  1.0000
  C   C300      1.0  0.04762  0.75891  0.11858  1.0000
  H   H539      1.0  0.00701  0.95419  0.12163  1.0000
  C   C301      1.0  0.02440  0.70659  0.12206  1.0000
  C   C302      1.0  0.01952  0.96803  0.13258  1.0000
  H   H540      1.0  0.11277  0.79147  0.01044  1.0000
  C   C303      1.0  0.03076  0.76831  0.10011  1.0000
  H   H541      1.0  0.28070  0.53364  0.15031  1.0000
  H   H542      1.0  0.06735  0.97924  0.11007  1.0000
  C   C304      1.0  0.17970  0.53346  0.29371  1.0000
  C   C305      1.0  0.33616  0.98469  0.21775  1.0000
  C   C306      1.0  0.34906  0.97327  0.08321  1.0000
  C   C307      1.0  0.05285  0.95553  0.13539  1.0000
  H   H543      1.0  0.07017  0.74738  0.11473  1.0000
  H   H544      1.0  0.45093  0.81688  0.31128  1.0000
  C   C308      1.0  0.12558  0.51407  0.29185  1.0000
  C   C309      1.0  0.16717  0.49118  0.23690  1.0000
  H   H545      1.0  0.04731  0.69776  0.11656  1.0000
  H   H546      1.0  0.06399  0.71131  0.14760  1.0000
  S   S82       1.0  0.37186  0.88339  0.30776  1.0000
  H   H547      1.0  0.34956  0.89954  0.15406  1.0000
  H   H548      1.0  0.37094  0.92583  0.05526  1.0000
  H   H549      1.0  0.20283  0.91584  0.98475  1.0000
  H   H550      1.0  0.20413  0.51795  0.12268  1.0000
  H   H551      1.0  0.22524  0.94625  0.27206  1.0000
  C   C310      1.0  0.07938  0.53818  0.30915  1.0000
  H   H552      1.0  0.06203  0.49939  0.27120  1.0000
  H   H553      1.0  0.12869  0.85883  0.13700  1.0000
  H   H554      1.0  0.39924  0.98206  0.09031  1.0000
  H   H555      1.0  0.29700  0.53144  0.18392  1.0000
  H   H556      1.0  0.26767  0.86126  0.99001  1.0000
  S   S83       1.0  0.13230  0.51040  0.11296  1.0000
  C   C311      1.0  0.33040  0.96325  0.23260  1.0000
  C   C312      1.0  0.34541  0.91503  0.12512  1.0000
  C   C313      1.0  0.27793  0.90542  0.06322  1.0000
  H   H557      1.0  0.15923  0.92430  0.13903  1.0000
  H   H558      1.0  0.32074  0.90634  0.12460  1.0000
  H   H559      1.0  0.09928  0.75172  0.00569  1.0000
  H   H560      1.0  0.28312  0.95564  0.13796  1.0000
  H   H561      1.0  0.15521  0.90206  0.11744  1.0000
  H   H562      1.0  0.09657  0.90029  0.12202  1.0000
  H   H563      1.0  0.33094  0.96227  0.11752  1.0000
  H   H564      1.0  0.27280  0.88476  0.07236  1.0000
  H   H565      1.0  0.02439  0.74737  0.09162  1.0000
  C   C314      1.0  0.21614  0.53095  0.13422  1.0000
  H   H566      1.0  0.14486  0.94201  0.09850  1.0000
  C   C315      1.0  0.16498  0.48851  0.27250  1.0000
  H   H567      1.0  0.10012  0.76914  0.18061  1.0000
  H   H568      1.0  0.13360  0.51527  0.25370  1.0000
  H   H569      1.0  0.09675  0.72772  0.17536  1.0000
  C   C316      1.0  0.15880  0.50899  0.25483  1.0000
  H   H570      1.0  0.39646  0.92464  0.09587  1.0000
  C   C317      1.0  0.14505  0.87675  0.14286  1.0000
  H   H571      1.0  0.06037  0.93829  0.10728  1.0000
  H   H572      1.0  0.48007  0.69122  0.28205  1.0000
  C   C318      1.0  0.23265  0.56111  0.29278  1.0000
  H   H573      1.0  0.40168  0.87683  0.06095  1.0000
  C   C319      1.0  0.00982  0.87149  0.12855  1.0000
  H   H574      1.0  0.17606  0.54369  0.30790  1.0000
  N   N18       1.0  0.21732  0.51073  0.15166  1.0000
  C   C320      1.0  0.19860  0.56271  0.13632  1.0000
  C   C321      1.0  0.34937  0.94529  0.11305  1.0000
  H   H575      1.0  0.33696  0.93972  0.15147  1.0000
  H   H576      1.0  0.03235  0.64134  0.11890  1.0000
  C   C322      1.0  0.06671  0.51477  0.24233  1.0000
  C   C323      1.0  0.20567  0.58495  0.11997  1.0000
  H   H577      1.0  0.06470  0.97009  0.14625  1.0000
  C   C324      1.0  0.05210  0.78902  0.08793  1.0000
  H   H578      1.0  0.24000  0.53602  0.12870  1.0000
  C   C325      1.0  0.23730  0.97233  0.10022  1.0000
  H   H579      1.0  0.01412  0.86223  0.14246  1.0000
  H   H580      1.0  0.22295  0.54046  0.17629  1.0000
  H   H581      1.0  0.30689  0.56858  0.17310  1.0000
  H   H582      1.0  0.27354  0.56606  0.18867  1.0000
  H   H583      1.0  0.38720  0.69310  0.31266  1.0000
  H   H584      1.0  0.25797  0.56800  0.15490  1.0000
  H   H585      1.0  0.22749  0.57332  0.30623  1.0000
  H   H586      1.0  0.17284  0.55833  0.13626  1.0000
  H   H587      1.0  0.20477  0.57475  0.14964  1.0000
  C   C326      1.0  0.11906  0.94577  0.09857  1.0000
  C   C327      1.0  0.14454  0.90710  0.13128  1.0000
  C   C328      1.0  0.35292  0.92146  0.14575  1.0000
  C   C329      1.0  0.04803  0.73175  0.14958  1.0000
  H   H588      1.0  0.22228  0.51775  0.27864  1.0000
  H   H589      1.0  0.26535  0.95123  0.26435  1.0000
  H   H590      1.0  0.20735  0.71100  0.99318  1.0000
  C   C330      1.0  0.99746  0.78423  0.14575  1.0000
  H   H591      1.0  0.24097  0.72763  0.00372  1.0000
  H   H592      1.0  0.06457  0.74804  0.18666  1.0000
  H   H593      1.0  0.19178  0.60688  0.12162  1.0000
  H   H594      1.0  0.23105  0.59132  0.11966  1.0000
  H   H595      1.0  0.19891  0.57373  0.10647  1.0000
  C   C331      1.0  0.24890  0.95498  0.27626  1.0000
  C   C332      1.0  0.25965  0.97720  0.11456  1.0000
  H   H596      1.0  0.43256  0.54660  0.31553  1.0000
  N   N19       1.0  0.19684  0.74121  0.01677  1.0000
  C   C333      1.0  0.07168  0.95594  0.11673  1.0000
  C   C334      1.0  0.19336  0.71233  0.02904  1.0000
  C   C335      1.0  0.16434  0.74984  0.00985  1.0000
  C   C336      1.0  0.21023  0.76851  0.02791  1.0000
  C   C337      1.0  0.24661  0.77298  0.02774  1.0000
  H   H597      1.0  0.24596  0.50599  0.17659  1.0000
  C   C338      1.0  0.13886  0.75479  0.02515  1.0000
  C   C339      1.0  0.22394  0.69844  0.03731  1.0000
  C   C340      1.0  0.21703  0.66795  0.04804  1.0000
  C   C341      1.0  0.25716  0.79736  0.04223  1.0000
  C   C342      1.0  0.47328  0.80654  0.31646  1.0000
  C   C343      1.0  0.10855  0.76782  0.01667  1.0000
  C   C344      1.0  0.99747  0.75128  0.13646  1.0000
  H   H598      1.0  0.45835  0.55691  0.29644  1.0000
  H   H599      1.0  0.17859  0.71760  0.04154  1.0000
  H   H600      1.0  0.18083  0.69331  0.02119  1.0000
  H   H601      1.0  0.15522  0.73147  0.00006  1.0000
  H   H602      1.0  0.16531  0.77219  0.00164  1.0000
  H   H603      1.0  0.20049  0.79129  0.02290  1.0000
  H   H604      1.0  0.20244  0.76675  0.04279  1.0000
  H   H605      1.0  0.25465  0.78159  0.01383  1.0000
  H   H606      1.0  0.25924  0.75085  0.03070  1.0000
  H   H607      1.0  0.29773  0.93953  0.09228  1.0000
  H   H608      1.0  0.31535  0.90187  0.09442  1.0000
  H   H609      1.0  0.14738  0.77140  0.03604  1.0000
  H   H610      1.0  0.13243  0.73212  0.03196  1.0000
  H   H611      1.0  0.24138  0.69290  0.02626  1.0000
  H   H612      1.0  0.23439  0.71519  0.04753  1.0000
  H   H613      1.0  0.20702  0.64978  0.03852  1.0000
  H   H614      1.0  0.23916  0.65871  0.05417  1.0000
  H   H615      1.0  0.20017  0.67234  0.05968  1.0000
  H   H616      1.0  0.31481  0.93840  0.05718  1.0000
  H   H617      1.0  0.24551  0.82031  0.03962  1.0000
  H   H618      1.0  0.28301  0.80096  0.04125  1.0000
  H   H619      1.0  0.43299  0.90027  0.07128  1.0000
  H   H620      1.0  0.99438  0.98423  0.30635  1.0000
  H   H621      1.0  0.27473  0.89820  0.04837  1.0000
  H   H622      1.0  0.09004  0.76186  0.14706  1.0000
  H   H623      1.0  0.25847  0.55748  0.29188  1.0000
  H   H624      1.0  0.99360  0.65137  0.11017  1.0000
  H   H625      1.0  0.05758  0.78126  0.15811  1.0000
  C   C345      1.0  0.21567  0.52927  0.29200  1.0000
  C   C346      1.0  0.06992  0.75851  0.15685  1.0000
  H   H626      1.0  0.16786  0.50015  0.14728  1.0000
  H   H627      1.0  0.25141  0.78914  0.05664  1.0000
  C   C347      1.0  0.08361  0.75026  0.17605  1.0000
  H   H628      1.0  0.17222  0.55222  0.28378  1.0000
  H   H629      1.0  0.00887  0.70930  0.10968  1.0000
  H   H630      1.0  0.07366  0.77599  0.08391  1.0000
  H   H631      1.0  0.40192  0.94893  0.06516  1.0000
  H   H632      1.0  0.21956  0.78251  0.99018  1.0000
  C   C348      1.0  0.99949  0.89646  0.09298  1.0000
  H   H633      1.0  0.34935  0.97190  0.06770  1.0000
  H   H634      1.0  0.03953  0.79595  0.07492  1.0000
  C   C349      1.0  0.13267  0.97323  0.06765  1.0000
  N   N20       1.0  0.15969  0.50425  0.29124  1.0000
  H   H635      1.0  0.18403  0.49009  0.09027  1.0000
  C   C350      1.0  0.44023  0.56618  0.30619  1.0000
  H   H636      1.0  0.00918  0.78202  0.10310  1.0000
  C   C351      1.0  0.26602  0.54537  0.16100  1.0000
  C   C352      1.0  0.28707  0.55328  0.17775  1.0000
  H   H637      1.0  0.17510  0.53014  0.16400  1.0000
  H   H638      1.0  0.05899  0.81085  0.09550  1.0000
  H   H639      1.0  0.16140  0.90690  0.98769  1.0000
  H   H640      1.0  0.99546  0.90664  0.07927  1.0000
  H   H641      1.0  0.01283  0.80123  0.13826  1.0000
  C   C353      1.0  0.18399  0.50713  0.15885  1.0000
  H   H642      1.0  0.26596  0.49243  0.12605  1.0000
  H   H643      1.0  0.00806  0.98269  0.28234  1.0000
  C   C354      1.0  0.12219  0.97695  0.12859  1.0000
  H   H644      1.0  0.08653  0.97028  0.07974  1.0000
  H   H645      1.0  0.17207  0.96418  0.12240  1.0000
  H   H646      1.0  0.24721  0.89361  0.31089  1.0000
  C   C355      1.0  0.14593  0.48626  0.18345  1.0000
  H   H647      1.0  0.19629  0.48688  0.18643  1.0000
  N   N21       1.0  0.47664  0.65047  0.31540  1.0000
  C   C356      1.0  0.15686  0.98513  0.12319  1.0000
  C   C357      1.0  0.45037  0.67422  0.31570  1.0000
  H   H648      1.0  0.04362  0.76953  0.62313  1.0000
  Fe  Fe42      1.0  0.32885  0.61508  0.39087  1.0000
  S   S84       1.0  0.29720  0.64189  0.37117  1.0000
  S   S85       1.0  0.38195  0.61272  0.38456  1.0000
  Fe  Fe43      1.0  0.27849  0.61689  0.42312  1.0000
  S   S86       1.0  0.24508  0.64504  0.40542  1.0000
  S   S87       1.0  0.27086  0.59935  0.45352  1.0000
  Fe  Fe44      1.0  0.25783  0.61062  0.38236  1.0000
  S   S88       1.0  0.21765  0.59172  0.36370  1.0000
  Fe  Fe45      1.0  0.28722  0.67359  0.39566  1.0000
  S   S89       1.0  0.29347  0.72742  0.39709  1.0000
  S   S90       1.0  0.29020  0.58152  0.40038  1.0000
  S   S91       1.0  0.31966  0.64773  0.41515  1.0000
  H   H649      1.0  0.22441  0.85441  0.33229  1.0000
  Fe  Fe46      1.0  0.33438  0.87795  0.32978  1.0000
  S   S92       1.0  0.36196  0.90319  0.35212  1.0000
  S   S93       1.0  0.30941  0.83010  0.33215  1.0000
  Fe  Fe47      1.0  0.33925  0.94746  0.34064  1.0000
  Fe  Fe48      1.0  0.39860  0.91086  0.32970  1.0000
  S   S94       1.0  0.45110  0.89860  0.33116  1.0000
  H   H650      1.0  0.41065  0.64391  0.32402  1.0000
  H   H651      1.0  0.99168  0.55576  0.56222  1.0000
  H   H652      1.0  0.37688  0.68566  0.33676  1.0000
  Fe  Fe49      1.0  0.03519  0.90570  0.64182  1.0000
  Fe  Fe50      1.0  0.10436  0.92385  0.63441  1.0000
  H   H653      1.0  0.28895  0.76565  0.33167  1.0000
  H   H654      1.0  0.46847  0.82705  0.35242  1.0000
  S   S95       1.0  0.07160  0.88711  0.62163  1.0000
  H   H655      1.0  0.28627  0.51979  0.42182  1.0000
  Fe  Fe51      1.0  0.17438  0.58237  0.59010  1.0000
  S   S96       1.0  0.14099  0.56935  0.56648  1.0000
  S   S97       1.0  0.19677  0.54334  0.60820  1.0000
  Fe  Fe52      1.0  0.15988  0.65334  0.58654  1.0000
  S   S98       1.0  0.12675  0.64377  0.56285  1.0000
  S   S99       1.0  0.16847  0.70594  0.59251  1.0000
  Fe  Fe53      1.0  0.10760  0.60368  0.58011  1.0000
  S   S100      1.0  0.05351  0.60294  0.58088  1.0000
  Fe  Fe54      1.0  0.16290  0.61071  0.55109  1.0000
  S   S101      1.0  0.16885  0.61784  0.51913  1.0000
  S   S102      1.0  0.13936  0.61471  0.60453  1.0000
  S   S103      1.0  0.19772  0.62223  0.57406  1.0000
  C   C358      1.0  0.47462  0.77239  0.37515  1.0000
  C   C359      1.0  0.23285  0.52206  0.60730  1.0000
  C   C360      1.0  0.25781  0.53068  0.59552  1.0000
  C   C361      1.0  0.28636  0.51374  0.59602  1.0000
  C   C362      1.0  0.40569  0.83198  0.37746  1.0000
  H   H656      1.0  0.20642  0.58867  0.40504  1.0000
  H   H657      1.0  0.03262  0.63869  0.62182  1.0000
  H   H658      1.0  0.25524  0.55055  0.58614  1.0000
  H   H659      1.0  0.08930  0.50054  0.40923  1.0000
  C   C363      1.0  0.46740  0.78640  0.33392  1.0000
  C   C364      1.0  0.19018  0.53062  0.45230  1.0000
  C   C365      1.0  0.14673  0.73226  0.60702  1.0000
  C   C366      1.0  0.14663  0.76469  0.60276  1.0000
  C   C367      1.0  0.13054  0.78647  0.61423  1.0000
  C   C368      1.0  0.11496  0.77616  0.63043  1.0000
  C   C369      1.0  0.11565  0.74387  0.63491  1.0000
  C   C370      1.0  0.13106  0.72201  0.62319  1.0000
  H   H660      1.0  0.15898  0.77302  0.59042  1.0000
  H   H661      1.0  0.13046  0.81123  0.61061  1.0000
  H   H662      1.0  0.08048  0.61471  0.63417  1.0000
  H   H663      1.0  0.13153  0.69731  0.62689  1.0000
  C   C371      1.0  0.00516  0.68379  0.60102  1.0000
  C   C372      1.0  0.01614  0.55204  0.62450  1.0000
  C   C373      1.0  0.03790  0.56543  0.61176  1.0000
  C   C374      1.0  0.02758  0.58616  0.59783  1.0000
  H   H664      1.0  0.12975  0.54173  0.40904  1.0000
  H   H665      1.0  0.42906  0.66439  0.34342  1.0000
  H   H666      1.0  0.42987  0.74533  0.35589  1.0000
  H   H667      1.0  0.06256  0.55937  0.61256  1.0000
  H   H668      1.0  0.17266  0.56623  0.39802  1.0000
  C   C375      1.0  0.24193  0.60460  0.47145  1.0000
  C   C376      1.0  0.24672  0.59049  0.48912  1.0000
  C   C377      1.0  0.22470  0.59405  0.50384  1.0000
  C   C378      1.0  0.19734  0.61165  0.50105  1.0000
  C   C379      1.0  0.19237  0.62544  0.48331  1.0000
  C   C380      1.0  0.21454  0.62214  0.46866  1.0000
  H   H669      1.0  0.26773  0.57678  0.49148  1.0000
  H   H670      1.0  0.22886  0.58305  0.51730  1.0000
  H   H671      1.0  0.17135  0.63913  0.48093  1.0000
  H   H672      1.0  0.21054  0.63342  0.45526  1.0000
  H   H673      1.0  0.15388  0.57442  0.43325  1.0000
  C   C381      1.0  0.15091  0.52326  0.35568  1.0000
  C   C382      1.0  0.16724  0.55233  0.35635  1.0000
  C   C383      1.0  0.19823  0.55430  0.36327  1.0000
  C   C384      1.0  0.21273  0.52663  0.36943  1.0000
  C   C385      1.0  0.42192  0.66624  0.32848  1.0000
  H   H674      1.0  0.12665  0.52250  0.35125  1.0000
  H   H675      1.0  0.15556  0.57359  0.35181  1.0000
  H   H676      1.0  0.23663  0.52765  0.37459  1.0000
  H   H677      1.0  0.29610  0.67880  0.47247  1.0000
  C   C386      1.0  0.30904  0.80074  0.35003  1.0000
  C   C387      1.0  0.31851  0.80707  0.36845  1.0000
  C   C388      1.0  0.31430  0.78410  0.38260  1.0000
  C   C389      1.0  0.30131  0.75429  0.37845  1.0000
  C   C390      1.0  0.29304  0.74756  0.35989  1.0000
  C   C391      1.0  0.29652  0.77080  0.34585  1.0000
  H   H678      1.0  0.32822  0.82992  0.37190  1.0000
  H   H679      1.0  0.32076  0.78956  0.39692  1.0000
  H   H680      1.0  0.28284  0.72486  0.35648  1.0000
  H   H681      1.0  0.22260  0.92431  0.32069  1.0000
  C   C392      1.0  0.45568  0.54713  0.35752  1.0000
  C   C393      1.0  0.46434  0.57618  0.36528  1.0000
  C   C394      1.0  0.44138  0.59563  0.37354  1.0000
  C   C395      1.0  0.40948  0.58652  0.37412  1.0000
  C   C396      1.0  0.40082  0.55742  0.36643  1.0000
  C   C397      1.0  0.42385  0.53778  0.35829  1.0000
  C   C398      1.0  0.08487  0.72052  0.56843  1.0000
  H   H682      1.0  0.44832  0.61786  0.37969  1.0000
  H   H683      1.0  0.37643  0.54999  0.36680  1.0000
  H   H684      1.0  0.41688  0.51531  0.35242  1.0000
  C   C399      1.0  0.45281  0.80645  0.34983  1.0000
  S   S104      1.0  0.14271  0.94678  0.61614  1.0000
  H   H685      1.0  0.07086  0.54611  0.32309  1.0000
  C   C400      1.0  0.39667  0.69166  0.32716  1.0000
  H   H686      1.0  0.22258  0.53874  0.40864  1.0000
  H   H687      1.0  0.17147  0.63244  0.41574  1.0000
  H   H688      1.0  0.17560  0.96776  0.38047  1.0000
  C   C401      1.0  0.07566  0.63989  0.63723  1.0000
  C   C402      1.0  0.17854  0.57105  0.42866  1.0000
  H   H689      1.0  0.45943  0.69792  0.31970  1.0000
  H   H690      1.0  0.09779  0.70503  0.55861  1.0000
  H   H691      1.0  0.30550  0.52074  0.58688  1.0000
  C   C403      1.0  0.38225  0.72345  0.37653  1.0000
  H   H692      1.0  0.44481  0.90261  0.37222  1.0000
  H   H693      1.0  0.14255  0.53264  0.49233  1.0000
  H   H694      1.0  0.06722  0.73384  0.56017  1.0000
  N   N22       1.0  0.02800  0.70574  0.61078  1.0000
  C   C404      1.0  0.13867  0.98497  0.56057  1.0000
  H   H695      1.0  0.14910  0.55825  0.46186  1.0000
  C   C405      1.0  0.16495  0.52957  0.48452  1.0000
  H   H696      1.0  0.10194  0.73728  0.57481  1.0000
  S   S105      1.0  0.09423  0.80219  0.64561  1.0000
  H   H697      1.0  0.36438  0.73163  0.36627  1.0000
  C   C406      1.0  0.40460  0.75033  0.38191  1.0000
  H   H698      1.0  0.16696  0.62319  0.39120  1.0000
  H   H699      1.0  0.41336  0.86810  0.39873  1.0000
  C   C407      1.0  0.22158  0.87968  0.33601  1.0000
  H   H700      1.0  0.19752  0.88276  0.34171  1.0000
  H   H701      1.0  0.14191  0.51629  0.45917  1.0000
  H   H702      1.0  0.19818  0.96906  0.59730  1.0000
  H   H703      1.0  0.43257  0.80162  0.39630  1.0000
  H   H704      1.0  0.12397  0.48675  0.39738  1.0000
  N   N23       1.0  0.24847  0.68667  0.52441  1.0000
  C   C408      1.0  0.21468  0.69685  0.52218  1.0000
  C   C409      1.0  0.26139  0.67789  0.50537  1.0000
  C   C410      1.0  0.24838  0.65731  0.53647  1.0000
  C   C411      1.0  0.26897  0.71133  0.53377  1.0000
  C   C412      1.0  0.26048  0.74641  0.53026  1.0000
  C   C413      1.0  0.19593  0.70057  0.54075  1.0000
  C   C414      1.0  0.27998  0.63938  0.53798  1.0000
  C   C415      1.0  0.26318  0.70437  0.49045  1.0000
  C   C416      1.0  0.27328  0.69133  0.47138  1.0000
  C   C417      1.0  0.28621  0.76843  0.53767  1.0000
  C   C418      1.0  0.16553  0.71887  0.53772  1.0000
  C   C419      1.0  0.27859  0.61425  0.55336  1.0000
  H   H705      1.0  0.20148  0.67942  0.51347  1.0000
  H   H706      1.0  0.21296  0.71919  0.51422  1.0000
  H   H707      1.0  0.28590  0.66912  0.50656  1.0000
  H   H708      1.0  0.24736  0.65812  0.49938  1.0000
  H   H709      1.0  0.23042  0.64020  0.53137  1.0000
  H   H710      1.0  0.24117  0.66315  0.55107  1.0000
  H   H711      1.0  0.26866  0.70841  0.54932  1.0000
  H   H712      1.0  0.29404  0.70788  0.52971  1.0000
  H   H713      1.0  0.23835  0.75248  0.53765  1.0000
  H   H714      1.0  0.25698  0.75175  0.51523  1.0000
  H   H715      1.0  0.18923  0.67698  0.54627  1.0000
  H   H716      1.0  0.21003  0.71272  0.55169  1.0000
  H   H717      1.0  0.29970  0.65576  0.54118  1.0000
  H   H718      1.0  0.28507  0.62694  0.52462  1.0000
  H   H719      1.0  0.24019  0.71604  0.48842  1.0000
  H   H720      1.0  0.28118  0.72206  0.49460  1.0000
  H   H721      1.0  0.27606  0.71092  0.46115  1.0000
  H   H722      1.0  0.17645  0.97272  0.54169  1.0000
  C   C420      1.0  0.18139  0.58367  0.40834  1.0000
  H   H723      1.0  0.30871  0.76436  0.53013  1.0000
  H   H724      1.0  0.27917  0.79331  0.53542  1.0000
  H   H725      1.0  0.28983  0.76466  0.55295  1.0000
  H   H726      1.0  0.15286  0.72094  0.55129  1.0000
  H   H727      1.0  0.17068  0.74297  0.53245  1.0000
  H   H728      1.0  0.15005  0.70626  0.52761  1.0000
  H   H729      1.0  0.25925  0.59715  0.55052  1.0000
  H   H730      1.0  0.30114  0.60118  0.55376  1.0000
  H   H731      1.0  0.27476  0.62525  0.56731  1.0000
  H   H732      1.0  0.47006  0.63275  0.34371  1.0000
  H   H733      1.0  0.11409  0.50833  0.32162  1.0000
  C   C421      1.0  0.29051  0.48815  0.60836  1.0000
  H   H734      1.0  0.20842  0.54593  0.45904  1.0000
  H   H735      1.0  0.18636  0.76741  0.64223  1.0000
  C   C422      1.0  0.19657  0.49746  0.36843  1.0000
  C   C423      1.0  0.99542  0.59382  0.59712  1.0000
  H   H736      1.0  0.38602  0.81638  0.37316  1.0000
  C   C424      1.0  0.02806  0.75512  0.63229  1.0000
  C   C425      1.0  0.13625  0.95027  0.56617  1.0000
  C   C426      1.0  0.39463  0.85137  0.39422  1.0000
  H   H737      1.0  0.04278  0.74332  0.64301  1.0000
  H   H738      1.0  0.45132  0.76686  0.32990  1.0000
  C   C427      1.0  0.16313  0.61423  0.40569  1.0000
  N   N24       1.0  0.24109  0.87851  0.37038  1.0000
  C   C428      1.0  0.24708  0.88944  0.35054  1.0000
  C   C429      1.0  0.27037  0.88422  0.38194  1.0000
  C   C430      1.0  0.23553  0.84327  0.36968  1.0000
  C   C431      1.0  0.21279  0.89409  0.37925  1.0000
  C   C432      1.0  0.20528  0.92836  0.37291  1.0000
  H   H739      1.0  0.09845  0.65278  0.63765  1.0000
  C   C433      1.0  0.23408  0.82592  0.38884  1.0000
  C   C434      1.0  0.28132  0.91881  0.38417  1.0000
  C   C435      1.0  0.31180  0.92088  0.39551  1.0000
  C   C436      1.0  0.18083  0.94362  0.38566  1.0000
  C   C437      1.0  0.22179  0.79221  0.38656  1.0000
  H   H740      1.0  0.26981  0.87983  0.34538  1.0000
  H   H741      1.0  0.25031  0.91533  0.34982  1.0000
  H   H742      1.0  0.26707  0.87549  0.39651  1.0000
  H   H743      1.0  0.29036  0.87069  0.37591  1.0000
  H   H744      1.0  0.25423  0.83166  0.36123  1.0000
  H   H745      1.0  0.21304  0.83784  0.36233  1.0000
  H   H746      1.0  0.19094  0.88021  0.37646  1.0000
  H   H747      1.0  0.21518  0.89400  0.39482  1.0000
  H   H748      1.0  0.19562  0.92848  0.35845  1.0000
  H   H749      1.0  0.22627  0.94379  0.37284  1.0000
  C   C438      1.0  0.19967  0.78986  0.64386  1.0000
  H   H750      1.0  0.33076  0.90725  0.38867  1.0000
  H   H751      1.0  0.21853  0.83840  0.39885  1.0000
  H   H752      1.0  0.25802  0.82421  0.39500  1.0000
  H   H753      1.0  0.28575  0.92995  0.37037  1.0000
  H   H754      1.0  0.26360  0.93251  0.39207  1.0000
  H   H755      1.0  0.30811  0.91175  0.40996  1.0000
  H   H756      1.0  0.01758  0.66383  0.59431  1.0000
  H   H757      1.0  0.31955  0.94588  0.39645  1.0000
  H   H758      1.0  0.43088  0.81678  0.34395  1.0000
  H   H759      1.0  0.46976  0.76193  0.38918  1.0000
  H   H760      1.0  0.22431  0.78592  0.63929  1.0000
  C   C439      1.0  0.42031  0.76515  0.36428  1.0000
  H   H761      1.0  0.23637  0.77910  0.37628  1.0000
  H   H762      1.0  0.22304  0.77965  0.40022  1.0000
  H   H763      1.0  0.19694  0.79218  0.38173  1.0000
  H   H764      1.0  0.18215  0.54715  0.48988  1.0000
  N   N25       1.0  0.18891  0.53746  0.43150  1.0000
  C   C440      1.0  0.04602  0.68817  0.62583  1.0000
  H   H765      1.0  0.38821  0.83568  0.40613  1.0000
  C   C441      1.0  0.05014  0.72186  0.59720  1.0000
  C   C442      1.0  0.46832  0.89475  0.36891  1.0000
  H   H766      1.0  0.42237  0.74065  0.39169  1.0000
  C   C443      1.0  0.06880  0.70059  0.58359  1.0000
  C   C444      1.0  0.05439  0.65330  0.62195  1.0000
  C   C445      1.0  0.22215  0.53481  0.42407  1.0000
  H   H767      1.0  0.06826  0.70074  0.62918  1.0000
  C   C446      1.0  0.22441  0.89864  0.31786  1.0000
  C   C447      1.0  0.00895  0.73100  0.62040  1.0000
  H   H768      1.0  0.03720  0.73962  0.58872  1.0000
  H   H769      1.0  0.18911  0.80800  0.63458  1.0000
  H   H770      1.0  0.99589  0.74537  0.60998  1.0000
  H   H771      1.0  0.40119  0.77524  0.35545  1.0000
  S   S106      1.0  0.30915  0.92166  0.31986  1.0000
  H   H772      1.0  0.26131  0.97191  0.34069  1.0000
  H   H773      1.0  0.19280  0.58711  0.43766  1.0000
  H   H774      1.0  0.06826  0.73576  0.60489  1.0000
  H   H775      1.0  0.37352  0.86510  0.39021  1.0000
  H   H776      1.0  0.08757  0.68802  0.59135  1.0000
  C   C448      1.0  0.15926  0.53444  0.46354  1.0000
  H   H777      1.0  0.02434  0.53572  0.63507  1.0000
  H   H778      1.0  0.13754  0.61005  0.40772  1.0000
  H   H779      1.0  0.25526  0.67478  0.46583  1.0000
  C   C449      1.0  0.26991  0.50103  0.41688  1.0000
  H   H780      1.0  0.06656  0.65055  0.60837  1.0000
  H   H781      1.0  0.40631  0.71500  0.33123  1.0000
  N   N26       1.0  0.44587  0.78928  0.36791  1.0000
  H   H782      1.0  0.45455  0.83096  0.38456  1.0000
  H   H783      1.0  0.48272  0.89086  0.39788  1.0000
  C   C450      1.0  0.23871  0.50280  0.42748  1.0000
  H   H784      1.0  0.23743  0.55363  0.43017  1.0000
  H   H785      1.0  0.26611  0.50366  0.40154  1.0000
  C   C451      1.0  0.13283  0.52198  0.41905  1.0000
  C   C452      1.0  0.16825  0.51384  0.42132  1.0000
  C   C453      1.0  0.23674  0.49599  0.61931  1.0000
  H   H786      1.0  0.12177  0.52907  0.43240  1.0000
  C   C454      1.0  0.47733  0.89145  0.35014  1.0000
  H   H787      1.0  0.16980  0.49036  0.42823  1.0000
  H   H788      1.0  0.13597  0.93501  0.55353  1.0000
  H   H789      1.0  0.98718  0.60971  0.58639  1.0000
  H   H790      1.0  0.15637  0.94351  0.57522  1.0000
  H   H791      1.0  0.05363  0.68320  0.57630  1.0000
  H   H792      1.0  0.17002  0.49400  0.32042  1.0000
  H   H793      1.0  0.03240  0.68757  0.63921  1.0000
  H   H794      1.0  0.39551  0.70344  0.37044  1.0000
  C   C455      1.0  0.43574  0.81306  0.38236  1.0000
  H   H795      1.0  0.18996  0.94564  0.40021  1.0000
  H   H796      1.0  0.36965  0.71475  0.38921  1.0000
  H   H797      1.0  0.21738  0.48878  0.62821  1.0000
  H   H798      1.0  0.17703  0.50992  0.40677  1.0000
  S   S107      1.0  0.48377  0.52181  0.34682  1.0000
  H   H799      1.0  0.39052  0.76812  0.38956  1.0000
  H   H800      1.0  0.41058  0.84865  0.36577  1.0000
  H   H801      1.0  0.15862  0.92968  0.38571  1.0000
  Fe  Fe55      1.0  0.08769  0.85595  0.64531  1.0000
  H   H802      1.0  0.47374  0.58313  0.32615  1.0000
  H   H803      1.0  0.11416  0.94615  0.57417  1.0000
  C   C456      1.0  0.00635  0.77793  0.64253  1.0000
  H   H804      1.0  0.10418  0.73566  0.64757  1.0000
  H   H805      1.0  0.22130  0.58726  0.63888  1.0000
  H   H806      1.0  0.26205  0.54193  0.64545  1.0000
  H   H807      1.0  0.99173  0.79122  0.63234  1.0000
  H   H808      1.0  0.19756  0.50592  0.45486  1.0000
  H   H809      1.0  0.35512  0.51644  0.64089  1.0000
  C   C457      1.0  0.11433  0.49393  0.41122  1.0000
  C   C458      1.0  0.15943  0.98535  0.61415  1.0000
  C   C459      1.0  0.16568  0.49545  0.36131  1.0000
  H   H810      1.0  0.24433  0.49977  0.44258  1.0000
  H   H811      1.0  0.43551  0.60037  0.32813  1.0000
  H   H812      1.0  0.22632  0.98136  0.53338  1.0000
  H   H813      1.0  0.17396  0.50551  0.48731  1.0000
  H   H814      1.0  0.48043  0.75195  0.36603  1.0000
  S   S108      1.0  0.37839  0.95735  0.31985  1.0000
  C   C460      1.0  0.45382  0.59296  0.31806  1.0000
  H   H815      1.0  0.99089  0.71994  0.62969  1.0000
  H   H816      1.0  0.98923  0.67255  0.61156  1.0000
  H   H817      1.0  0.99870  0.71123  0.57494  1.0000
  H   H818      1.0  0.98655  0.87208  0.60697  1.0000
  H   H819      1.0  0.02077  0.79519  0.65056  1.0000
  Fe  Fe56      1.0  0.28282  0.78847  0.88825  1.0000
  S   S109      1.0  0.31414  0.81263  0.90918  1.0000
  S   S110      1.0  0.29121  0.73499  0.88783  1.0000
  Fe  Fe57      1.0  0.25198  0.85185  0.87840  1.0000
  S   S111      1.0  0.28297  0.87957  0.89823  1.0000
  S   S112      1.0  0.21049  0.86992  0.86076  1.0000
  Fe  Fe58      1.0  0.32289  0.84961  0.88712  1.0000
  S   S113      1.0  0.37634  0.85898  0.88543  1.0000
  Fe  Fe59      1.0  0.27224  0.84025  0.91876  1.0000
  S   S114      1.0  0.26665  0.84998  0.95039  1.0000
  S   S115      1.0  0.29268  0.82443  0.86576  1.0000
  S   S116      1.0  0.23997  0.81359  0.89944  1.0000
  H   H820      1.0  0.03234  0.95426  0.69502  1.0000
  Fe  Fe60      1.0  0.39859  0.56108  0.83976  1.0000
  S   S117      1.0  0.38426  0.58289  0.81226  1.0000
  S   S118      1.0  0.43690  0.58217  0.85882  1.0000
  S   S119      1.0  0.31965  0.53932  0.81363  1.0000
  Fe  Fe61      1.0  0.36942  0.53374  0.80323  1.0000
  Fe  Fe62      1.0  0.33591  0.58661  0.82503  1.0000
  S   S120      1.0  0.30709  0.63189  0.82303  1.0000
  S   S121      1.0  0.35065  0.56707  0.85272  1.0000
  C   C461      1.0  0.18629  0.90729  0.70319  1.0000
  H   H821      1.0  0.11557  0.83793  0.68218  1.0000
  H   H822      1.0  0.11437  0.91012  0.80915  1.0000
  H   H823      1.0  0.16123  0.87051  0.71765  1.0000
  H   H824      1.0  0.25645  0.95185  0.90574  1.0000
  H   H825      1.0  0.16868  0.76079  0.73677  1.0000
  Fe  Fe63      1.0  0.08253  0.91051  0.67486  1.0000
  S   S122      1.0  0.08337  0.91519  0.70720  1.0000
  H   H826      1.0  0.17552  0.92603  0.71192  1.0000
  H   H827      1.0  0.34376  0.74911  0.85806  1.0000
  H   H828      1.0  0.12144  0.83809  0.70665  1.0000
  C   C462      1.0  0.08428  0.94727  0.72351  1.0000
  H   H829      1.0  0.06557  0.96248  0.76955  1.0000
  H   H830      1.0  0.21089  0.78227  0.67275  1.0000
  S   S123      1.0  0.04945  0.87255  0.66471  1.0000
  C   C463      1.0  0.17267  0.80841  0.72539  1.0000
  H   H831      1.0  0.42251  0.80684  0.85898  1.0000
  C   C464      1.0  0.07166  0.80055  0.69838  1.0000
  H   H832      1.0  0.19720  0.95914  0.75910  1.0000
  C   C465      1.0  0.23679  0.84573  0.96785  1.0000
  S   S124      1.0  0.38687  0.51167  0.83028  1.0000
  H   H833      1.0  0.14804  0.81400  0.72917  1.0000
  H   H834      1.0  0.34608  0.77526  0.81735  1.0000
  H   H835      1.0  0.20014  0.82949  0.94937  1.0000
  C   C466      1.0  0.18990  0.90640  0.85983  1.0000
  C   C467      1.0  0.20162  0.93400  0.86804  1.0000
  C   C468      1.0  0.18433  0.96228  0.86689  1.0000
  C   C469      1.0  0.15508  0.96341  0.85760  1.0000
  C   C470      1.0  0.14341  0.93579  0.84940  1.0000
  C   C471      1.0  0.16084  0.90761  0.85037  1.0000
  H   H836      1.0  0.22405  0.93357  0.87519  1.0000
  H   H837      1.0  0.29552  0.52080  0.70039  1.0000
  H   H838      1.0  0.12049  0.93582  0.84284  1.0000
  H   H839      1.0  0.15141  0.88638  0.84406  1.0000
  C   C472      1.0  0.40597  0.87438  0.87010  1.0000
  C   C473      1.0  0.39890  0.89093  0.85365  1.0000
  C   C474      1.0  0.42337  0.90392  0.84255  1.0000
  C   C475      1.0  0.45525  0.90007  0.84749  1.0000
  C   C476      1.0  0.46232  0.88277  0.86366  1.0000
  C   C477      1.0  0.43785  0.87029  0.87493  1.0000
  H   H840      1.0  0.37458  0.89441  0.84973  1.0000
  H   H841      1.0  0.41753  0.91733  0.83014  1.0000
  C   C478      1.0  0.48303  0.87810  0.78278  1.0000
  H   H842      1.0  0.44370  0.85766  0.88763  1.0000
  C   C479      1.0  0.29578  0.70717  0.86935  1.0000
  C   C480      1.0  0.30792  0.67725  0.87366  1.0000
  C   C481      1.0  0.31213  0.65430  0.85960  1.0000
  C   C482      1.0  0.30366  0.66072  0.84104  1.0000
  C   C483      1.0  0.29128  0.69056  0.83672  1.0000
  C   C484      1.0  0.28760  0.71377  0.85074  1.0000
  H   H843      1.0  0.31439  0.67187  0.88798  1.0000
  H   H844      1.0  0.32187  0.63162  0.86313  1.0000
  H   H845      1.0  0.28449  0.69576  0.82243  1.0000
  H   H846      1.0  0.27804  0.73658  0.84720  1.0000
  N   N27       1.0  0.24714  0.58006  0.87878  1.0000
  C   C485      1.0  0.27983  0.56684  0.88114  1.0000
  C   C486      1.0  0.24049  0.58670  0.85828  1.0000
  C   C487      1.0  0.24629  0.61112  0.88917  1.0000
  C   C488      1.0  0.22224  0.55874  0.88711  1.0000
  H   H847      1.0  0.00507  0.94910  0.67678  1.0000
  C   C489      1.0  0.28998  0.55880  0.90149  1.0000
  C   C490      1.0  0.21638  0.63149  0.88631  1.0000
  C   C491      1.0  0.25443  0.56379  0.84357  1.0000
  C   C492      1.0  0.23975  0.56902  0.82425  1.0000
  H   H848      1.0  0.26595  0.49524  0.80250  1.0000
  C   C493      1.0  0.10432  0.92854  0.79987  1.0000
  C   C494      1.0  0.21955  0.66300  0.89655  1.0000
  H   H849      1.0  0.29733  0.58384  0.87533  1.0000
  H   H850      1.0  0.28308  0.54497  0.87288  1.0000
  H   H851      1.0  0.21464  0.58818  0.85587  1.0000
  H   H852      1.0  0.25029  0.61022  0.85418  1.0000
  H   H853      1.0  0.26693  0.62596  0.88510  1.0000
  H   H854      1.0  0.24828  0.60737  0.90456  1.0000
  H   H855      1.0  0.22470  0.55772  0.90264  1.0000
  H   H856      1.0  0.19843  0.56861  0.88465  1.0000
  H   H857      1.0  0.26338  0.94018  0.77273  1.0000
  H   H858      1.0  0.32299  0.50515  0.75819  1.0000
  H   H859      1.0  0.28989  0.57996  0.91058  1.0000
  H   H860      1.0  0.05833  0.77834  0.70083  1.0000
  H   H861      1.0  0.19524  0.61926  0.89191  1.0000
  H   H862      1.0  0.21231  0.63696  0.87128  1.0000
  H   H863      1.0  0.28011  0.56825  0.84235  1.0000
  H   H864      1.0  0.25112  0.53875  0.84734  1.0000
  H   H865      1.0  0.24403  0.59360  0.81944  1.0000
  H   H866      1.0  0.17452  0.51408  0.89130  1.0000
  C   C495      1.0  0.21724  0.75861  0.98414  1.0000
  H   H867      1.0  0.21920  0.55908  0.67884  1.0000
  H   H868      1.0  0.26058  0.58354  0.69439  1.0000
  H   H869      1.0  0.42611  0.74818  0.84550  1.0000
  C   C496      1.0  0.36025  0.52736  0.65474  1.0000
  H   H870      1.0  0.15027  0.96072  0.90017  1.0000
  C   C497      1.0  0.33991  0.49379  0.74918  1.0000
  H   H871      1.0  0.23977  0.67679  0.89089  1.0000
  H   H872      1.0  0.19786  0.67705  0.89448  1.0000
  H   H873      1.0  0.22302  0.65926  0.91183  1.0000
  C   C498      1.0  0.21176  0.97094  0.78815  1.0000
  H   H874      1.0  0.18947  0.91669  0.68875  1.0000
  H   H875      1.0  0.24284  0.73003  0.96385  1.0000
  H   H876      1.0  0.10558  0.98115  0.70493  1.0000
  C   C499      1.0  0.39100  0.68985  0.85821  1.0000
  H   H877      1.0  0.15296  0.82089  0.66053  1.0000
  H   H878      1.0  0.36919  0.68946  0.84963  1.0000
  H   H879      1.0  0.46299  0.95923  0.74586  1.0000
  H   H880      1.0  0.39351  0.63912  0.85484  1.0000
  C   C500      1.0  0.18366  0.78215  0.73849  1.0000
  H   H881      1.0  0.37176  0.73904  0.84051  1.0000
  C   C501      1.0  0.17589  0.79852  0.70459  1.0000
  H   H882      1.0  0.25478  0.52822  0.70150  1.0000
  H   H883      1.0  0.41840  0.65446  0.87319  1.0000
  H   H884      1.0  0.27418  0.54063  0.90766  1.0000
  C   C502      1.0  0.34085  0.79082  0.82947  1.0000
  H   H885      1.0  0.20161  0.79648  0.70203  1.0000
  H   H886      1.0  0.24652  0.48936  0.65753  1.0000
  H   H887      1.0  0.09771  0.95593  0.88602  1.0000
  C   C503      1.0  0.10667  0.79333  0.69624  1.0000
  C   C504      1.0  0.46871  0.93584  0.77973  1.0000
  H   H888      1.0  0.18184  0.79012  0.75330  1.0000
  H   H889      1.0  0.46559  0.65897  0.81581  1.0000
  H   H890      1.0  0.15899  0.82832  0.97425  1.0000
  C   C505      1.0  0.27640  0.53436  0.69338  1.0000
  H   H891      1.0  0.44586  0.92884  0.77321  1.0000
  H   H892      1.0  0.38656  0.79440  0.88132  1.0000
  H   H893      1.0  0.20858  0.77603  0.73560  1.0000
  H   H894      1.0  0.06454  0.91931  0.74594  1.0000
  H   H895      1.0  0.10902  0.77738  0.68406  1.0000
  H   H896      1.0  0.99689  0.93828  0.71919  1.0000
  H   H897      1.0  0.13908  0.95363  0.93283  1.0000
  C   C506      1.0  0.32343  0.54577  0.90195  1.0000
  C   C507      1.0  0.40305  0.76195  0.90271  1.0000
  C   C508      1.0  0.40326  0.78985  0.91624  1.0000
  H   H898      1.0  0.39232  0.74146  0.91012  1.0000
  H   H899      1.0  0.42780  0.75589  0.89944  1.0000
  H   H900      1.0  0.14841  0.94643  0.96305  1.0000
  H   H901      1.0  0.41667  0.78369  0.92908  1.0000
  H   H902      1.0  0.41458  0.81075  0.90962  1.0000
  H   H903      1.0  0.37890  0.79600  0.92040  1.0000
  N   N28       1.0  0.27328  0.52412  0.67311  1.0000
  H   H904      1.0  0.06759  0.81664  0.71042  1.0000
  H   H905      1.0  0.11414  0.78043  0.70902  1.0000
  H   H906      1.0  0.42916  0.98294  0.76893  1.0000
  C   C509      1.0  0.19861  0.50408  0.89125  1.0000
  C   C510      1.0  0.21333  0.95038  0.77016  1.0000
  C   C511      1.0  0.00721  0.95781  0.69147  1.0000
  C   C512      1.0  0.28229  0.56992  0.69721  1.0000
  H   H907      1.0  0.18963  0.95518  0.96005  1.0000
  H   H908      1.0  0.20959  0.53851  0.65749  1.0000
  H   H909      1.0  0.98547  0.89655  0.68454  1.0000
  H   H910      1.0  0.29481  0.60107  0.72025  1.0000
  H   H911      1.0  0.42250  0.96491  0.80066  1.0000
  H   H912      1.0  0.33016  0.54023  0.91664  1.0000
  C   C513      1.0  0.42483  0.75439  0.86066  1.0000
  C   C514      1.0  0.07359  0.94226  0.74201  1.0000
  H   H913      1.0  0.21339  0.82275  0.66519  1.0000
  H   H914      1.0  0.37115  0.50971  0.66418  1.0000
  H   H915      1.0  0.45980  0.87074  0.77709  1.0000
  H   H916      1.0  0.47496  0.62445  0.82950  1.0000
  C   C515      1.0  0.30477  0.51406  0.66538  1.0000
  H   H917      1.0  0.31766  0.78393  0.83544  1.0000
  H   H918      1.0  0.31539  0.49548  0.67433  1.0000
  H   H919      1.0  0.20627  0.92577  0.77357  1.0000
  H   H920      1.0  0.41125  0.69491  0.84884  1.0000
  C   C516      1.0  0.15840  0.95305  0.79513  1.0000
  H   H921      1.0  0.06250  0.81162  0.68537  1.0000
  H   H922      1.0  0.44175  0.73819  0.86763  1.0000
  C   C517      1.0  0.46869  0.64977  0.83028  1.0000
  H   H923      1.0  0.19345  0.96360  0.92893  1.0000
  H   H924      1.0  0.27263  0.56666  0.72726  1.0000
  H   H925      1.0  0.22818  0.50179  0.67861  1.0000
  H   H926      1.0  0.37631  0.65132  0.87669  1.0000
  H   H927      1.0  0.44521  0.79232  0.87806  1.0000
  C   C518      1.0  0.09616  0.97707  0.71881  1.0000
  C   C519      1.0  0.36676  0.78838  0.84428  1.0000
  C   C520      1.0  0.10119  0.94925  0.90096  1.0000
  H   H928      1.0  0.31379  0.56325  0.72107  1.0000
  H   H929      1.0  0.15678  0.94090  0.78134  1.0000
  C   C521      1.0  0.19920  0.80079  0.66430  1.0000
  N   N29       1.0  0.17311  0.91652  0.92887  1.0000
  C   C522      1.0  0.14162  0.93126  0.92489  1.0000
  C   C523      1.0  0.17484  0.90831  0.94944  1.0000
  C   C524      1.0  0.19868  0.93963  0.92349  1.0000
  C   C525      1.0  0.17760  0.88662  0.91768  1.0000
  C   C526      1.0  0.14939  0.86316  0.91770  1.0000
  C   C527      1.0  0.13550  0.94009  0.90409  1.0000
  C   C528      1.0  0.23246  0.93084  0.92980  1.0000
  C   C529      1.0  0.17240  0.93627  0.96335  1.0000
  C   C530      1.0  0.24451  0.75363  0.97051  1.0000
  C   C531      1.0  0.15768  0.83266  0.90754  1.0000
  C   C532      1.0  0.22473  0.55729  0.66367  1.0000
  C   C533      1.0  0.25688  0.95325  0.92130  1.0000
  H   H930      1.0  0.20729  0.50198  0.90589  1.0000
  H   H931      1.0  0.12217  0.91584  0.93007  1.0000
  H   H932      1.0  0.15574  0.89154  0.95334  1.0000
  H   H933      1.0  0.19703  0.89560  0.95250  1.0000
  H   H934      1.0  0.37742  0.54687  0.65261  1.0000
  H   H935      1.0  0.19937  0.94249  0.90797  1.0000
  H   H936      1.0  0.18339  0.89200  0.90275  1.0000
  H   H937      1.0  0.19839  0.87343  0.92294  1.0000
  H   H938      1.0  0.12883  0.87338  0.91035  1.0000
  H   H939      1.0  0.14217  0.85687  0.93217  1.0000
  H   H940      1.0  0.08526  0.92913  0.90422  1.0000
  H   H941      1.0  0.14098  0.92054  0.89436  1.0000
  H   H942      1.0  0.23849  0.90660  0.92543  1.0000
  H   H943      1.0  0.23479  0.93221  0.94529  1.0000
  H   H944      1.0  0.34047  0.56333  0.89630  1.0000
  H   H945      1.0  0.11253  0.97668  0.79193  1.0000
  H   H946      1.0  0.44594  0.65158  0.83780  1.0000
  H   H947      1.0  0.07981  0.93324  0.80445  1.0000
  C   C534      1.0  0.46901  0.79234  0.85161  1.0000
  H   H948      1.0  0.17612  0.81978  0.91540  1.0000
  H   H949      1.0  0.13652  0.81727  0.90660  1.0000
  H   H950      1.0  0.16615  0.83769  0.89307  1.0000
  H   H951      1.0  0.24428  0.51316  0.87991  1.0000
  H   H952      1.0  0.12238  0.96722  0.81574  1.0000
  H   H953      1.0  0.16865  0.93571  0.80517  1.0000
  H   H954      1.0  0.28074  0.94648  0.92616  1.0000
  H   H955      1.0  0.40639  0.70894  0.88466  1.0000
  C   C535      1.0  0.22093  0.52456  0.87956  1.0000
  C   C536      1.0  0.38390  0.76910  0.88466  1.0000
  H   H956      1.0  0.35851  0.76640  0.88838  1.0000
  Fe  Fe64      1.0  0.33751  0.51963  0.84095  1.0000
  H   H957      1.0  0.36512  0.71111  0.88102  1.0000
  H   H958      1.0  0.38920  0.79399  0.83706  1.0000
  N   N30       1.0  0.39175  0.74892  0.86791  1.0000
  H   H959      1.0  0.16649  0.77414  0.70287  1.0000
  C   C537      1.0  0.39507  0.65677  0.86632  1.0000
  C   C538      1.0  0.17795  0.85196  0.69024  1.0000
  S   S125      1.0  0.48497  0.91873  0.83354  1.0000
  H   H960      1.0  0.36208  0.80634  0.85520  1.0000
  H   H961      1.0  0.18777  0.82931  0.72816  1.0000
  C   C539      1.0  0.20609  0.83588  0.96362  1.0000
  H   H962      1.0  0.19026  0.59242  0.65576  1.0000
  C   C540      1.0  0.36775  0.75480  0.85270  1.0000
  H   H963      1.0  0.48161  0.87916  0.79834  1.0000
  H   H964      1.0  0.19505  0.75783  0.97590  1.0000
  H   H965      1.0  0.21402  0.56430  0.82468  1.0000
  N   N31       1.0  0.16115  0.82028  0.69044  1.0000
  H   H966      1.0  0.20332  0.84902  0.69372  1.0000
  H   H967      1.0  0.15329  0.78241  0.67033  1.0000
  H   H968      1.0  0.21175  0.52443  0.86500  1.0000
  H   H969      1.0  0.17782  0.86234  0.67585  1.0000
  H   H970      1.0  0.32498  0.52378  0.89359  1.0000
  C   C541      1.0  0.38830  0.71491  0.87397  1.0000
  H   H971      1.0  0.33935  0.81550  0.82436  1.0000
  H   H972      1.0  0.46356  0.79080  0.83640  1.0000
  C   C542      1.0  0.16468  0.87838  0.70299  1.0000
  C   C543      1.0  0.16491  0.80586  0.67117  1.0000
  C   C544      1.0  0.21590  0.58827  0.65413  1.0000
  H   H973      1.0  0.20961  0.90129  0.70921  1.0000
  C   C545      1.0  0.12622  0.82414  0.69383  1.0000
  C   C546      1.0  0.43900  0.78806  0.86316  1.0000
  H   H974      1.0  0.14162  0.88616  0.69746  1.0000
  H   H975      1.0  0.25043  0.55275  0.81391  1.0000
  H   H976      1.0  0.27363  0.57144  0.66133  1.0000
  C   C547      1.0  0.29140  0.57546  0.71771  1.0000
  H   H977      1.0  0.30115  0.57998  0.68834  1.0000
  H   H978      1.0  0.24709  0.93364  0.74968  1.0000
  C   C548      1.0  0.07428  0.96670  0.75551  1.0000
  S   S126      1.0  0.12207  0.89133  0.65713  1.0000
  H   H979      1.0  0.09488  0.96976  0.90983  1.0000
  H   H980      1.0  0.24373  0.77183  0.95929  1.0000
  C   C549      1.0  0.25139  0.49593  0.67232  1.0000
  S   S127      1.0  0.38620  0.51099  0.77554  1.0000
  H   H981      1.0  0.10360  0.91970  0.78520  1.0000
  C   C550      1.0  0.12379  0.95889  0.80107  1.0000
  H   H982      1.0  0.33703  0.54870  0.67781  1.0000
  C   C551      1.0  0.24664  0.94939  0.76211  1.0000
  C   C552      1.0  0.47872  0.57981  0.85934  1.0000
  H   H983      1.0  0.30164  0.50321  0.65124  1.0000
  C   C553      1.0  0.99338  0.90092  0.69919  1.0000
  C   C554      1.0  0.37183  0.49404  0.75412  1.0000
  C   C555      1.0  0.25988  0.54924  0.66043  1.0000
  H   H984      1.0  0.32230  0.56000  0.65486  1.0000
  C   C556      1.0  0.33029  0.54009  0.66369  1.0000
  H   H985      1.0  0.19353  0.98340  0.87343  1.0000
  H   H986      1.0  0.22226  0.95677  0.79974  1.0000
  C   C557      1.0  0.17864  0.92540  0.98346  1.0000
  H   H987      1.0  0.22892  0.60831  0.66053  1.0000
  N   N32       1.0  0.47730  0.96931  0.77431  1.0000
  H   H988      1.0  0.01855  0.89456  0.70054  1.0000
  H   H989      1.0  0.18978  0.97884  0.82329  1.0000
  C   C558      1.0  0.98848  0.93538  0.70454  1.0000
  H   H990      1.0  0.25232  0.97789  0.92573  1.0000
  H   H991      1.0  0.47935  0.81599  0.85438  1.0000
  C   C559      1.0  0.48357  0.96957  0.75343  1.0000
  H   H992      1.0  0.46518  0.93399  0.79516  1.0000
  S   S128      1.0  0.06661  0.94493  0.65276  1.0000
  H   H993      1.0  0.48225  0.60914  0.88393  1.0000
  H   H994      1.0  0.48351  0.55041  0.83497  1.0000
  C   C560      1.0  0.18280  0.83525  0.97779  1.0000
  H   H995      1.0  0.06404  0.64134  0.65117  1.0000
  N   N33       1.0  0.17933  0.98191  0.79364  1.0000
  H   H996      1.0  0.25434  0.97330  0.75762  1.0000
  H   H997      1.0  0.26742  0.75597  0.97790  1.0000
  H   H998      1.0  0.99098  0.76501  0.65255  1.0000
  H   H999      1.0  0.26285  0.49005  0.77749  1.0000
  H   H1000     1.0  0.62118  0.05693  0.16243  1.0000
  Fe  Fe65      1.0  0.83710  0.03056  0.30465  1.0000
  H   H1001     1.0  0.71720  0.09907  0.01782  1.0000
  Fe  Fe66      1.0  0.58891  0.43960  0.12800  1.0000
  S   S129      1.0  0.61585  0.40572  0.14619  1.0000
  Fe  Fe67      1.0  0.52434  0.41148  0.13997  1.0000
  S   S130      1.0  0.54800  0.37770  0.15964  1.0000
  Fe  Fe68      1.0  0.57943  0.41798  0.16837  1.0000
  S   S131      1.0  0.59610  0.42729  0.19872  1.0000
  Fe  Fe69      1.0  0.58169  0.36824  0.13589  1.0000
  S   S132      1.0  0.58157  0.31657  0.12586  1.0000
  S   S133      1.0  0.55364  0.45271  0.15035  1.0000
  S   S134      1.0  0.55716  0.40151  0.11608  1.0000
  Fe  Fe70      1.0  0.66696  0.08615  0.08503  1.0000
  S   S135      1.0  0.63000  0.08073  0.06219  1.0000
  S   S136      1.0  0.68640  0.03981  0.09706  1.0000
  Fe  Fe71      1.0  0.65733  0.15794  0.08687  1.0000
  S   S137      1.0  0.62080  0.15620  0.06439  1.0000
  S   S138      1.0  0.67244  0.20497  0.09987  1.0000
  Fe  Fe72      1.0  0.60075  0.11411  0.07955  1.0000
  S   S139      1.0  0.54790  0.11947  0.08575  1.0000
  Fe  Fe73      1.0  0.65334  0.12338  0.04896  1.0000
  S   S140      1.0  0.65858  0.13489  0.01742  1.0000
  S   S141      1.0  0.63627  0.11740  0.10291  1.0000
  S   S142      1.0  0.69150  0.12715  0.07084  1.0000
  C   C561      1.0  0.60762  0.28580  0.11921  1.0000
  C   C562      1.0  0.64032  0.28826  0.12102  1.0000
  C   C563      1.0  0.65977  0.26298  0.11555  1.0000
  C   C564      1.0  0.64683  0.23509  0.10802  1.0000
  C   C565      1.0  0.61412  0.23258  0.10632  1.0000
  C   C566      1.0  0.59470  0.25773  0.11190  1.0000
  H   H1002     1.0  0.65062  0.30957  0.12672  1.0000
  H   H1003     1.0  0.68503  0.26520  0.11695  1.0000
  H   H1004     1.0  0.60382  0.21129  0.10062  1.0000
  H   H1005     1.0  0.56945  0.25548  0.11046  1.0000
  C   C567      1.0  0.92334  0.39191  0.31152  1.0000
  H   H1006     1.0  0.54422  0.30661  0.16121  1.0000
  C   C568      1.0  0.52112  0.06149  0.09578  1.0000
  C   C569      1.0  0.51792  0.09424  0.09498  1.0000
  H   H1007     1.0  0.98018  0.03621  0.27752  1.0000
  H   H1008     1.0  0.56843  0.16728  0.11959  1.0000
  C   C570      1.0  0.54611  0.28208  0.18730  1.0000
  H   H1009     1.0  0.54233  0.05069  0.09050  1.0000
  C   C571      1.0  0.63144  0.03914  0.30557  1.0000
  H   H1010     1.0  0.51837  0.32175  0.17917  1.0000
  C   C572      1.0  0.59530  0.47400  0.24910  1.0000
  C   C573      1.0  0.75104  0.04341  0.10460  1.0000
  C   C574      1.0  0.72368  0.02494  0.10452  1.0000
  C   C575      1.0  0.50706  0.32582  0.10063  1.0000
  H   H1011     1.0  0.61673  0.05852  0.13178  1.0000
  H   H1012     1.0  0.58541  0.38904  0.31464  1.0000
  H   H1013     1.0  0.74979  0.06798  0.10066  1.0000
  C   C576      1.0  0.97132  0.01813  0.28757  1.0000
  H   H1014     1.0  0.83874  0.37291  0.26001  1.0000
  H   H1015     1.0  0.51936  0.34655  0.10668  1.0000
  H   H1016     1.0  0.62377  0.09934  0.16000  1.0000
  H   H1017     1.0  0.61202  0.03805  0.31600  1.0000
  C   C577      1.0  0.58444  0.45264  0.21758  1.0000
  C   C578      1.0  0.60304  0.45390  0.23395  1.0000
  H   H1018     1.0  0.48705  0.13304  0.10106  1.0000
  H   H1019     1.0  0.61855  0.28223  0.99648  1.0000
  H   H1020     1.0  0.57830  0.00790  0.11083  1.0000
  C   C579      1.0  0.68838  0.12780  0.00023  1.0000
  C   C580      1.0  0.71447  0.10893  0.00396  1.0000
  H   H1021     1.0  0.58967  0.06545  0.11294  1.0000
  H   H1022     1.0  0.80765  0.09332  0.05695  1.0000
  H   H1023     1.0  0.93674  0.06999  0.27601  1.0000
  C   C581      1.0  0.50001  0.27971  0.16466  1.0000
  H   H1024     1.0  0.83698  0.32082  0.31705  1.0000
  H   H1025     1.0  0.49437  0.33394  0.08793  1.0000
  H   H1026     1.0  0.52105  0.10565  0.16240  1.0000
  H   H1027     1.0  0.87349  0.30914  0.30743  1.0000
  C   C582      1.0  0.62678  0.08218  0.18812  1.0000
  H   H1028     1.0  0.56921  0.06005  0.17667  1.0000
  H   H1029     1.0  0.62213  0.03102  0.29182  1.0000
  H   H1030     1.0  0.49931  0.01727  0.10367  1.0000
  H   H1031     1.0  0.77031  0.48353  0.05226  1.0000
  C   C583      1.0  0.77133  0.99339  0.04137  1.0000
  H   H1032     1.0  0.61777  0.06264  0.19706  1.0000
  H   H1033     1.0  0.62049  0.10510  0.19459  1.0000
  C   C584      1.0  0.73673  0.10271  0.98970  1.0000
  H   H1034     1.0  0.83023  0.45269  0.10328  1.0000
  H   H1035     1.0  0.65925  0.44074  0.17245  1.0000
  H   H1036     1.0  0.56810  0.03124  0.14905  1.0000
  H   H1037     1.0  0.96967  0.41233  0.30690  1.0000
  H   H1038     1.0  0.88266  0.05398  0.24882  1.0000
  H   H1039     1.0  0.57435  0.19219  0.13977  1.0000
  H   H1040     1.0  0.70201  0.34963  0.07861  1.0000
  C   C585      1.0  0.89498  0.06929  0.25913  1.0000
  H   H1041     1.0  0.61942  0.01712  0.10768  1.0000
  H   H1042     1.0  0.77238  0.45133  0.11137  1.0000
  C   C586      1.0  0.82179  0.46600  0.11564  1.0000
  H   H1043     1.0  0.96909  0.27833  0.31054  1.0000
  H   H1044     1.0  0.87872  0.07457  0.27090  1.0000
  H   H1045     1.0  0.83404  0.33089  0.28448  1.0000
  H   H1046     1.0  0.81513  0.39877  0.27446  1.0000
  H   H1047     1.0  0.84139  0.98804  0.20756  1.0000
  H   H1048     1.0  0.94047  0.04906  0.25424  1.0000
  H   H1049     1.0  0.90810  0.02874  0.29109  1.0000
  H   H1050     1.0  0.77416  0.40311  0.13053  1.0000
  H   H1051     1.0  0.76835  0.05436  0.06890  1.0000
  C   C587      1.0  0.91707  0.02214  0.27700  1.0000
  H   H1052     1.0  0.90132  0.09180  0.25210  1.0000
  C   C588      1.0  0.65863  0.01802  0.31162  1.0000
  H   H1053     1.0  0.80133  0.04446  0.10926  1.0000
  C   C589      1.0  0.59978  0.01690  0.11798  1.0000
  H   H1054     1.0  0.80348  0.46610  0.07884  1.0000
  C   C590      1.0  0.55771  0.47173  0.21668  1.0000
  H   H1055     1.0  0.51676  0.28312  0.13009  1.0000
  H   H1056     1.0  0.91791  0.34170  0.30634  1.0000
  C   C591      1.0  0.82021  0.37379  0.27099  1.0000
  C   C592      1.0  0.77796  0.98958  0.06262  1.0000
  H   H1057     1.0  0.92206  0.00454  0.23917  1.0000
  H   H1058     1.0  0.62366  0.43919  0.23494  1.0000
  H   H1059     1.0  0.56555  0.29730  0.19258  1.0000
  H   H1060     1.0  0.65285  0.08059  0.18754  1.0000
  H   H1061     1.0  0.56973  0.10156  0.17725  1.0000
  N   N34       1.0  0.75017  0.02020  0.03565  1.0000
  C   C593      1.0  0.71940  0.01978  0.04631  1.0000
  C   C594      1.0  0.76692  0.05163  0.03806  1.0000
  C   C595      1.0  0.74242  0.01641  0.01507  1.0000
  H   H1062     1.0  0.64934  0.99363  0.31255  1.0000
  H   H1063     1.0  0.84006  0.46216  0.12663  1.0000
  H   H1064     1.0  0.91393  0.40247  0.29847  1.0000
  C   C596      1.0  0.77075  0.01844  0.00130  1.0000
  H   H1065     1.0  0.66034  0.45617  0.19608  1.0000
  C   C597      1.0  0.83059  0.35592  0.28854  1.0000
  H   H1066     1.0  0.96429  0.37401  0.29646  1.0000
  C   C598      1.0  0.57695  0.08108  0.16855  1.0000
  H   H1067     1.0  0.70472  0.04025  0.04199  1.0000
  H   H1068     1.0  0.96317  0.03147  0.30015  1.0000
  H   H1069     1.0  0.79273  0.04902  0.03585  1.0000
  H   H1070     1.0  0.75929  0.06866  0.02712  1.0000
  H   H1071     1.0  0.72490  0.03453  0.01073  1.0000
  C   C599      1.0  0.52582  0.08529  0.15304  1.0000
  C   C600      1.0  0.64180  0.27062  0.99509  1.0000
  H   H1072     1.0  0.75686  0.08822  0.99280  1.0000
  C   C601      1.0  0.78225  0.09920  0.05780  1.0000
  H   H1073     1.0  0.51643  0.32329  0.13699  1.0000
  H   H1074     1.0  0.51364  0.09047  0.13952  1.0000
  H   H1075     1.0  0.60613  0.00081  0.12966  1.0000
  H   H1076     1.0  0.78702  0.99845  0.00358  1.0000
  H   H1077     1.0  0.78428  0.04066  0.00306  1.0000
  H   H1078     1.0  0.60999  0.47465  0.26148  1.0000
  H   H1079     1.0  0.77606  0.11555  0.04620  1.0000
  C   C602      1.0  0.57926  0.16859  0.13377  1.0000
  S   S143      1.0  0.60919  0.47835  0.10884  1.0000
  C   C603      1.0  0.78253  0.99822  0.11516  1.0000
  H   H1080     1.0  0.72328  0.02311  0.06159  1.0000
  C   C604      1.0  0.92468  0.05325  0.26637  1.0000
  H   H1081     1.0  0.85981  0.39587  0.29660  1.0000
  H   H1082     1.0  0.59679  0.10851  0.13489  1.0000
  H   H1083     1.0  0.66012  0.28871  0.99206  1.0000
  H   H1084     1.0  0.59414  0.43033  0.31741  1.0000
  N   N35       1.0  0.56080  0.08186  0.14972  1.0000
  C   C605      1.0  0.57140  0.10975  0.13811  1.0000
  C   C606      1.0  0.56618  0.05141  0.13911  1.0000
  C   C607      1.0  0.49661  0.04259  0.10322  1.0000
  H   H1085     1.0  0.69618  0.45258  0.18279  1.0000
  H   H1086     1.0  0.81447  0.41104  0.13693  1.0000
  H   H1087     1.0  0.55942  0.10911  0.12427  1.0000
  C   C608      1.0  0.83593  0.00286  0.23649  1.0000
  C   C609      1.0  0.90795  0.35949  0.31616  1.0000
  C   C610      1.0  0.72587  0.99317  0.11015  1.0000
  H   H1088     1.0  0.68799  0.98930  0.02972  1.0000
  C   C611      1.0  0.59451  0.05026  0.12531  1.0000
  H   H1089     1.0  0.85930  0.48276  0.08108  1.0000
  C   C612      1.0  0.48988  0.10775  0.10168  1.0000
  C   C613      1.0  0.95888  0.38866  0.30894  1.0000
  C   C614      1.0  0.83520  0.99383  0.25553  1.0000
  H   H1090     1.0  0.60518  0.16612  0.13238  1.0000
  H   H1091     1.0  0.54264  0.47061  0.20449  1.0000
  H   H1092     1.0  0.50963  0.03556  0.15267  1.0000
  H   H1093     1.0  0.54551  0.04575  0.13014  1.0000
  H   H1094     1.0  0.57720  0.14530  0.16046  1.0000
  H   H1095     1.0  0.74793  0.47976  0.07366  1.0000
  C   C615      1.0  0.52743  0.30005  0.17247  1.0000
  H   H1096     1.0  0.78220  0.45977  0.13547  1.0000
  H   H1097     1.0  0.75599  0.98747  0.07091  1.0000
  C   C616      1.0  0.67179  0.98885  0.05810  1.0000
  H   H1098     1.0  0.63955  0.06395  0.30403  1.0000
  N   N36       1.0  0.87237  0.35809  0.31564  1.0000
  H   H1099     1.0  0.79841  0.36286  0.26528  1.0000
  H   H1100     1.0  0.68388  0.31982  0.09308  1.0000
  H   H1101     1.0  0.89666  0.01068  0.27010  1.0000
  C   C617      1.0  0.56572  0.14289  0.14656  1.0000
  H   H1102     1.0  0.55657  0.26050  0.18116  1.0000
  H   H1103     1.0  0.97318  0.00071  0.25388  1.0000
  C   C618      1.0  0.68225  0.33244  0.07945  1.0000
  H   H1104     1.0  0.79210  0.00972  0.06787  1.0000
  H   H1105     1.0  0.51894  0.05013  0.17571  1.0000
  H   H1106     1.0  0.67671  0.01942  0.30041  1.0000
  H   H1107     1.0  0.75714  0.00471  0.29292  1.0000
  C   C619      1.0  0.78027  0.03001  0.10960  1.0000
  C   C620      1.0  0.50862  0.05650  0.16196  1.0000
  N   N37       1.0  0.65643  0.25975  0.04899  1.0000
  C   C621      1.0  0.62967  0.23745  0.05357  1.0000
  C   C622      1.0  0.68763  0.24278  0.05036  1.0000
  C   C623      1.0  0.65618  0.28559  0.06357  1.0000
  C   C624      1.0  0.65258  0.27492  0.02998  1.0000
  C   C625      1.0  0.64983  0.25244  0.01297  1.0000
  C   C626      1.0  0.59626  0.25196  0.05429  1.0000
  C   C627      1.0  0.68429  0.30917  0.06314  1.0000
  C   C628      1.0  0.68827  0.20757  0.04442  1.0000
  C   C629      1.0  0.72193  0.19557  0.04244  1.0000
  H   H1108     1.0  0.65900  0.06457  0.99118  1.0000
  C   C630      1.0  0.57108  0.22645  0.05699  1.0000
  H   H1109     1.0  0.80432  0.40243  0.11276  1.0000
  H   H1110     1.0  0.63401  0.22629  0.06747  1.0000
  H   H1111     1.0  0.62859  0.21756  0.04354  1.0000
  H   H1112     1.0  0.70603  0.25564  0.04221  1.0000
  H   H1113     1.0  0.69612  0.24263  0.06520  1.0000
  H   H1114     1.0  0.65536  0.27505  0.07785  1.0000
  H   H1115     1.0  0.63463  0.30018  0.06230  1.0000
  H   H1116     1.0  0.63192  0.29089  0.02994  1.0000
  H   H1117     1.0  0.67306  0.29048  0.02687  1.0000
  H   H1118     1.0  0.63121  0.23437  0.01497  1.0000
  H   H1119     1.0  0.67271  0.24074  0.01045  1.0000
  H   H1120     1.0  0.59412  0.26843  0.06631  1.0000
  H   H1121     1.0  0.59073  0.26468  0.04113  1.0000
  H   H1122     1.0  0.68423  0.32310  0.04996  1.0000
  H   H1123     1.0  0.70720  0.29694  0.06433  1.0000
  H   H1124     1.0  0.67660  0.19312  0.05540  1.0000
  H   H1125     1.0  0.67593  0.20303  0.03105  1.0000
  H   H1126     1.0  0.72140  0.17030  0.03838  1.0000
  H   H1127     1.0  0.73469  0.20888  0.03134  1.0000
  H   H1128     1.0  0.73472  0.19786  0.05597  1.0000
  H   H1129     1.0  0.51039  0.25767  0.15890  1.0000
  H   H1130     1.0  0.81107  0.35678  0.29880  1.0000
  C   C631      1.0  0.61334  0.07978  0.16827  1.0000
  H   H1131     1.0  0.57498  0.21348  0.07032  1.0000
  H   H1132     1.0  0.54747  0.23746  0.05760  1.0000
  H   H1133     1.0  0.57140  0.20946  0.04514  1.0000
  H   H1134     1.0  0.87981  0.36419  0.28567  1.0000
  H   H1135     1.0  0.83241  0.02733  0.23284  1.0000
  S   S144      1.0  0.82824  0.02321  0.27303  1.0000
  N   N38       1.0  0.94425  0.99973  0.27907  1.0000
  C   C632      1.0  0.79102  0.44942  0.12221  1.0000
  H   H1136     1.0  0.48594  0.27218  0.17698  1.0000
  H   H1137     1.0  0.73718  0.07658  0.05842  1.0000
  H   H1138     1.0  0.77794  0.11138  0.07134  1.0000
  H   H1139     1.0  0.65975  0.34563  0.07898  1.0000
  C   C633      1.0  0.86178  0.36968  0.29655  1.0000
  H   H1140     1.0  0.53080  0.27554  0.19934  1.0000
  C   C634      1.0  0.76209  0.06931  0.05685  1.0000
  H   H1141     1.0  0.73115  0.99314  0.01236  1.0000
  C   C635      1.0  0.50073  0.30308  0.13340  1.0000
  H   H1142     1.0  0.54019  0.14758  0.14803  1.0000
  H   H1143     1.0  0.79479  0.99589  0.03457  1.0000
  H   H1144     1.0  0.66884  0.47396  0.12965  1.0000
  C   C636      1.0  0.67076  0.45820  0.18183  1.0000
  S   S145      1.0  0.87180  0.06833  0.31319  1.0000
  H   H1145     1.0  0.52482  0.30798  0.09655  1.0000
  C   C637      1.0  0.79647  0.41437  0.12580  1.0000
  H   H1146     1.0  0.88148  0.47314  0.10165  1.0000
  H   H1147     1.0  0.65803  0.01101  0.05760  1.0000
  C   C638      1.0  0.69873  0.98974  0.04392  1.0000
  H   H1148     1.0  0.57646  0.05282  0.58261  1.0000
  H   H1149     1.0  0.72002  0.00515  0.36643  1.0000
  Fe  Fe74      1.0  0.57849  0.01357  0.63675  1.0000
  N   N39       1.0  0.91445  0.00436  0.40414  1.0000
  H   H1150     1.0  0.59571  0.45327  0.35126  1.0000
  Fe  Fe75      1.0  0.88766  0.03486  0.33553  1.0000
  Fe  Fe76      1.0  0.81964  0.01709  0.34567  1.0000
  S   S146      1.0  0.93972  0.02330  0.33975  1.0000
  Fe  Fe77      1.0  0.83578  0.08503  0.33408  1.0000
  S   S147      1.0  0.83159  0.13872  0.33584  1.0000
  S   S148      1.0  0.85382  0.05354  0.35695  1.0000
  Fe  Fe78      1.0  0.75561  0.35605  0.38251  1.0000
  S   S149      1.0  0.79022  0.38038  0.40189  1.0000
  S   S150      1.0  0.72192  0.37747  0.36074  1.0000
  Fe  Fe79      1.0  0.77724  0.28966  0.39451  1.0000
  S   S151      1.0  0.81228  0.31015  0.41476  1.0000
  S   S152      1.0  0.77038  0.23595  0.39381  1.0000
  Fe  Fe80      1.0  0.77428  0.34392  0.42338  1.0000
  S   S153      1.0  0.76863  0.35531  0.45490  1.0000
  Fe  Fe81      1.0  0.82548  0.34430  0.39179  1.0000
  S   S154      1.0  0.87842  0.34394  0.38461  1.0000
  S   S155      1.0  0.73820  0.32154  0.40445  1.0000
  S   S156      1.0  0.79184  0.32200  0.37115  1.0000
  H   H1151     1.0  0.86823  0.40377  0.32888  1.0000
  H   H1152     1.0  0.54232  0.27484  0.56888  1.0000
  H   H1153     1.0  0.55794  0.19673  0.63381  1.0000
  H   H1154     1.0  0.50703  0.15756  0.60581  1.0000
  S   S157      1.0  0.54925  0.05045  0.62227  1.0000
  S   S158      1.0  0.58755  0.12786  0.61868  1.0000
  H   H1155     1.0  0.71229  0.06778  0.38628  1.0000
  Fe  Fe82      1.0  0.65769  0.29719  0.59156  1.0000
  S   S159      1.0  0.62635  0.29599  0.56629  1.0000
  S   S160      1.0  0.66681  0.25591  0.61159  1.0000
  Fe  Fe83      1.0  0.66976  0.36866  0.58765  1.0000
  S   S161      1.0  0.63840  0.37171  0.56212  1.0000
  S   S162      1.0  0.68565  0.41514  0.60135  1.0000
  Fe  Fe84      1.0  0.60483  0.34013  0.57803  1.0000
  S   S163      1.0  0.55120  0.34603  0.57776  1.0000
  Fe  Fe85      1.0  0.66268  0.32759  0.55224  1.0000
  S   S164      1.0  0.67226  0.31673  0.52093  1.0000
  S   S165      1.0  0.63435  0.33982  0.60398  1.0000
  S   S166      1.0  0.69592  0.32592  0.57711  1.0000
  C   C639      1.0  0.60894  0.16397  0.61768  1.0000
  C   C640      1.0  0.62985  0.17348  0.63176  1.0000
  C   C641      1.0  0.64728  0.20173  0.62973  1.0000
  C   C642      1.0  0.64360  0.22106  0.61382  1.0000
  C   C643      1.0  0.62216  0.21186  0.59997  1.0000
  C   C644      1.0  0.60507  0.18345  0.60187  1.0000
  Fe  Fe86      1.0  0.51724  0.04914  0.64719  1.0000
  H   H1156     1.0  0.82423  0.42379  0.34989  1.0000
  H   H1157     1.0  0.61951  0.22618  0.58753  1.0000
  H   H1158     1.0  0.58901  0.17634  0.59086  1.0000
  C   C645      1.0  0.98325  0.41658  0.56917  1.0000
  C   C646      1.0  0.51725  0.37270  0.62901  1.0000
  C   C647      1.0  0.53752  0.36185  0.61477  1.0000
  C   C648      1.0  0.52624  0.35761  0.59651  1.0000
  H   H1159     1.0  0.59735  0.02898  0.56568  1.0000
  H   H1160     1.0  0.53118  0.99657  0.48200  1.0000
  H   H1161     1.0  0.96531  0.44907  0.63313  1.0000
  H   H1162     1.0  0.56192  0.35707  0.61784  1.0000
  H   H1163     1.0  0.81354  0.39306  0.32105  1.0000
  H   H1164     1.0  0.72046  0.99429  0.55767  1.0000
  C   C649      1.0  0.78498  0.45511  0.61341  1.0000
  C   C650      1.0  0.78128  0.42454  0.60607  1.0000
  C   C651      1.0  0.75116  0.41207  0.60208  1.0000
  C   C652      1.0  0.72428  0.43004  0.60546  1.0000
  C   C653      1.0  0.72795  0.46061  0.61288  1.0000
  H   H1165     1.0  0.70733  0.47472  0.61556  1.0000
  C   C654      1.0  0.69717  0.03228  0.57254  1.0000
  H   H1166     1.0  0.74873  0.38852  0.59645  1.0000
  C   C655      1.0  0.57630  0.42986  0.54907  1.0000
  C   C656      1.0  0.66669  0.07842  0.61576  1.0000
  C   C657      1.0  0.74024  0.34617  0.47275  1.0000
  C   C658      1.0  0.71349  0.32769  0.46928  1.0000
  C   C659      1.0  0.69303  0.31915  0.48414  1.0000
  C   C660      1.0  0.69853  0.32943  0.50268  1.0000
  C   C661      1.0  0.72486  0.34860  0.50607  1.0000
  C   C662      1.0  0.74550  0.35684  0.49122  1.0000
  H   H1167     1.0  0.70864  0.31983  0.45515  1.0000
  H   H1168     1.0  0.67266  0.30455  0.48125  1.0000
  H   H1169     1.0  0.72952  0.35681  0.52016  1.0000
  H   H1170     1.0  0.76593  0.37135  0.49414  1.0000
  C   C663      1.0  0.81528  0.16496  0.35272  1.0000
  C   C664      1.0  0.81935  0.19761  0.35008  1.0000
  C   C665      1.0  0.80620  0.21953  0.36268  1.0000
  C   C666      1.0  0.78855  0.20909  0.37804  1.0000
  C   C667      1.0  0.78468  0.17642  0.38082  1.0000
  C   C668      1.0  0.79805  0.15444  0.36829  1.0000
  H   H1171     1.0  0.83253  0.20600  0.33808  1.0000
  H   H1172     1.0  0.80917  0.24452  0.36037  1.0000
  H   H1173     1.0  0.77101  0.16808  0.39264  1.0000
  H   H1174     1.0  0.79467  0.12945  0.37051  1.0000
  C   C669      1.0  0.95583  0.40875  0.35958  1.0000
  C   C670      1.0  0.96085  0.37656  0.36230  1.0000
  C   C671      1.0  0.93689  0.35738  0.37006  1.0000
  C   C672      1.0  0.90766  0.37001  0.37533  1.0000
  C   C673      1.0  0.90258  0.40225  0.37263  1.0000
  C   C674      1.0  0.92651  0.42143  0.36476  1.0000
  H   H1175     1.0  0.59469  0.25114  0.63533  1.0000
  H   H1176     1.0  0.94081  0.33252  0.37188  1.0000
  H   H1177     1.0  0.88028  0.41241  0.37661  1.0000
  H   H1178     1.0  0.92233  0.44632  0.36273  1.0000
  H   H1179     1.0  0.93502  0.08382  0.35911  1.0000
  C   C675      1.0  0.66558  0.47009  0.35544  1.0000
  C   C676      1.0  0.68650  0.46573  0.37055  1.0000
  C   C677      1.0  0.70406  0.43772  0.37239  1.0000
  C   C678      1.0  0.70095  0.41366  0.35910  1.0000
  C   C679      1.0  0.68036  0.41825  0.34386  1.0000
  C   C680      1.0  0.66284  0.44625  0.34200  1.0000
  H   H1180     1.0  0.64172  0.06745  0.57058  1.0000
  H   H1181     1.0  0.71985  0.43466  0.38415  1.0000
  H   H1182     1.0  0.67791  0.39993  0.33341  1.0000
  H   H1183     1.0  0.92016  0.42865  0.57782  1.0000
  H   H1184     1.0  0.65128  0.39621  0.42235  1.0000
  H   H1185     1.0  0.92052  0.43155  0.61222  1.0000
  H   H1186     1.0  0.88107  0.45613  0.55655  1.0000
  H   H1187     1.0  0.61341  0.39442  0.37537  1.0000
  H   H1188     1.0  0.59538  0.47762  0.38218  1.0000
  C   C681      1.0  0.59581  0.42651  0.63240  1.0000
  C   C682      1.0  0.86890  0.47275  0.56606  1.0000
  H   H1189     1.0  0.52404  0.46739  0.37606  1.0000
  H   H1190     1.0  0.63685  0.01509  0.58958  1.0000
  C   C683      1.0  0.49418  0.36303  0.59289  1.0000
  H   H1191     1.0  0.95285  0.23553  0.37473  1.0000
  H   H1192     1.0  0.54667  0.30521  0.63597  1.0000
  H   H1193     1.0  0.53858  0.45091  0.62185  1.0000
  H   H1194     1.0  0.62355  0.08670  0.58961  1.0000
  C   C684      1.0  0.67292  0.02936  0.33041  1.0000
  C   C685      1.0  0.68796  0.09669  0.64723  1.0000
  H   H1195     1.0  0.74914  0.04687  0.38383  1.0000
  H   H1196     1.0  0.87024  0.37191  0.34467  1.0000
  H   H1197     1.0  0.68832  0.15541  0.56358  1.0000
  H   H1198     1.0  0.53139  0.41033  0.37123  1.0000
  H   H1199     1.0  0.60446  0.44878  0.63869  1.0000
  C   C686      1.0  0.59205  0.03212  0.58081  1.0000
  H   H1200     1.0  0.58973  0.28255  0.61905  1.0000
  C   C687      1.0  0.95892  0.07556  0.36037  1.0000
  C   C688      1.0  0.72370  0.05388  0.35760  1.0000
  H   H1201     1.0  0.89527  0.45908  0.62368  1.0000
  H   H1202     1.0  0.86721  0.26473  0.35260  1.0000
  H   H1203     1.0  0.89597  0.31178  0.34160  1.0000
  C   C689      1.0  0.96765  0.04750  0.35160  1.0000
  H   H1204     1.0  0.74556  0.05201  0.34924  1.0000
  S   S167      1.0  0.79952  0.05002  0.32387  1.0000
  C   C690      1.0  0.54277  0.44915  0.60649  1.0000
  H   H1205     1.0  0.95926  0.30845  0.32737  1.0000
  H   H1206     1.0  0.85654  0.32080  0.34903  1.0000
  H   H1207     1.0  0.93809  0.07134  0.40320  1.0000
  H   H1208     1.0  0.96829  0.03220  0.39042  1.0000
  C   C691      1.0  0.58556  0.40495  0.34358  1.0000
  C   C692      1.0  0.58712  0.27584  0.63404  1.0000
  H   H1209     1.0  0.48814  0.17221  0.62666  1.0000
  H   H1210     1.0  0.86845  0.09059  0.40096  1.0000
  C   C693      1.0  0.62243  0.03636  0.59202  1.0000
  C   C694      1.0  0.68688  0.10067  0.58566  1.0000
  C   C695      1.0  0.75811  0.47316  0.61677  1.0000
  C   C696      1.0  0.49655  0.27385  0.63364  1.0000
  H   H1211     1.0  0.55341  0.41402  0.41251  1.0000
  C   C697      1.0  0.88319  0.01175  0.43528  1.0000
  N   N40       1.0  0.78291  0.24552  0.45985  1.0000
  C   C698      1.0  0.80187  0.27123  0.46930  1.0000
  C   C699      1.0  0.79788  0.23626  0.44138  1.0000
  C   C700      1.0  0.75082  0.25898  0.45557  1.0000
  C   C701      1.0  0.77836  0.21719  0.47234  1.0000
  C   C702      1.0  0.80864  0.20130  0.47963  1.0000
  C   C703      1.0  0.79027  0.28175  0.48897  1.0000
  C   C704      1.0  0.72809  0.23742  0.44419  1.0000
  C   C705      1.0  0.83437  0.23721  0.43998  1.0000
  C   C706      1.0  0.84573  0.22347  0.42135  1.0000
  C   C707      1.0  0.80099  0.17697  0.49482  1.0000
  C   C708      1.0  0.81109  0.30814  0.49678  1.0000
  H   H1212     1.0  0.80283  0.29248  0.46006  1.0000
  H   H1213     1.0  0.82672  0.26426  0.47128  1.0000
  H   H1214     1.0  0.78972  0.21237  0.43699  1.0000
  H   H1215     1.0  0.78984  0.25229  0.43004  1.0000
  H   H1216     1.0  0.75343  0.28160  0.44768  1.0000
  H   H1217     1.0  0.73802  0.26484  0.46869  1.0000
  H   H1218     1.0  0.76319  0.22331  0.48454  1.0000
  H   H1219     1.0  0.76518  0.19838  0.46478  1.0000
  H   H1220     1.0  0.82538  0.21853  0.48576  1.0000
  H   H1221     1.0  0.82027  0.18855  0.46798  1.0000
  H   H1222     1.0  0.76593  0.29077  0.48850  1.0000
  H   H1223     1.0  0.79103  0.26192  0.49910  1.0000
  H   H1224     1.0  0.72151  0.21619  0.45241  1.0000
  H   H1225     1.0  0.73872  0.22972  0.43077  1.0000
  H   H1226     1.0  0.84293  0.26198  0.44060  1.0000
  H   H1227     1.0  0.84576  0.22403  0.45147  1.0000
  H   H1228     1.0  0.83667  0.23757  0.40939  1.0000
  H   H1229     1.0  0.87184  0.22406  0.42082  1.0000
  H   H1230     1.0  0.83767  0.19868  0.41974  1.0000
  H   H1231     1.0  0.79016  0.18856  0.50719  1.0000
  H   H1232     1.0  0.78460  0.15868  0.48933  1.0000
  H   H1233     1.0  0.82298  0.16526  0.49943  1.0000
  H   H1234     1.0  0.83558  0.29983  0.49877  1.0000
  H   H1235     1.0  0.81122  0.32871  0.48711  1.0000
  H   H1236     1.0  0.80171  0.31598  0.51055  1.0000
  H   H1237     1.0  0.51795  0.22549  0.61120  1.0000
  H   H1238     1.0  0.53558  0.42472  0.60279  1.0000
  C   C709      1.0  0.83451  0.46224  0.56767  1.0000
  H   H1239     1.0  0.90479  0.01749  0.44330  1.0000
  H   H1240     1.0  0.71676  0.05001  0.59822  1.0000
  C   C710      1.0  0.53451  0.24516  0.61455  1.0000
  H   H1241     1.0  0.59945  0.39109  0.40794  1.0000
  H   H1242     1.0  0.65733  0.05677  0.62260  1.0000
  C   C711      1.0  0.48534  0.46280  0.60175  1.0000
  H   H1243     1.0  0.56381  0.45067  0.54336  1.0000
  H   H1244     1.0  0.55419  0.41602  0.32023  1.0000
  H   H1245     1.0  0.94122  0.27408  0.36634  1.0000
  H   H1246     1.0  0.67436  0.02658  0.56578  1.0000
  C   C712      1.0  0.88503  0.47403  0.58561  1.0000
  H   H1247     1.0  0.64158  0.40364  0.63443  1.0000
  C   C713      1.0  0.82401  0.38064  0.33321  1.0000
  H   H1248     1.0  0.64713  0.44927  0.33021  1.0000
  C   C714      1.0  0.70542  0.02204  0.35828  1.0000
  H   H1249     1.0  0.54408  0.29182  0.60229  1.0000
  H   H1250     1.0  0.57336  0.47680  0.57469  1.0000
  C   C715      1.0  0.97434  0.01472  0.40130  1.0000
  C   C716      1.0  0.54540  0.48229  0.37767  1.0000
  H   H1251     1.0  0.62056  0.42877  0.60562  1.0000
  H   H1252     1.0  0.80185  0.41034  0.60344  1.0000
  C   C717      1.0  0.93517  0.45009  0.57604  1.0000
  H   H1253     1.0  0.50670  0.27511  0.59567  1.0000
  H   H1254     1.0  0.57157  0.25367  0.58188  1.0000
  H   H1255     1.0  0.55924  0.38354  0.38027  1.0000
  H   H1256     1.0  0.68391  0.05264  0.32731  1.0000
  C   C718      1.0  0.57392  0.46304  0.38493  1.0000
  H   H1257     1.0  0.53450  0.23475  0.57608  1.0000
  H   H1258     1.0  0.67093  0.13906  0.60432  1.0000
  C   C719      1.0  0.89024  0.99155  0.41773  1.0000
  H   H1259     1.0  0.85570  0.00947  0.46094  1.0000
  H   H1260     1.0  0.52669  0.36257  0.40624  1.0000
  H   H1261     1.0  0.61611  0.03715  0.60710  1.0000
  H   H1262     1.0  0.67671  0.18230  0.58180  1.0000
  C   C720      1.0  0.92406  0.26213  0.39353  1.0000
  C   C721      1.0  0.55111  0.40836  0.38149  1.0000
  S   S168      1.0  0.85500  0.99575  0.32592  1.0000
  H   H1263     1.0  0.55830  0.23467  0.61358  1.0000
  C   C722      1.0  0.53180  0.26965  0.59850  1.0000
  C   C723      1.0  0.86281  0.27427  0.33832  1.0000
  H   H1264     1.0  0.63422  0.29332  0.63997  1.0000
  H   H1265     1.0  0.87730  0.03445  0.39397  1.0000
  H   H1266     1.0  0.64632  0.13286  0.58412  1.0000
  H   H1267     1.0  0.90905  0.06490  0.42088  1.0000
  C   C724      1.0  0.54590  0.25729  0.58025  1.0000
  C   C725      1.0  0.96861  0.44030  0.58266  1.0000
  C   C726      1.0  0.81514  0.39924  0.35077  1.0000
  H   H1268     1.0  0.70265  0.27562  0.43062  1.0000
  H   H1269     1.0  0.57929  0.01081  0.58588  1.0000
  H   H1270     1.0  0.52635  0.37652  0.64301  1.0000
  C   C727      1.0  0.91279  0.06603  0.40556  1.0000
  C   C728      1.0  0.63983  0.06707  0.58615  1.0000
  N   N41       1.0  0.67157  0.07266  0.59510  1.0000
  H   H1271     1.0  0.83828  0.98867  0.44148  1.0000
  H   H1272     1.0  0.57179  0.42168  0.63782  1.0000
  H   H1273     1.0  0.87821  0.45187  0.59296  1.0000
  C   C729      1.0  0.51929  0.47216  0.59715  1.0000
  H   H1274     1.0  0.83275  0.43838  0.57402  1.0000
  H   H1275     1.0  0.68533  0.26206  0.45244  1.0000
  H   H1276     1.0  0.52172  0.43441  0.40159  1.0000
  H   H1277     1.0  0.90194  0.11596  0.40507  1.0000
  H   H1278     1.0  0.70861  0.10865  0.62083  1.0000
  C   C730      1.0  0.69762  0.25460  0.43944  1.0000
  N   N42       1.0  0.57763  0.43072  0.37640  1.0000
  N   N43       1.0  0.92043  0.47815  0.58564  1.0000
  H   H1279     1.0  0.90181  0.25221  0.38778  1.0000
  C   C731      1.0  0.53580  0.41249  0.40114  1.0000
  H   H1280     1.0  0.68440  0.02459  0.60174  1.0000
  H   H1281     1.0  0.71209  0.10273  0.58973  1.0000
  H   H1282     1.0  0.71315  0.16130  0.58400  1.0000
  H   H1283     1.0  0.91963  0.28695  0.39770  1.0000
  H   H1284     1.0  0.91695  0.35337  0.33032  1.0000
  H   H1285     1.0  0.87125  0.03382  0.43105  1.0000
  H   H1286     1.0  0.98197  0.99286  0.39408  1.0000
  H   H1287     1.0  0.97372  0.11377  0.37837  1.0000
  H   H1288     1.0  0.93074  0.24827  0.40613  1.0000
  H   H1289     1.0  0.68885  0.48395  0.38106  1.0000
  H   H1290     1.0  0.68177  0.23865  0.43142  1.0000
  N   N44       1.0  0.57711  0.45455  0.60205  1.0000
  H   H1291     1.0  0.96808  0.39527  0.56791  1.0000
  C   C732      1.0  0.86014  0.37906  0.33100  1.0000
  C   C733      1.0  0.87076  0.30941  0.33793  1.0000
  H   H1292     1.0  0.97548  0.30027  0.38901  1.0000
  C   C734      1.0  0.48536  0.37894  0.62527  1.0000
  H   H1293     1.0  0.56768  0.40847  0.54164  1.0000
  H   H1294     1.0  0.66434  0.42281  0.40424  1.0000
  H   H1295     1.0  0.64824  0.09652  0.61806  1.0000
  S   S169      1.0  0.82359  0.46908  0.61849  1.0000
  C   C735      1.0  0.67099  0.13299  0.58920  1.0000
  C   C736      1.0  0.59578  0.42804  0.61060  1.0000
  H   H1296     1.0  0.93858  0.47542  0.64495  1.0000
  C   C737      1.0  0.98100  0.09260  0.37118  1.0000
  C   C738      1.0  0.69275  0.04451  0.59287  1.0000
  S   S170      1.0  0.79032  0.99185  0.36821  1.0000
  N   N45       1.0  0.52812  0.25752  0.63404  1.0000
  C   C739      1.0  0.69646  0.08798  0.62707  1.0000
  H   H1297     1.0  0.89744  0.09675  0.38274  1.0000
  H   H1298     1.0  0.93604  0.45408  0.56059  1.0000
  C   C740      1.0  0.51355  0.38510  0.40566  1.0000
  H   H1299     1.0  0.50236  0.38903  0.41954  1.0000
  H   H1300     1.0  0.58180  0.40462  0.57480  1.0000
  H   H1301     1.0  0.82492  0.38783  0.36351  1.0000
  Fe  Fe87      1.0  0.57797  0.08608  0.63845  1.0000
  C   C741      1.0  0.57820  0.43483  0.35531  1.0000
  C   C742      1.0  0.64850  0.40255  0.40732  1.0000
  H   H1302     1.0  0.49752  0.29501  0.62438  1.0000
  C   C743      1.0  0.61426  0.41131  0.40336  1.0000
  H   H1303     1.0  0.68422  0.02649  0.36698  1.0000
  H   H1304     1.0  0.61076  0.39859  0.34493  1.0000
  H   H1305     1.0  0.74021  0.00632  0.57889  1.0000
  H   H1306     1.0  0.60885  0.43222  0.41203  1.0000
  H   H1307     1.0  0.70900  0.07276  0.35146  1.0000
  H   H1308     1.0  0.78912  0.40002  0.35217  1.0000
  H   H1309     1.0  0.91241  0.03741  0.38084  1.0000
  H   H1310     1.0  0.50337  0.21655  0.64455  1.0000
  H   H1311     1.0  0.55504  0.44351  0.35024  1.0000
  H   H1312     1.0  0.68725  0.09724  0.57018  1.0000
  H   H1313     1.0  0.82360  0.46143  0.55352  1.0000
  C   C744      1.0  0.68847  0.15949  0.57897  1.0000
  H   H1314     1.0  0.58672  0.40491  0.60561  1.0000
  H   H1315     1.0  0.81333  0.35685  0.33450  1.0000
  C   C745      1.0  0.90339  0.03490  0.39546  1.0000
  H   H1316     1.0  0.65873  0.99555  0.63157  1.0000
  C   C746      1.0  0.60911  0.41752  0.38219  1.0000
  H   H1317     1.0  0.57232  0.46177  0.40042  1.0000
  H   H1318     1.0  0.74627  0.08729  0.37636  1.0000
  H   H1319     1.0  0.70956  0.05017  0.56385  1.0000
  H   H1320     1.0  0.65336  0.03464  0.34029  1.0000
  C   C747      1.0  0.94989  0.26061  0.37862  1.0000
  H   H1321     1.0  0.54424  0.42326  0.57189  1.0000
  C   C748      1.0  0.73334  0.06450  0.37727  1.0000
  H   H1322     1.0  0.62827  0.43343  0.37728  1.0000
  H   H1323     1.0  0.71694  0.38166  0.63529  1.0000
  C   C749      1.0  0.56999  0.42634  0.57007  1.0000
  H   H1324     1.0  0.98499  0.46052  0.58392  1.0000
  H   H1325     1.0  0.75229  0.42904  0.64594  1.0000
  H   H1326     1.0  0.57138  0.99963  0.49036  1.0000
  H   H1327     1.0  0.65581  0.38209  0.39865  1.0000
  C   C750      1.0  0.89395  0.09394  0.39809  1.0000
  H   H1328     1.0  0.73099  0.02815  0.32056  1.0000
  H   H1329     1.0  0.94488  0.02605  0.42508  1.0000
  C   C751      1.0  0.94566  0.00757  0.41412  1.0000
  H   H1330     1.0  0.95661  0.48456  0.60693  1.0000
  H   H1331     1.0  0.96739  0.42893  0.59666  1.0000
  N   N46       1.0  0.69646  0.00781  0.33955  1.0000
  C   C752      1.0  0.57939  0.41053  0.32271  1.0000
  H   H1332     1.0  0.49469  0.38327  0.39491  1.0000
  C   C753      1.0  0.98099  0.27530  0.38591  1.0000
  H   H1333     1.0  0.60867  0.45576  0.57823  1.0000
  H   H1334     1.0  0.91943  0.40877  0.32318  1.0000
  C   C754      1.0  0.91994  0.45487  0.61920  1.0000
  H   H1335     1.0  0.57094  0.38462  0.34817  1.0000
  C   C755      1.0  0.94029  0.45320  0.63684  1.0000
  H   H1336     1.0  0.96973  0.37780  0.32153  1.0000
  H   H1337     1.0  0.87476  0.99075  0.37320  1.0000
  H   H1338     1.0  0.60813  0.37703  0.63483  1.0000
  S   S171      1.0  0.98504  0.43379  0.34936  1.0000
  C   C756      1.0  0.55270  0.28093  0.64063  1.0000
  H   H1339     1.0  0.71329  0.06811  0.62767  1.0000
  C   C757      1.0  0.71681  0.00221  0.57235  1.0000
  C   C758      1.0  0.61709  0.40026  0.63956  1.0000
  H   H1340     1.0  0.83762  0.27033  0.33482  1.0000
  H   H1341     1.0  0.87768  0.26122  0.32817  1.0000
  C   C759      1.0  0.52533  0.23011  0.64754  1.0000
  H   H1342     1.0  0.66377  0.20866  0.64055  1.0000
  H   H1343     1.0  0.60194  0.43235  0.54632  1.0000
  C   C760      1.0  0.58293  0.45499  0.58116  1.0000
  C   C761      1.0  0.72609  0.00536  0.32779  1.0000
  H   H1344     1.0  0.93490  0.98923  0.37778  1.0000
  C   C762      1.0  0.97824  0.29264  0.32241  1.0000
  C   C763      1.0  0.86086  0.99435  0.44862  1.0000
  H   H1345     1.0  0.60353  0.32139  0.64441  1.0000
  H   H1346     1.0  0.52164  0.47220  0.58166  1.0000
  H   H1347     1.0  0.74688  0.00116  0.33696  1.0000
  H   H1348     1.0  0.96857  0.25622  0.34256  1.0000
  C   C764      1.0  0.55276  0.20621  0.64793  1.0000
  C   C765      1.0  0.93072  0.48176  0.60580  1.0000
  C   C766      1.0  0.60995  0.29615  0.64545  1.0000
  H   H1349     1.0  0.86703  0.98866  0.41070  1.0000
  H   H1350     1.0  0.93204  0.43355  0.64592  1.0000
  H   H1351     1.0  0.63281  0.15898  0.64410  1.0000
  C   C767      1.0  0.86276  0.32407  0.31856  1.0000
  H   H1352     1.0  0.67211  0.11738  0.64741  1.0000
  H   H1353     1.0  0.98322  0.36661  0.35833  1.0000
  H   H1354     1.0  0.82104  0.47909  0.57643  1.0000
  H   H1355     1.0  0.80950  0.42809  0.65031  1.0000
  C   C768      1.0  0.71986  0.37107  0.64944  1.0000
  H   H1356     1.0  0.77000  0.37514  0.64951  1.0000
  H   H1357     1.0  0.72073  0.34506  0.64780  1.0000
  H   H1358     1.0  0.63686  0.47564  0.61700  1.0000
  H   H1359     1.0  0.63303  0.98725  0.34815  1.0000
  H   H1360     1.0  0.66586  0.15010  0.88634  1.0000
  H   H1361     1.0  0.75231  0.01885  0.91447  1.0000
  Fe  Fe88      1.0  0.82682  0.43339  0.83436  1.0000
  S   S172      1.0  0.81779  0.40040  0.81013  1.0000
  Fe  Fe89      1.0  0.89758  0.42168  0.83268  1.0000
  S   S173      1.0  0.89261  0.38839  0.80840  1.0000
  S   S174      1.0  0.94685  0.43449  0.84300  1.0000
  Fe  Fe90      1.0  0.85911  0.42396  0.79595  1.0000
  S   S175      1.0  0.86317  0.43263  0.76393  1.0000
  Fe  Fe91      1.0  0.85176  0.36782  0.82454  1.0000
  S   S176      1.0  0.84327  0.31433  0.82483  1.0000
  S   S177      1.0  0.86639  0.45883  0.81945  1.0000
  S   S178      1.0  0.85860  0.39927  0.84955  1.0000
  Fe  Fe92      1.0  0.75890  0.10654  0.88172  1.0000
  S   S179      1.0  0.78524  0.07885  0.90338  1.0000
  S   S180      1.0  0.72277  0.08564  0.86118  1.0000
  Fe  Fe93      1.0  0.79067  0.16895  0.89306  1.0000
  S   S181      1.0  0.81820  0.14482  0.91592  1.0000
  S   S182      1.0  0.79698  0.22266  0.89090  1.0000
  Fe  Fe94      1.0  0.82773  0.10728  0.89438  1.0000
  S   S183      1.0  0.87789  0.08768  0.89428  1.0000
  Fe  Fe95      1.0  0.77357  0.11856  0.92331  1.0000
  S   S184      1.0  0.76107  0.10408  0.95377  1.0000
  S   S185      1.0  0.80232  0.13264  0.87120  1.0000
  S   S186      1.0  0.74509  0.14513  0.90191  1.0000
  C   C769      1.0  0.98432  0.22803  0.86832  1.0000
  Fe  Fe96      1.0  0.57308  0.04536  0.67474  1.0000
  C   C770      1.0  0.86895  0.46066  0.72891  1.0000
  S   S187      1.0  0.54472  0.08599  0.66306  1.0000
  C   C771      1.0  0.73338  0.11521  0.97148  1.0000
  H   H1362     1.0  0.97357  0.34349  0.88315  1.0000
  H   H1363     1.0  0.86500  0.01503  0.85085  1.0000
  H   H1364     1.0  0.70467  0.14469  0.95400  1.0000
  H   H1365     1.0  0.71041  0.07173  0.93329  1.0000
  H   H1366     1.0  0.60980  0.28879  0.66040  1.0000
  H   H1367     1.0  0.68853  0.06363  0.96156  1.0000
  C   C772      1.0  0.77446  0.46884  0.67057  1.0000
  C   C773      1.0  0.54488  0.17788  0.66038  1.0000
  H   H1368     1.0  0.76180  0.08441  0.82576  1.0000
  H   H1369     1.0  0.75249  0.37138  0.67251  1.0000
  H   H1370     1.0  0.93632  0.37794  0.86585  1.0000
  C   C774      1.0  0.83238  0.28858  0.84357  1.0000
  C   C775      1.0  0.82313  0.25743  0.83945  1.0000
  C   C776      1.0  0.81345  0.23649  0.85380  1.0000
  C   C777      1.0  0.81250  0.24661  0.87247  1.0000
  C   C778      1.0  0.82236  0.27757  0.87661  1.0000
  C   C779      1.0  0.83264  0.29826  0.86231  1.0000
  H   H1371     1.0  0.82315  0.24950  0.82503  1.0000
  H   H1372     1.0  0.80589  0.21281  0.85034  1.0000
  H   H1373     1.0  0.82208  0.28557  0.89102  1.0000
  H   H1374     1.0  0.84096  0.32162  0.86581  1.0000
  C   C780      1.0  0.94785  0.05354  0.84912  1.0000
  C   C781      1.0  0.91762  0.06378  0.84389  1.0000
  C   C782      1.0  0.89623  0.07535  0.85737  1.0000
  C   C783      1.0  0.90456  0.07603  0.87635  1.0000
  C   C784      1.0  0.93495  0.06629  0.88153  1.0000
  C   C785      1.0  0.95655  0.05537  0.86801  1.0000
  H   H1375     1.0  0.91065  0.06253  0.82931  1.0000
  H   H1376     1.0  0.87315  0.08317  0.85315  1.0000
  H   H1377     1.0  0.94168  0.06670  0.89617  1.0000
  H   H1378     1.0  0.86705  0.43323  0.65101  1.0000
  H   H1379     1.0  0.95722  0.36442  0.81416  1.0000
  H   H1380     1.0  0.78182  0.47581  0.65612  1.0000
  C   C786      1.0  0.66088  0.01653  0.84542  1.0000
  C   C787      1.0  0.67869  0.04471  0.84641  1.0000
  C   C788      1.0  0.70167  0.04922  0.86039  1.0000
  C   C789      1.0  0.70715  0.02483  0.87316  1.0000
  H   H1381     1.0  0.92654  0.30659  0.82284  1.0000
  H   H1382     1.0  0.67441  0.06326  0.83632  1.0000
  H   H1383     1.0  0.72515  0.02762  0.88372  1.0000
  N   N47       1.0  0.77587  0.43346  0.67278  1.0000
  C   C790      1.0  0.78521  0.02728  0.83835  1.0000
  S   S188      1.0  0.78148  0.45131  0.84793  1.0000
  H   H1384     1.0  0.75238  0.32251  0.79153  1.0000
  C   C791      1.0  0.98241  0.36381  0.87560  1.0000
  H   H1385     1.0  0.72365  0.47755  0.86126  1.0000
  H   H1386     1.0  0.78024  0.01915  0.97137  1.0000
  H   H1387     1.0  0.95182  0.12634  0.84216  1.0000
  H   H1388     1.0  0.79602  0.07556  0.81158  1.0000
  C   C792      1.0  0.66258  0.06569  0.96083  1.0000
  H   H1389     1.0  0.54549  0.04892  0.79849  1.0000
  S   S189      1.0  0.97265  0.03582  0.83203  1.0000
  H   H1390     1.0  0.54219  0.01400  0.81261  1.0000
  C   C793      1.0  0.89636  0.18124  0.89116  1.0000
  H   H1391     1.0  0.65546  0.02647  0.98021  1.0000
  H   H1392     1.0  0.65022  0.02306  0.94523  1.0000
  H   H1393     1.0  0.75220  0.43900  0.80983  1.0000
  H   H1394     1.0  0.92976  0.27287  0.85104  1.0000
  H   H1395     1.0  0.70231  0.01390  0.68533  1.0000
  H   H1396     1.0  0.51660  0.00805  0.74764  1.0000
  H   H1397     1.0  0.85283  0.02106  0.89784  1.0000
  H   H1398     1.0  0.97677  0.01320  0.75710  1.0000
  H   H1399     1.0  0.67611  0.07668  0.65439  1.0000
  H   H1400     1.0  0.75682  0.36290  0.79891  1.0000
  C   C794      1.0  0.77056  0.42264  0.69279  1.0000
  H   H1401     1.0  0.59936  0.03301  0.91853  1.0000
  H   H1402     1.0  0.52420  0.16478  0.65481  1.0000
  C   C795      1.0  0.59572  0.01519  0.74084  1.0000
  H   H1403     1.0  0.74323  0.03645  0.97771  1.0000
  C   C796      1.0  0.96123  0.38331  0.86581  1.0000
  S   S190      1.0  0.60927  0.04891  0.65139  1.0000
  H   H1404     1.0  0.50912  0.02921  0.77563  1.0000
  H   H1405     1.0  0.55268  0.28221  0.65624  1.0000
  H   H1406     1.0  0.96627  0.99369  0.65697  1.0000
  H   H1407     1.0  0.66523  0.15555  0.97903  1.0000
  C   C797      1.0  0.67826  0.01922  0.68017  1.0000
  C   C798      1.0  0.97729  0.13083  0.84017  1.0000
  H   H1408     1.0  0.80859  0.39595  0.66633  1.0000
  H   H1409     1.0  0.72956  0.47232  0.68617  1.0000
  H   H1410     1.0  0.78559  0.02123  0.82315  1.0000
  H   H1411     1.0  0.64308  0.01362  0.83470  1.0000
  C   C799      1.0  0.78791  0.08326  0.82565  1.0000
  H   H1412     1.0  0.52304  0.23864  0.66222  1.0000
  C   C800      1.0  0.97496  0.31277  0.83387  1.0000
  H   H1413     1.0  0.96932  0.14894  0.81192  1.0000
  H   H1414     1.0  0.61337  0.03410  0.87615  1.0000
  H   H1415     1.0  0.82646  0.03217  0.86797  1.0000
  C   C801      1.0  0.65497  0.99389  0.68661  1.0000
  H   H1416     1.0  0.97194  0.27104  0.76766  1.0000
  H   H1417     1.0  0.79865  0.40945  0.72819  1.0000
  C   C802      1.0  0.78109  0.42873  0.72778  1.0000
  N   N48       1.0  0.66300  0.05868  0.92475  1.0000
  H   H1418     1.0  0.93202  0.34129  0.83703  1.0000
  C   C803      1.0  0.69816  0.05363  0.92461  1.0000
  C   C804      1.0  0.64854  0.03884  0.90942  1.0000
  C   C805      1.0  0.61262  0.04259  0.90635  1.0000
  H   H1419     1.0  0.97660  0.18152  0.84055  1.0000
  C   C806      1.0  0.70952  0.02073  0.93125  1.0000
  C   C807      1.0  0.60184  0.02448  0.88894  1.0000
  H   H1420     1.0  0.70353  0.01670  0.94621  1.0000
  H   H1421     1.0  0.95990  0.02371  0.68799  1.0000
  H   H1422     1.0  0.62310  0.05426  0.94342  1.0000
  H   H1423     1.0  0.78727  0.44591  0.73895  1.0000
  H   H1424     1.0  0.70772  0.05733  0.91025  1.0000
  H   H1425     1.0  0.66047  0.04354  0.89583  1.0000
  H   H1426     1.0  0.65235  0.01337  0.91215  1.0000
  H   H1427     1.0  0.60596  0.06757  0.90436  1.0000
  C   C808      1.0  0.94464  0.16927  0.87152  1.0000
  H   H1428     1.0  0.72654  0.48015  0.66147  1.0000
  C   C809      1.0  0.85601  0.46319  0.74707  1.0000
  C   C810      1.0  0.51037  0.01542  0.78873  1.0000
  C   C811      1.0  0.58380  0.01089  0.72256  1.0000
  H   H1429     1.0  0.78735  0.33446  0.80385  1.0000
  H   H1430     1.0  0.96282  0.02128  0.72412  1.0000
  C   C812      1.0  0.54192  0.02300  0.79799  1.0000
  C   C813      1.0  0.96109  0.26136  0.78065  1.0000
  H   H1431     1.0  0.98020  0.28747  0.83583  1.0000
  H   H1432     1.0  0.74507  0.41835  0.69549  1.0000
  H   H1433     1.0  0.67377  0.15425  0.91105  1.0000
  N   N49       1.0  0.74044  0.34826  0.85597  1.0000
  C   C814      1.0  0.70638  0.35757  0.85368  1.0000
  C   C815      1.0  0.74293  0.31556  0.86440  1.0000
  C   C816      1.0  0.75515  0.37141  0.86955  1.0000
  C   C817      1.0  0.75831  0.35020  0.83768  1.0000
  C   C818      1.0  0.74549  0.32975  0.82139  1.0000
  C   C819      1.0  0.70043  0.39080  0.84526  1.0000
  C   C820      1.0  0.78914  0.36410  0.87606  1.0000
  C   C821      1.0  0.71706  0.29112  0.85914  1.0000
  C   C822      1.0  0.72608  0.25798  0.86550  1.0000
  C   C823      1.0  0.66522  0.39680  0.84289  1.0000
  C   C824      1.0  0.80132  0.38929  0.88960  1.0000
  H   H1434     1.0  0.69426  0.35639  0.86755  1.0000
  H   H1435     1.0  0.69337  0.34069  0.84468  1.0000
  H   H1436     1.0  0.76621  0.30512  0.86098  1.0000
  H   H1437     1.0  0.74213  0.31669  0.88003  1.0000
  H   H1438     1.0  0.74034  0.37349  0.88240  1.0000
  H   H1439     1.0  0.75628  0.39532  0.86327  1.0000
  H   H1440     1.0  0.76033  0.37510  0.83288  1.0000
  H   H1441     1.0  0.78306  0.34257  0.83966  1.0000
  H   H1442     1.0  0.71992  0.33290  0.81924  1.0000
  H   H1443     1.0  0.75046  0.30455  0.82427  1.0000
  H   H1444     1.0  0.70973  0.40965  0.85453  1.0000
  H   H1445     1.0  0.71150  0.39325  0.83123  1.0000
  H   H1446     1.0  0.80533  0.36374  0.86393  1.0000
  H   H1447     1.0  0.79040  0.34109  0.88339  1.0000
  H   H1448     1.0  0.69464  0.29729  0.86625  1.0000
  H   H1449     1.0  0.71257  0.29021  0.84387  1.0000
  H   H1450     1.0  0.73145  0.25753  0.88076  1.0000
  H   H1451     1.0  0.70638  0.24132  0.86273  1.0000
  H   H1452     1.0  0.74702  0.24973  0.85763  1.0000
  S   S191      1.0  0.58827  0.04188  0.70571  1.0000
  H   H1453     1.0  0.65298  0.39533  0.85664  1.0000
  H   H1454     1.0  0.66162  0.42079  0.83704  1.0000
  H   H1455     1.0  0.65462  0.37942  0.83307  1.0000
  H   H1456     1.0  0.80168  0.41277  0.88268  1.0000
  H   H1457     1.0  0.78634  0.39031  0.90235  1.0000
  H   H1458     1.0  0.82574  0.38353  0.89391  1.0000
  H   H1459     1.0  0.67078  0.10768  0.93169  1.0000
  H   H1460     1.0  0.60689  0.03734  0.74445  1.0000
  C   C825      1.0  0.64913  0.05172  0.97892  1.0000
  H   H1461     1.0  0.72678  0.42608  0.66558  1.0000
  C   C826      1.0  0.74519  0.01772  0.92944  1.0000
  H   H1462     1.0  0.95225  0.31769  0.79642  1.0000
  H   H1463     1.0  0.80587  0.45402  0.70635  1.0000
  N   N50       1.0  0.97994  0.16694  0.86954  1.0000
  H   H1464     1.0  0.88451  0.15949  0.88601  1.0000
  C   C827      1.0  0.66477  0.10604  0.90173  1.0000
  C   C828      1.0  0.83429  0.00311  0.90074  1.0000
  H   H1465     1.0  0.93319  0.14654  0.86765  1.0000
  H   H1466     1.0  0.85307  0.02455  0.82711  1.0000
  H   H1467     1.0  0.68974  0.10170  0.89818  1.0000
  C   C829      1.0  0.59379  0.99097  0.75446  1.0000
  N   N51       1.0  0.79926  0.00084  0.84985  1.0000
  H   H1468     1.0  0.88965  0.20136  0.88205  1.0000
  H   H1469     1.0  0.63182  0.09901  0.92470  1.0000
  H   H1470     1.0  0.93727  0.30719  0.86554  1.0000
  C   C830      1.0  0.65680  0.09325  0.92160  1.0000
  C   C831      1.0  0.75051  0.41935  0.66042  1.0000
  H   H1471     1.0  0.56166  0.01252  0.78997  1.0000
  H   H1472     1.0  0.79241  0.07028  0.85463  1.0000
  H   H1473     1.0  0.90498  0.99984  0.82769  1.0000
  H   H1474     1.0  0.81443  0.01445  0.90820  1.0000
  H   H1475     1.0  0.79735  0.10729  0.82836  1.0000
  H   H1476     1.0  0.76618  0.46598  0.70960  1.0000
  H   H1477     1.0  0.82555  0.06078  0.84035  1.0000
  H   H1478     1.0  0.60371  0.99454  0.76827  1.0000
  C   C832      1.0  0.76155  0.33804  0.80283  1.0000
  C   C833      1.0  0.86675  0.42384  0.66557  1.0000
  H   H1479     1.0  0.65647  0.09105  0.96061  1.0000
  H   H1480     1.0  0.78191  0.39935  0.69508  1.0000
  C   C834      1.0  0.75027  0.38290  0.65860  1.0000
  H   H1481     1.0  0.75987  0.03036  0.84198  1.0000
  C   C835      1.0  0.70761  0.13468  0.96785  1.0000
  C   C836      1.0  0.79962  0.06069  0.84081  1.0000
  H   H1482     1.0  0.88773  0.18601  0.90559  1.0000
  C   C837      1.0  0.93867  0.31621  0.83537  1.0000
  H   H1483     1.0  0.94262  0.19906  0.89704  1.0000
  C   C838      1.0  0.64872  0.04904  0.94327  1.0000
  H   H1484     1.0  0.93580  0.26786  0.78107  1.0000
  C   C839      1.0  0.98293  0.36031  0.81525  1.0000
  C   C840      1.0  0.92586  0.29859  0.85248  1.0000
  C   C841      1.0  0.68898  0.99687  0.87238  1.0000
  H   H1485     1.0  0.90017  0.30266  0.85367  1.0000
  H   H1486     1.0  0.94895  0.98803  0.69890  1.0000
  C   C842      1.0  0.91822  0.99177  0.66579  1.0000
  H   H1487     1.0  0.75283  0.99471  0.93522  1.0000
  H   H1488     1.0  0.56520  0.16151  0.66058  1.0000
  C   C843      1.0  0.66563  0.99253  0.85855  1.0000
  C   C844      1.0  0.97233  0.40987  0.85618  1.0000
  H   H1489     1.0  0.57417  0.21729  0.65392  1.0000
  H   H1490     1.0  0.93729  0.15755  0.90131  1.0000
  H   H1491     1.0  0.77049  0.43559  0.78693  1.0000
  H   H1492     1.0  0.95930  0.23196  0.87202  1.0000
  C   C845      1.0  0.96471  0.99792  0.68798  1.0000
  H   H1493     1.0  0.64993  0.09475  0.89081  1.0000
  H   H1494     1.0  0.69876  0.00159  0.92279  1.0000
  H   H1495     1.0  0.97694  0.10726  0.81322  1.0000
  H   H1496     1.0  0.67101  0.04242  0.68589  1.0000
  H   H1497     1.0  0.91475  0.01767  0.66518  1.0000
  H   H1498     1.0  0.96272  0.23526  0.78021  1.0000
  H   H1499     1.0  0.83796  0.42409  0.69012  1.0000
  C   C846      1.0  0.93210  0.17706  0.89142  1.0000
  S   S192      1.0  0.54354  0.00858  0.66050  1.0000
  C   C847      1.0  0.80890  0.01278  0.86898  1.0000
  H   H1500     1.0  0.70965  0.10281  0.65515  1.0000
  H   H1501     1.0  0.75731  0.41901  0.73081  1.0000
  H   H1502     1.0  0.88771  0.43317  0.67309  1.0000
  C   C848      1.0  0.85679  0.00520  0.83731  1.0000
  H   H1503     1.0  0.93501  0.18685  0.86147  1.0000
  C   C849      1.0  0.83689  0.43414  0.67576  1.0000
  H   H1504     1.0  0.72857  0.43073  0.78943  1.0000
  C   C850      1.0  0.78174  0.44515  0.70869  1.0000
  C   C851      1.0  0.97817  0.27380  0.79803  1.0000
  H   H1505     1.0  0.60764  0.99906  0.89021  1.0000
  H   H1506     1.0  0.57597  0.02665  0.88724  1.0000
  C   C852      1.0  0.97702  0.31020  0.79880  1.0000
  H   H1507     1.0  0.88389  0.44086  0.72566  1.0000
  H   H1508     1.0  0.83751  0.46016  0.67658  1.0000
  H   H1509     1.0  0.78820  0.02351  0.87610  1.0000
  C   C853      1.0  0.65918  0.14151  0.90054  1.0000
  H   H1510     1.0  0.63397  0.14690  0.90296  1.0000
  C   C854      1.0  0.49184  0.00165  0.74423  1.0000
  H   H1511     1.0  0.87359  0.48145  0.70121  1.0000
  H   H1512     1.0  0.67860  0.02077  0.66461  1.0000
  H   H1513     1.0  0.75733  0.03680  0.93734  1.0000
  H   H1514     1.0  0.62312  0.05413  0.97924  1.0000
  C   C855      1.0  0.80715  0.42204  0.66548  1.0000
  H   H1515     1.0  0.63123  0.00118  0.68194  1.0000
  H   H1516     1.0  0.64067  0.25405  0.98304  1.0000
  C   C856      1.0  0.98353  0.13064  0.81907  1.0000
  H   H1517     1.0  0.96668  0.26283  0.81039  1.0000
  H   H1518     1.0  0.74234  0.48243  0.77591  1.0000
  H   H1519     1.0  0.96550  0.41831  0.80042  1.0000
  H   H1520     1.0  0.65530  0.99363  0.70218  1.0000
  H   H1521     1.0  0.54001  0.18547  0.67499  1.0000
  H   H1522     1.0  0.86825  0.39773  0.66512  1.0000
  C   C857      1.0  0.98179  0.00412  0.72723  1.0000
  C   C858      1.0  0.74940  0.44400  0.79462  1.0000
  C   C859      1.0  0.74478  0.47924  0.79128  1.0000
  H   H1523     1.0  0.69911  0.37701  0.65819  1.0000
  H   H1524     1.0  0.50116  0.30262  0.65925  1.0000
  H   H1525     1.0  0.74768  0.99406  0.97804  1.0000
  C   C860      1.0  0.48938  0.99976  0.72284  1.0000
  H   H1526     1.0  0.79169  0.48093  0.67982  1.0000
  H   H1527     1.0  0.49180  0.02429  0.79827  1.0000
  H   H1528     1.0  0.97950  0.04718  0.87230  1.0000
  H   H1529     1.0  0.97725  0.11786  0.87765  1.0000
  C   C861      1.0  0.75965  0.01689  0.98090  1.0000
  C   C862      1.0  0.74161  0.48357  0.67407  1.0000
  C   C863      1.0  0.86304  0.48364  0.71495  1.0000
  C   C864      1.0  0.68526  0.14081  0.98211  1.0000
  H   H1530     1.0  0.80927  0.46186  0.90834  1.0000
  H   H1531     1.0  0.61739  0.40036  0.65513  1.0000
  H   H1532     1.0  0.71223  0.48434  0.93032  1.0000
  H   H1533     1.0  0.49897  0.02172  0.71646  1.0000
  C   C865      1.0  0.82299  0.98789  0.88250  1.0000
  C   C866      1.0  0.81738  0.48585  0.90428  1.0000
  H   H1534     1.0  0.84347  0.48571  0.90325  1.0000
  Fe  Fe97      1.0  0.56950  0.53117  0.29743  1.0000
  H   H1535     1.0  0.95324  0.90880  0.10340  1.0000
  Fe  Fe98      1.0  0.76935  0.62099  0.04578  1.0000
  S   S193      1.0  0.73479  0.63516  0.06832  1.0000
  S   S194      1.0  0.76420  0.62257  0.01349  1.0000
  Fe  Fe99      1.0  0.82477  0.61645  0.07481  1.0000
  S   S195      1.0  0.79359  0.63016  0.09886  1.0000
  S   S196      1.0  0.87871  0.61280  0.07510  1.0000
  Fe  Fe100     1.0  0.75755  0.59694  0.08585  1.0000
  S   S197      1.0  0.73616  0.56059  0.10635  1.0000
  Fe  Fe101     1.0  0.77345  0.66695  0.07963  1.0000
  S   S198      1.0  0.76848  0.72033  0.08340  1.0000
  S   S199      1.0  0.79045  0.58118  0.06269  1.0000
  S   S200      1.0  0.80636  0.65485  0.05622  1.0000
  H   H1536     1.0  0.68119  0.98548  0.07250  1.0000
  Fe  Fe102     1.0  0.83561  0.86832  0.14530  1.0000
  S   S201      1.0  0.86105  0.89578  0.12276  1.0000
  S   S202      1.0  0.81740  0.81725  0.14576  1.0000
  Fe  Fe103     1.0  0.85263  0.91748  0.17658  1.0000
  S   S203      1.0  0.87973  0.94746  0.15603  1.0000
  S   S204      1.0  0.85086  0.91918  0.20898  1.0000
  Fe  Fe104     1.0  0.83847  0.93875  0.13630  1.0000
  Fe  Fe105     1.0  0.90003  0.90272  0.14392  1.0000
  S   S205      1.0  0.95225  0.88860  0.14287  1.0000
  S   S206      1.0  0.81059  0.91059  0.15755  1.0000
  S   S207      1.0  0.87537  0.87349  0.16572  1.0000
  C   C867      1.0  0.75562  0.52150  0.98935  1.0000
  C   C868      1.0  0.70169  0.53639  0.10572  1.0000
  C   C869      1.0  0.67696  0.54191  0.09323  1.0000
  H   H1537     1.0  0.78408  0.51180  0.13258  1.0000
  H   H1538     1.0  0.64740  0.56644  0.22533  1.0000
  C   C870      1.0  0.84105  0.98059  0.22208  1.0000
  C   C871      1.0  0.69853  0.51169  0.11885  1.0000
  H   H1539     1.0  0.67890  0.56082  0.08310  1.0000
  H   H1540     1.0  0.61728  0.48746  0.18197  1.0000
  H   H1541     1.0  0.64056  0.59842  0.16438  1.0000
  H   H1542     1.0  0.88463  0.97033  0.28834  1.0000
  C   C872      1.0  0.90531  0.59777  0.09217  1.0000
  C   C873      1.0  0.89496  0.58662  0.10954  1.0000
  C   C874      1.0  0.91657  0.57390  0.12249  1.0000
  C   C875      1.0  0.94898  0.57270  0.11840  1.0000
  C   C876      1.0  0.95951  0.58477  0.10120  1.0000
  C   C877      1.0  0.93775  0.59701  0.08814  1.0000
  H   H1543     1.0  0.87024  0.58752  0.11282  1.0000
  H   H1544     1.0  0.90815  0.56469  0.13575  1.0000
  H   H1545     1.0  0.52632  0.55526  0.16776  1.0000
  H   H1546     1.0  0.94609  0.60555  0.07471  1.0000
  C   C878      1.0  0.78387  0.74643  0.10069  1.0000
  C   C879      1.0  0.78865  0.73700  0.11927  1.0000
  C   C880      1.0  0.79911  0.75899  0.13278  1.0000
  C   C881      1.0  0.80509  0.79061  0.12790  1.0000
  C   C882      1.0  0.80062  0.79999  0.10928  1.0000
  C   C883      1.0  0.78991  0.77805  0.09580  1.0000
  H   H1547     1.0  0.78336  0.71300  0.12336  1.0000
  H   H1548     1.0  0.80225  0.75150  0.14717  1.0000
  H   H1549     1.0  0.80492  0.82425  0.10532  1.0000
  H   H1550     1.0  0.78597  0.78570  0.08152  1.0000
  C   C884      1.0  0.93551  0.97405  0.29286  1.0000
  C   C885      1.0  0.89952  0.92990  0.30381  1.0000
  H   H1551     1.0  0.66042  0.58589  0.98975  1.0000
  C   C886      1.0  0.84537  0.94878  0.22648  1.0000
  C   C887      1.0  0.84449  0.93969  0.24551  1.0000
  C   C888      1.0  0.83920  0.96194  0.25990  1.0000
  C   C889      1.0  0.80931  0.51689  0.12948  1.0000
  C   C890      1.0  0.97546  0.89773  0.10663  1.0000
  H   H1552     1.0  0.84743  0.91513  0.24912  1.0000
  H   H1553     1.0  0.83748  0.95426  0.27433  1.0000
  H   H1554     1.0  0.62308  0.53773  0.23720  1.0000
  C   C891      1.0  0.66499  0.59725  0.13798  1.0000
  C   C892      1.0  0.64439  0.54884  0.15516  1.0000
  C   C893      1.0  0.70524  0.60205  0.00056  1.0000
  C   C894      1.0  0.73446  0.61564  0.99626  1.0000
  S   S208      1.0  0.82051  0.98225  0.12015  1.0000
  H   H1555     1.0  0.69998  0.59549  0.01490  1.0000
  H   H1556     1.0  0.94620  0.93695  0.23396  1.0000
  H   H1557     1.0  0.61667  0.58862  0.14425  1.0000
  C   C895      1.0  0.62552  0.53137  0.20703  1.0000
  H   H1558     1.0  0.87711  0.91726  0.30083  1.0000
  H   H1559     1.0  0.79904  0.59374  0.14644  1.0000
  H   H1560     1.0  0.96606  0.96260  0.26284  1.0000
  N   N52       1.0  0.88803  0.71581  0.09850  1.0000
  C   C896      1.0  0.92138  0.71431  0.09119  1.0000
  C   C897      1.0  0.88337  0.74538  0.11009  1.0000
  C   C898      1.0  0.88308  0.68754  0.11113  1.0000
  C   C899      1.0  0.86411  0.71395  0.08287  1.0000
  C   C900      1.0  0.86607  0.73996  0.06769  1.0000
  H   H1561     1.0  0.58448  0.56382  0.16267  1.0000
  C   C901      1.0  0.85176  0.68657  0.12235  1.0000
  C   C902      1.0  0.90229  0.77531  0.10428  1.0000
  C   C903      1.0  0.89137  0.80433  0.11513  1.0000
  C   C904      1.0  0.84409  0.73275  0.05126  1.0000
  H   H1562     1.0  0.71270  0.85882  0.14812  1.0000
  C   C905      1.0  0.85031  0.65778  0.13521  1.0000
  H   H1563     1.0  0.70305  0.81743  0.14797  1.0000
  H   H1564     1.0  0.92694  0.73464  0.08199  1.0000
  H   H1565     1.0  0.85795  0.75169  0.11056  1.0000
  H   H1566     1.0  0.89024  0.74119  0.12498  1.0000
  H   H1567     1.0  0.90273  0.68576  0.12144  1.0000
  H   H1568     1.0  0.88348  0.66533  0.10283  1.0000
  H   H1569     1.0  0.86475  0.69050  0.07591  1.0000
  H   H1570     1.0  0.83987  0.71544  0.08861  1.0000
  H   H1571     1.0  0.89007  0.74241  0.06181  1.0000
  H   H1572     1.0  0.85850  0.76278  0.07374  1.0000
  H   H1573     1.0  0.82004  0.96089  0.05903  1.0000
  C   C906      1.0  0.50374  0.66426  0.30431  1.0000
  H   H1574     1.0  0.83140  0.68502  0.11270  1.0000
  H   H1575     1.0  0.84895  0.70771  0.13130  1.0000
  H   H1576     1.0  0.92764  0.77195  0.10745  1.0000
  H   H1577     1.0  0.90014  0.78059  0.08914  1.0000
  H   H1578     1.0  0.86699  0.81057  0.11106  1.0000
  H   H1579     1.0  0.89214  0.80010  0.13051  1.0000
  H   H1580     1.0  0.90689  0.82478  0.11184  1.0000
  H   H1581     1.0  0.81936  0.73065  0.05616  1.0000
  H   H1582     1.0  0.84538  0.75214  0.04082  1.0000
  H   H1583     1.0  0.85102  0.71048  0.04425  1.0000
  C   C907      1.0  0.59016  0.53848  0.16428  1.0000
  H   H1584     1.0  0.94730  0.78174  0.15265  1.0000
  H   H1585     1.0  0.95475  0.95652  0.29404  1.0000
  H   H1586     1.0  0.85178  0.63578  0.12687  1.0000
  H   H1587     1.0  0.86986  0.65836  0.14556  1.0000
  H   H1588     1.0  0.82762  0.65757  0.14296  1.0000
  H   H1589     1.0  0.96468  0.82044  0.15437  1.0000
  C   C908      1.0  0.70051  0.68978  0.02263  1.0000
  H   H1590     1.0  0.64062  0.53626  0.14162  1.0000
  C   C909      1.0  0.63961  0.58449  0.15123  1.0000
  H   H1591     1.0  0.91339  0.67960  0.06846  1.0000
  H   H1592     1.0  0.64483  0.51419  0.20887  1.0000
  H   H1593     1.0  0.68885  0.59401  0.14403  1.0000
  H   H1594     1.0  0.76191  0.97056  0.03606  1.0000
  H   H1595     1.0  0.80175  0.95781  0.08173  1.0000
  H   H1596     1.0  0.66130  0.62280  0.13552  1.0000
  H   H1597     1.0  0.93251  0.98435  0.30713  1.0000
  C   C910      1.0  0.93014  0.68419  0.08007  1.0000
  H   H1598     1.0  0.82279  0.50747  0.14166  1.0000
  H   H1599     1.0  0.66374  0.58501  0.12424  1.0000
  H   H1600     1.0  0.93041  0.66344  0.08953  1.0000
  H   H1601     1.0  0.84765  0.53703  0.09817  1.0000
  H   H1602     1.0  0.71839  0.69907  0.03260  1.0000
  H   H1603     1.0  0.67679  0.69347  0.02876  1.0000
  C   C911      1.0  0.56896  0.49360  0.24803  1.0000
  S   S209      1.0  0.55892  0.52115  0.26612  1.0000
  C   C912      1.0  0.92887  0.98140  0.24513  1.0000
  H   H1604     1.0  0.68614  0.62460  0.29898  1.0000
  C   C913      1.0  0.72770  0.97873  0.31288  1.0000
  S   S210      1.0  0.53656  0.56746  0.30959  1.0000
  H   H1605     1.0  0.52962  0.51809  0.15556  1.0000
  H   H1606     1.0  0.67952  0.49313  0.16070  1.0000
  H   H1607     1.0  0.86557  0.51936  0.11812  1.0000
  C   C914      1.0  0.56458  0.52547  0.17768  1.0000
  H   H1608     1.0  0.61559  0.57247  0.18978  1.0000
  C   C915      1.0  0.63032  0.55092  0.18874  1.0000
  H   H1609     1.0  0.60481  0.56867  0.22395  1.0000
  S   S211      1.0  0.97461  0.55394  0.13468  1.0000
  C   C916      1.0  0.64912  0.52362  0.09426  1.0000
  H   H1610     1.0  0.64767  0.61710  0.30863  1.0000
  N   N53       1.0  0.62397  0.53435  0.17031  1.0000
  N   N54       1.0  0.76429  0.85344  0.19928  1.0000
  C   C917      1.0  0.74356  0.86018  0.18256  1.0000
  C   C918      1.0  0.77501  0.88433  0.20772  1.0000
  C   C919      1.0  0.79332  0.83685  0.19215  1.0000
  C   C920      1.0  0.74842  0.83281  0.21384  1.0000
  C   C921      1.0  0.71217  0.83590  0.21600  1.0000
  C   C922      1.0  0.73527  0.83130  0.17010  1.0000
  C   C923      1.0  0.81945  0.83026  0.20684  1.0000
  C   C924      1.0  0.74911  0.90609  0.21564  1.0000
  C   C925      1.0  0.76296  0.93765  0.22199  1.0000
  C   C926      1.0  0.70042  0.81847  0.23346  1.0000
  H   H1611     1.0  0.77539  0.94961  0.21022  1.0000
  C   C927      1.0  0.84334  0.80657  0.19938  1.0000
  H   H1612     1.0  0.75511  0.87783  0.17320  1.0000
  H   H1613     1.0  0.72127  0.87145  0.18686  1.0000
  H   H1614     1.0  0.79145  0.88031  0.21962  1.0000
  H   H1615     1.0  0.78866  0.89808  0.19713  1.0000
  H   H1616     1.0  0.80444  0.85069  0.18059  1.0000
  H   H1617     1.0  0.78690  0.81365  0.18592  1.0000
  H   H1618     1.0  0.75269  0.80742  0.21082  1.0000
  H   H1619     1.0  0.75929  0.83696  0.22786  1.0000
  H   H1620     1.0  0.69996  0.82544  0.20372  1.0000
  H   H1621     1.0  0.70451  0.86066  0.21708  1.0000
  H   H1622     1.0  0.75559  0.82548  0.16099  1.0000
  H   H1623     1.0  0.72968  0.81015  0.17864  1.0000
  H   H1624     1.0  0.80956  0.82069  0.22008  1.0000
  H   H1625     1.0  0.83255  0.85229  0.21008  1.0000
  H   H1626     1.0  0.73083  0.91131  0.20504  1.0000
  H   H1627     1.0  0.73814  0.89511  0.22818  1.0000
  H   H1628     1.0  0.74388  0.95329  0.22699  1.0000
  H   H1629     1.0  0.77973  0.93406  0.23373  1.0000
  H   H1630     1.0  0.53766  0.70267  0.27982  1.0000
  H   H1631     1.0  0.67440  0.82033  0.23440  1.0000
  H   H1632     1.0  0.70669  0.79312  0.23275  1.0000
  H   H1633     1.0  0.71079  0.82899  0.24634  1.0000
  H   H1634     1.0  0.56496  0.53848  0.19116  1.0000
  H   H1635     1.0  0.90771  0.94191  0.27523  1.0000
  H   H1636     1.0  0.70456  0.66412  0.02094  1.0000
  H   H1637     1.0  0.85369  0.81501  0.18596  1.0000
  H   H1638     1.0  0.86264  0.80361  0.20972  1.0000
  H   H1639     1.0  0.83195  0.78329  0.19699  1.0000
  C   C928      1.0  0.66659  0.49154  0.17420  1.0000
  C   C929      1.0  0.96295  0.68702  0.07143  1.0000
  H   H1640     1.0  0.60336  0.51774  0.20700  1.0000
  H   H1641     1.0  0.75811  0.96252  0.29037  1.0000
  C   C930      1.0  0.79427  0.50752  0.09697  1.0000
  H   H1642     1.0  0.78383  0.93850  0.06195  1.0000
  C   C931      1.0  0.67091  0.49296  0.11960  1.0000
  C   C932      1.0  0.81344  0.55329  0.13006  1.0000
  H   H1643     1.0  0.95673  0.80414  0.13163  1.0000
  C   C933      1.0  0.62526  0.55250  0.22437  1.0000
  H   H1644     1.0  0.58643  0.52749  0.15021  1.0000
  C   C934      1.0  0.79495  0.56786  0.14624  1.0000
  H   H1645     1.0  0.93820  0.71618  0.10314  1.0000
  H   H1646     1.0  0.52185  0.68689  0.25827  1.0000
  H   H1647     1.0  0.71259  0.96797  0.04593  1.0000
  H   H1648     1.0  0.92182  0.95899  0.21812  1.0000
  H   H1649     1.0  0.75917  0.51825  0.06513  1.0000
  H   H1650     1.0  0.72813  0.70338  0.99886  1.0000
  H   H1651     1.0  0.62989  0.52862  0.08478  1.0000
  H   H1652     1.0  0.79339  0.53314  0.09395  1.0000
  C   C935      1.0  0.64571  0.49925  0.10755  1.0000
  H   H1653     1.0  0.56783  0.50003  0.18031  1.0000
  H   H1654     1.0  0.65508  0.55968  0.18931  1.0000
  H   H1655     1.0  0.76932  0.56355  0.14440  1.0000
  H   H1656     1.0  0.80568  0.56466  0.11688  1.0000
  H   H1657     1.0  0.83856  0.55932  0.13235  1.0000
  C   C936      1.0  0.53167  0.52983  0.16943  1.0000
  H   H1658     1.0  0.75623  0.95543  0.11963  1.0000
  C   C937      1.0  0.76688  0.49340  0.06653  1.0000
  H   H1659     1.0  0.68586  0.84268  0.16550  1.0000
  H   H1660     1.0  0.66973  0.54605  0.15861  1.0000
  C   C938      1.0  0.68283  0.59662  0.98623  1.0000
  C   C939      1.0  0.70745  0.83811  0.15717  1.0000
  C   C940      1.0  0.90030  0.51139  0.08547  1.0000
  C   C941      1.0  0.63134  0.49962  0.17102  1.0000
  H   H1661     1.0  0.91524  0.52022  0.09715  1.0000
  H   H1662     1.0  0.80268  0.55786  0.15987  1.0000
  C   C942      1.0  0.90542  0.95477  0.28865  1.0000
  N   N55       1.0  0.81921  0.50077  0.11148  1.0000
  H   H1663     1.0  0.71748  0.50711  0.12858  1.0000
  H   H1664     1.0  0.78088  0.51648  0.99193  1.0000
  H   H1665     1.0  0.74677  0.53619  0.00111  1.0000
  H   H1666     1.0  0.67807  0.50817  0.18408  1.0000
  C   C943      1.0  0.79705  0.95985  0.06644  1.0000
  C   C944      1.0  0.85084  0.51407  0.10554  1.0000
  C   C945      1.0  0.98062  0.88559  0.12460  1.0000
  H   H1667     1.0  0.54465  0.66199  0.27355  1.0000
  C   C946      1.0  0.96444  0.79826  0.14609  1.0000
  C   C947      1.0  0.75498  0.97994  0.11554  1.0000
  H   H1668     1.0  0.51392  0.51919  0.17902  1.0000
  H   H1669     1.0  0.91890  0.91246  0.30404  1.0000
  H   H1670     1.0  0.70490  0.97860  0.11023  1.0000
  H   H1671     1.0  0.52429  0.64803  0.30495  1.0000
  H   H1672     1.0  0.89240  0.53166  0.07682  1.0000
  H   H1673     1.0  0.77049  0.50178  0.10262  1.0000
  H   H1674     1.0  0.69999  0.73222  0.00642  1.0000
  C   C948      1.0  0.52718  0.68139  0.27317  1.0000
  S   S212      1.0  0.61204  0.55485  0.31054  1.0000
  C   C949      1.0  0.70361  0.70677  0.00378  1.0000
  C   C950      1.0  0.94058  0.96105  0.22894  1.0000
  H   H1675     1.0  0.96862  0.66487  0.06388  1.0000
  H   H1676     1.0  0.52985  0.50718  0.23061  1.0000
  H   H1677     1.0  0.96176  0.97179  0.22234  1.0000
  H   H1678     1.0  0.70701  0.97849  0.30350  1.0000
  H   H1679     1.0  0.65576  0.96879  0.05493  1.0000
  H   H1680     1.0  0.90717  0.97031  0.25057  1.0000
  H   H1681     1.0  0.51192  0.68690  0.31050  1.0000
  H   H1682     1.0  0.65572  0.69720  0.99590  1.0000
  H   H1683     1.0  0.96391  0.70679  0.06122  1.0000
  H   H1684     1.0  0.81608  0.50367  0.06934  1.0000
  H   H1685     1.0  0.77877  0.98093  0.30952  1.0000
  C   C951      1.0  0.55035  0.49231  0.23165  1.0000
  H   H1686     1.0  0.62403  0.48794  0.15767  1.0000
  C   C952      1.0  0.75722  0.98203  0.30072  1.0000
  H   H1687     1.0  0.68271  0.66792  0.98840  1.0000
  C   C953      1.0  0.79761  0.49137  0.07765  1.0000
  C   C954      1.0  0.67325  0.61317  0.31073  1.0000
  H   H1688     1.0  0.67818  0.58751  0.31041  1.0000
  C   C955      1.0  0.49700  0.67152  0.28333  1.0000
  H   H1689     1.0  0.98096  0.69078  0.08247  1.0000
  H   H1690     1.0  0.98515  0.68545  0.13818  1.0000
  C   C956      1.0  0.87208  0.49293  0.09314  1.0000
  H   H1691     1.0  0.98465  0.73553  0.14637  1.0000
  H   H1692     1.0  0.74204  0.49907  0.98913  1.0000
  H   H1693     1.0  0.48716  0.65078  0.27586  1.0000
  H   H1694     1.0  0.48573  0.60994  0.29748  1.0000
  C   C957      1.0  0.67923  0.69390  0.98936  1.0000
  H   H1695     1.0  0.98428  0.58380  0.09776  1.0000
  H   H1696     1.0  0.98243  0.75199  0.12370  1.0000
  H   H1697     1.0  0.91490  0.49583  0.07654  1.0000
  C   C958      1.0  0.95458  0.98580  0.26051  1.0000
  Fe  Fe106     1.0  0.63223  0.78631  0.39472  1.0000
  S   S213      1.0  0.60486  0.80932  0.41790  1.0000
  S   S214      1.0  0.62242  0.73316  0.39203  1.0000
  Fe  Fe107     1.0  0.66579  0.84876  0.38559  1.0000
  S   S215      1.0  0.63964  0.87557  0.40790  1.0000
  S   S216      1.0  0.70055  0.87016  0.36432  1.0000
  Fe  Fe108     1.0  0.64979  0.83371  0.42670  1.0000
  S   S217      1.0  0.65665  0.84034  0.45877  1.0000
  Fe  Fe109     1.0  0.59661  0.84905  0.39769  1.0000
  S   S218      1.0  0.54657  0.86920  0.39830  1.0000
  S   S219      1.0  0.67815  0.80799  0.40477  1.0000
  S   S220      1.0  0.62179  0.82496  0.37403  1.0000
  H   H1698     1.0  0.98036  0.65738  0.56772  1.0000
  S   S221      1.0  0.57162  0.55870  0.35020  1.0000
  H   H1699     1.0  0.52526  0.67951  0.33984  1.0000
  Fe  Fe110     1.0  0.53171  0.53573  0.33459  1.0000
  H   H1700     1.0  0.68745  0.77618  0.49520  1.0000
  C   C959      1.0  0.71633  0.57056  0.35793  1.0000
  C   C960      1.0  0.66212  0.97397  0.62381  1.0000
  C   C961      1.0  0.69518  0.66710  0.38637  1.0000
  Fe  Fe111     1.0  0.60294  0.52332  0.33559  1.0000
  Fe  Fe112     1.0  0.76824  0.84029  0.55594  1.0000
  S   S222      1.0  0.73354  0.83487  0.57982  1.0000
  S   S223      1.0  0.76091  0.83066  0.52424  1.0000
  Fe  Fe113     1.0  0.82423  0.85256  0.58367  1.0000
  S   S224      1.0  0.79276  0.84821  0.60880  1.0000
  S   S225      1.0  0.87830  0.85384  0.58468  1.0000
  Fe  Fe114     1.0  0.77149  0.80617  0.59422  1.0000
  S   S226      1.0  0.76164  0.76047  0.61049  1.0000
  Fe  Fe115     1.0  0.75776  0.87741  0.59244  1.0000
  S   S227      1.0  0.73695  0.92085  0.60721  1.0000
  S   S228      1.0  0.80434  0.80901  0.56984  1.0000
  S   S229      1.0  0.79096  0.88429  0.56784  1.0000
  H   H1701     1.0  0.67761  0.96263  0.33019  1.0000
  S   S230      1.0  0.87103  0.55090  0.61779  1.0000
  H   H1702     1.0  0.67411  0.94708  0.46888  1.0000
  H   H1703     1.0  0.86881  0.49648  0.55949  1.0000
  H   H1704     1.0  0.68757  0.71632  0.37879  1.0000
  H   H1705     1.0  0.92985  0.77392  0.61120  1.0000
  Fe  Fe116     1.0  0.84021  0.51494  0.63224  1.0000
  H   H1706     1.0  0.71912  0.57399  0.34258  1.0000
  H   H1707     1.0  0.57230  0.97557  0.42677  1.0000
  H   H1708     1.0  0.94898  0.58645  0.60901  1.0000
  C   C962      1.0  0.69771  0.93432  0.61055  1.0000
  C   C963      1.0  0.67150  0.91778  0.60379  1.0000
  C   C964      1.0  0.64085  0.92920  0.60710  1.0000
  C   C965      1.0  0.63594  0.95726  0.61717  1.0000
  H   H1709     1.0  0.51779  0.52340  0.38476  1.0000
  C   C966      1.0  0.69278  0.96255  0.62051  1.0000
  H   H1710     1.0  0.67484  0.89610  0.59610  1.0000
  H   H1711     1.0  0.62078  0.91608  0.60188  1.0000
  H   H1712     1.0  0.84599  0.72847  0.55194  1.0000
  C   C967      1.0  0.48876  0.64340  0.33488  1.0000
  C   C968      1.0  0.90651  0.87117  0.60017  1.0000
  C   C969      1.0  0.89798  0.89054  0.61520  1.0000
  C   C970      1.0  0.92138  0.90349  0.62706  1.0000
  C   C971      1.0  0.95353  0.89700  0.62425  1.0000
  C   C972      1.0  0.96199  0.87723  0.60940  1.0000
  C   C973      1.0  0.93865  0.86459  0.59741  1.0000
  H   H1713     1.0  0.87342  0.89582  0.61754  1.0000
  H   H1714     1.0  0.91449  0.91873  0.63848  1.0000
  C   C974      1.0  0.50491  0.79276  0.37747  1.0000
  H   H1715     1.0  0.94557  0.84970  0.58583  1.0000
  C   C975      1.0  0.78465  0.72566  0.61274  1.0000
  C   C976      1.0  0.81120  0.72022  0.60164  1.0000
  C   C977      1.0  0.82791  0.69171  0.60334  1.0000
  C   C978      1.0  0.81893  0.66857  0.61653  1.0000
  C   C979      1.0  0.79267  0.67422  0.62785  1.0000
  C   C980      1.0  0.77553  0.70247  0.62584  1.0000
  H   H1716     1.0  0.81871  0.73786  0.59165  1.0000
  H   H1717     1.0  0.70971  0.62428  0.33064  1.0000
  Fe  Fe117     1.0  0.57834  0.58849  0.32449  1.0000
  H   H1718     1.0  0.60808  0.95585  0.42025  1.0000
  C   C981      1.0  0.68635  0.83801  0.47661  1.0000
  C   C982      1.0  0.71726  0.82861  0.47289  1.0000
  C   C983      1.0  0.73960  0.82677  0.48759  1.0000
  C   C984      1.0  0.73163  0.83448  0.50624  1.0000
  C   C985      1.0  0.70075  0.84398  0.50996  1.0000
  C   C986      1.0  0.67836  0.84564  0.49528  1.0000
  H   H1719     1.0  0.72394  0.82261  0.45870  1.0000
  H   H1720     1.0  0.76333  0.81933  0.48446  1.0000
  H   H1721     1.0  0.69406  0.84990  0.52416  1.0000
  H   H1722     1.0  0.65458  0.85283  0.49844  1.0000
  C   C987      1.0  0.72648  0.90319  0.36617  1.0000
  C   C988      1.0  0.74615  0.91079  0.35088  1.0000
  C   C989      1.0  0.76620  0.93746  0.35134  1.0000
  C   C990      1.0  0.76679  0.95696  0.36714  1.0000
  C   C991      1.0  0.74741  0.94918  0.38252  1.0000
  C   C992      1.0  0.72731  0.92255  0.38204  1.0000
  H   H1723     1.0  0.74576  0.89597  0.33854  1.0000
  H   H1724     1.0  0.78110  0.94292  0.33946  1.0000
  H   H1725     1.0  0.65605  0.53020  0.61692  1.0000
  H   H1726     1.0  0.71240  0.91704  0.39392  1.0000
  C   C993      1.0  0.52060  0.87771  0.37939  1.0000
  C   C994      1.0  0.52957  0.87431  0.36064  1.0000
  C   C995      1.0  0.50811  0.88132  0.34613  1.0000
  C   C996      1.0  0.85789  0.78777  0.63116  1.0000
  H   H1727     1.0  0.91506  0.52836  0.58181  1.0000
  H   H1728     1.0  0.53471  0.93788  0.48372  1.0000
  H   H1729     1.0  0.55306  0.86640  0.35729  1.0000
  H   H1730     1.0  0.51538  0.87873  0.33167  1.0000
  H   H1731     1.0  0.71698  0.59959  0.38308  1.0000
  C   C997      1.0  0.60974  0.70943  0.37284  1.0000
  C   C998      1.0  0.61082  0.71990  0.35423  1.0000
  C   C999      1.0  0.60280  0.69919  0.33944  1.0000
  C   C1000     1.0  0.59366  0.66782  0.34305  1.0000
  C   C1001     1.0  0.59169  0.65767  0.36167  1.0000
  C   C1002     1.0  0.59975  0.67832  0.37644  1.0000
  H   H1732     1.0  0.61848  0.74373  0.35121  1.0000
  H   H1733     1.0  0.75357  0.63891  0.54741  1.0000
  H   H1734     1.0  0.58428  0.63378  0.36470  1.0000
  H   H1735     1.0  0.59861  0.67003  0.39079  1.0000
  C   C1003     1.0  0.55669  0.95208  0.48254  1.0000
  H   H1736     1.0  0.74429  0.68821  0.52986  1.0000
  C   C1004     1.0  0.65794  0.60960  0.38052  1.0000
  H   H1737     1.0  0.75653  0.68785  0.56667  1.0000
  H   H1738     1.0  0.77349  0.76788  0.53491  1.0000
  H   H1739     1.0  0.54455  0.94855  0.40000  1.0000
  C   C1005     1.0  0.91040  0.68329  0.63267  1.0000
  H   H1740     1.0  0.81571  0.82995  0.64822  1.0000
  C   C1006     1.0  0.64653  0.57500  0.38061  1.0000
  H   H1741     1.0  0.90847  0.92781  0.36584  1.0000
  H   H1742     1.0  0.69997  0.73367  0.59418  1.0000
  C   C1007     1.0  0.57059  0.95106  0.40050  1.0000
  H   H1743     1.0  0.67305  0.73608  0.49628  1.0000
  H   H1744     1.0  0.68138  0.76964  0.55831  1.0000
  H   H1745     1.0  0.66843  0.61355  0.39462  1.0000
  H   H1746     1.0  0.63677  0.62475  0.37991  1.0000
  S   S231      1.0  0.98199  0.91428  0.63959  1.0000
  C   C1008     1.0  0.82819  0.73823  0.54216  1.0000
  C   C1009     1.0  0.96285  0.51772  0.57342  1.0000
  H   H1747     1.0  0.50163  0.81083  0.38851  1.0000
  C   C1010     1.0  0.69386  0.75112  0.49311  1.0000
  H   H1748     1.0  0.89728  0.96758  0.42254  1.0000
  H   H1749     1.0  0.58330  0.83648  0.47740  1.0000
  C   C1011     1.0  0.65221  0.97417  0.35521  1.0000
  H   H1750     1.0  0.58131  0.93033  0.39352  1.0000
  H   H1751     1.0  0.72882  0.95539  0.31989  1.0000
  H   H1752     1.0  0.62317  0.52609  0.63274  1.0000
  H   H1753     1.0  0.66615  0.55911  0.38438  1.0000
  H   H1754     1.0  0.74338  0.54821  0.38022  1.0000
  H   H1755     1.0  0.59960  0.58406  0.39174  1.0000
  C   C1012     1.0  0.90683  0.76994  0.57637  1.0000
  C   C1013     1.0  0.79530  0.72792  0.54846  1.0000
  H   H1756     1.0  0.71112  0.63851  0.55008  1.0000
  H   H1757     1.0  0.74248  0.75567  0.50062  1.0000
  C   C1014     1.0  0.62065  0.56977  0.39520  1.0000
  H   H1758     1.0  0.48874  0.58353  0.36504  1.0000
  C   C1015     1.0  0.71204  0.60290  0.36785  1.0000
  H   H1759     1.0  0.84192  0.77635  0.62078  1.0000
  H   H1760     1.0  0.92947  0.95839  0.39445  1.0000
  H   H1761     1.0  0.90405  0.80574  0.60863  1.0000
  H   H1762     1.0  0.68988  0.74477  0.52922  1.0000
  C   C1016     1.0  0.72952  0.69975  0.54076  1.0000
  C   C1017     1.0  0.89563  0.94925  0.36135  1.0000
  C   C1018     1.0  0.88801  0.96997  0.37825  1.0000
  H   H1763     1.0  0.52179  0.68239  0.37352  1.0000
  H   H1764     1.0  0.93025  0.75861  0.57732  1.0000
  C   C1019     1.0  0.73370  0.64609  0.55656  1.0000
  C   C1020     1.0  0.68565  0.65442  0.36676  1.0000
  H   H1765     1.0  0.70483  0.69466  0.53638  1.0000
  H   H1766     1.0  0.73624  0.63392  0.57029  1.0000
  C   C1021     1.0  0.71504  0.75059  0.52651  1.0000
  H   H1767     1.0  0.61834  0.93987  0.36574  1.0000
  C   C1022     1.0  0.91424  0.82304  0.64590  1.0000
  S   S232      1.0  0.58520  0.64218  0.32390  1.0000
  H   H1768     1.0  0.87340  0.94181  0.35439  1.0000
  H   H1769     1.0  0.63152  0.49376  0.59446  1.0000
  H   H1770     1.0  0.75503  0.70636  0.63452  1.0000
  S   S233      1.0  0.81261  0.55144  0.64792  1.0000
  N   N56       1.0  0.58072  0.92440  0.45291  1.0000
  C   C1023     1.0  0.56628  0.89540  0.46180  1.0000
  H   H1771     1.0  0.92367  0.83218  0.63248  1.0000
  C   C1024     1.0  0.57201  0.92417  0.43235  1.0000
  C   C1025     1.0  0.61623  0.92447  0.45425  1.0000
  C   C1026     1.0  0.63066  0.92066  0.47403  1.0000
  C   C1027     1.0  0.57353  0.86359  0.45211  1.0000
  H   H1772     1.0  0.52392  0.64138  0.36713  1.0000
  H   H1773     1.0  0.62271  0.93968  0.48345  1.0000
  C   C1028     1.0  0.73417  0.68172  0.55958  1.0000
  C   C1029     1.0  0.66659  0.92309  0.47330  1.0000
  C   C1030     1.0  0.56714  0.83567  0.46515  1.0000
  H   H1774     1.0  0.94891  0.68525  0.56510  1.0000
  H   H1775     1.0  0.54014  0.89744  0.46186  1.0000
  H   H1776     1.0  0.57321  0.89336  0.47675  1.0000
  H   H1777     1.0  0.60424  0.70740  0.32509  1.0000
  C   C1031     1.0  0.67260  0.86879  0.64948  1.0000
  H   H1778     1.0  0.49030  0.77630  0.33821  1.0000
  H   H1779     1.0  0.58287  0.90373  0.42516  1.0000
  H   H1780     1.0  0.62644  0.90574  0.44525  1.0000
  H   H1781     1.0  0.62600  0.94687  0.44858  1.0000
  H   H1782     1.0  0.62455  0.89734  0.48011  1.0000
  S   S234      1.0  0.95741  0.54081  0.63954  1.0000
  H   H1783     1.0  0.55836  0.86069  0.43953  1.0000
  H   H1784     1.0  0.59824  0.86236  0.44746  1.0000
  H   H1785     1.0  0.74773  0.96400  0.39486  1.0000
  H   H1786     1.0  0.49007  0.82599  0.31966  1.0000
  C   C1032     1.0  0.91724  0.71857  0.63118  1.0000
  C   C1033     1.0  0.66618  0.61269  0.34628  1.0000
  H   H1787     1.0  0.71681  0.77675  0.52774  1.0000
  H   H1788     1.0  0.74268  0.73902  0.57112  1.0000
  C   C1034     1.0  0.97368  0.58057  0.60990  1.0000
  H   H1789     1.0  0.72801  0.70355  0.37686  1.0000
  H   H1790     1.0  0.67653  0.91824  0.48742  1.0000
  H   H1791     1.0  0.67647  0.90566  0.46333  1.0000
  H   H1792     1.0  0.57141  0.81333  0.45749  1.0000
  H   H1793     1.0  0.70070  0.96078  0.35066  1.0000
  H   H1794     1.0  0.54235  0.83579  0.47008  1.0000
  H   H1795     1.0  0.89395  0.75970  0.56425  1.0000
  C   C1035     1.0  0.53293  0.77254  0.38329  1.0000
  H   H1796     1.0  0.97584  0.49982  0.56525  1.0000
  H   H1797     1.0  0.79476  0.70183  0.54777  1.0000
  C   C1036     1.0  0.91158  0.78658  0.64531  1.0000
  H   H1798     1.0  0.76055  0.49673  0.62237  1.0000
  C   C1037     1.0  0.76963  0.74192  0.53562  1.0000
  H   H1799     1.0  0.93588  0.77772  0.64332  1.0000
  H   H1800     1.0  0.87172  0.97219  0.45373  1.0000
  H   H1801     1.0  0.77503  0.73281  0.52138  1.0000
  C   C1038     1.0  0.70608  0.70145  0.38526  1.0000
  H   H1802     1.0  0.79214  0.73567  0.56314  1.0000
  H   H1803     1.0  0.72607  0.71671  0.50387  1.0000
  C   C1039     1.0  0.68913  0.75365  0.58650  1.0000
  H   H1804     1.0  0.89832  0.67752  0.64609  1.0000
  H   H1805     1.0  0.71079  0.71055  0.39960  1.0000
  N   N57       1.0  0.68074  0.61915  0.36524  1.0000
  H   H1806     1.0  0.87854  0.73345  0.64830  1.0000
  H   H1807     1.0  0.67641  0.86785  0.63406  1.0000
  H   H1808     1.0  0.67908  0.65317  0.32864  1.0000
  H   H1809     1.0  0.83321  0.72938  0.52782  1.0000
  C   C1040     1.0  0.50251  0.67176  0.34602  1.0000
  C   C1041     1.0  0.88680  0.73815  0.63374  1.0000
  C   C1042     1.0  0.68286  0.97544  0.34337  1.0000
  C   C1043     1.0  0.98422  0.69881  0.58562  1.0000
  H   H1810     1.0  0.84810  0.68759  0.59445  1.0000
  C   C1044     1.0  0.68392  0.62748  0.32933  1.0000
  H   H1811     1.0  0.54606  0.92095  0.43071  1.0000
  H   H1812     1.0  0.65843  0.92656  0.36607  1.0000
  H   H1813     1.0  0.85892  0.81295  0.62671  1.0000
  H   H1814     1.0  0.86430  0.77470  0.59227  1.0000
  N   N58       1.0  0.89014  0.77312  0.63041  1.0000
  H   H1815     1.0  0.69997  0.77603  0.59138  1.0000
  H   H1816     1.0  0.91016  0.96245  0.35102  1.0000
  Fe  Fe118     1.0  0.84611  0.58757  0.63526  1.0000
  H   H1817     1.0  0.66348  0.58708  0.34362  1.0000
  S   S235      1.0  0.56220  0.49784  0.32183  1.0000
  H   H1818     1.0  0.67460  0.66634  0.39600  1.0000
  C   C1045     1.0  0.64091  0.94018  0.35789  1.0000
  H   H1819     1.0  0.71491  0.68735  0.56952  1.0000
  H   H1820     1.0  0.52822  0.76052  0.39687  1.0000
  C   C1046     1.0  0.98390  0.55935  0.62359  1.0000
  H   H1821     1.0  0.64170  0.62176  0.34585  1.0000
  H   H1822     1.0  0.61368  0.54450  0.39524  1.0000
  H   H1823     1.0  0.92141  0.50409  0.61174  1.0000
  C   C1047     1.0  0.56722  0.95395  0.46165  1.0000
  S   S236      1.0  0.64224  0.50483  0.35477  1.0000
  H   H1824     1.0  0.78538  0.65671  0.63803  1.0000
  H   H1825     1.0  0.69605  0.55452  0.35999  1.0000
  H   H1826     1.0  0.70421  0.66247  0.35680  1.0000
  C   C1048     1.0  0.72887  0.74990  0.55964  1.0000
  H   H1827     1.0  0.50769  0.62533  0.33409  1.0000
  N   N59       1.0  0.73589  0.73488  0.54092  1.0000
  C   C1049     1.0  0.48991  0.88809  0.38343  1.0000
  H   H1828     1.0  0.51154  0.80488  0.36425  1.0000
  H   H1829     1.0  0.63656  0.56820  0.36688  1.0000
  C   C1050     1.0  0.63032  0.52553  0.61775  1.0000
  H   H1830     1.0  0.70033  0.74781  0.47815  1.0000
  H   H1831     1.0  0.87370  0.49339  0.59366  1.0000
  C   C1051     1.0  0.69355  0.74976  0.56537  1.0000
  H   H1832     1.0  0.95000  0.66019  0.58553  1.0000
  H   H1833     1.0  0.73681  0.77496  0.55957  1.0000
  H   H1834     1.0  0.53040  0.50080  0.40476  1.0000
  H   H1835     1.0  0.92815  0.72261  0.61728  1.0000
  C   C1052     1.0  0.50908  0.66280  0.36641  1.0000
  H   H1836     1.0  0.54557  0.96137  0.45402  1.0000
  H   H1837     1.0  0.66384  0.66712  0.36254  1.0000
  C   C1053     1.0  0.96644  0.54874  0.56266  1.0000
  H   H1838     1.0  0.74835  0.53098  0.35737  1.0000
  H   H1839     1.0  0.96738  0.71570  0.59181  1.0000
  H   H1840     1.0  0.58403  0.97404  0.46011  1.0000
  Fe  Fe119     1.0  0.90402  0.54662  0.64211  1.0000
  H   H1841     1.0  0.91010  0.79555  0.57373  1.0000
  H   H1842     1.0  0.55822  0.52565  0.39223  1.0000
  H   H1843     1.0  0.71450  0.65299  0.39253  1.0000
  H   H1844     1.0  0.53823  0.75462  0.37240  1.0000
  C   C1054     1.0  0.58207  0.95361  0.42077  1.0000
  H   H1845     1.0  0.76703  0.56823  0.36263  1.0000
  H   H1846     1.0  0.66364  0.75416  0.58990  1.0000
  H   H1847     1.0  0.68159  0.72763  0.56107  1.0000
  S   S237      1.0  0.59670  0.97000  0.62131  1.0000
  C   C1055     1.0  0.74563  0.55360  0.36502  1.0000
  C   C1056     1.0  0.88800  0.76440  0.59436  1.0000
  S   S238      1.0  0.84149  0.63335  0.61805  1.0000
  H   H1848     1.0  0.57444  0.94100  0.49170  1.0000
  H   H1849     1.0  0.83042  0.76431  0.54216  1.0000
  H   H1850     1.0  0.86798  0.72800  0.62473  1.0000
  C   C1057     1.0  0.96471  0.67378  0.57543  1.0000
  H   H1851     1.0  0.88546  0.73858  0.59611  1.0000
  H   H1852     1.0  0.55409  0.78778  0.38505  1.0000
  H   H1853     1.0  0.71288  0.97554  0.62579  1.0000
  H   H1854     1.0  0.62917  0.57611  0.40945  1.0000
  H   H1855     1.0  0.61792  0.54447  0.60999  1.0000
  H   H1856     1.0  0.63707  0.92844  0.34415  1.0000
  H   H1857     1.0  0.73173  0.61805  0.36269  1.0000
  C   C1058     1.0  0.72158  0.74224  0.50568  1.0000
  C   C1059     1.0  0.90444  0.78004  0.61145  1.0000
  H   H1858     1.0  0.79429  0.79611  0.63929  1.0000
  H   H1859     1.0  0.91915  0.50684  0.56049  1.0000
  H   H1860     1.0  0.48670  0.65835  0.37402  1.0000
  H   H1861     1.0  0.89765  0.94103  0.31784  1.0000
  H   H1862     1.0  0.97398  0.52083  0.58737  1.0000
  C   C1060     1.0  0.91845  0.98018  0.38875  1.0000
  H   H1863     1.0  0.65591  0.98410  0.36941  1.0000
  H   H1864     1.0  0.87246  0.95576  0.38753  1.0000
  H   H1865     1.0  0.63867  0.90567  0.64708  1.0000
  H   H1866     1.0  0.48616  0.69198  0.34614  1.0000
  H   H1867     1.0  0.57747  0.97253  0.39256  1.0000
  H   H1868     1.0  0.89531  0.67559  0.62080  1.0000
  H   H1869     1.0  0.93271  0.66986  0.63202  1.0000
  C   C1061     1.0  0.62297  0.49335  0.60916  1.0000
  C   C1062     1.0  0.92775  0.50828  0.57518  1.0000
  H   H1870     1.0  0.95297  0.56777  0.56962  1.0000
  H   H1871     1.0  0.95793  0.54608  0.54801  1.0000
  H   H1872     1.0  0.93461  0.72472  0.64223  1.0000
  H   H1873     1.0  0.52314  0.49651  0.60235  1.0000
  H   H1874     1.0  0.70448  0.98300  0.58008  1.0000
  C   C1063     1.0  0.58710  0.48601  0.60996  1.0000
  C   C1064     1.0  0.53760  0.50967  0.39073  1.0000
  H   H1875     1.0  0.57525  0.50542  0.60226  1.0000
  H   H1876     1.0  0.89109  0.83411  0.64855  1.0000
  H   H1877     1.0  0.55102  0.49244  0.36370  1.0000
  H   H1878     1.0  0.67867  0.91876  0.65012  1.0000
  H   H1879     1.0  0.95112  0.98546  0.42189  1.0000
  C   C1065     1.0  0.54974  0.98480  0.49041  1.0000
  H   H1880     1.0  0.54130  0.98265  0.50511  1.0000
  H   H1881     1.0  0.57903  0.48852  0.62474  1.0000
  C   C1066     1.0  0.84079  0.78546  0.65039  1.0000
  C   C1067     1.0  0.81047  0.80455  0.65044  1.0000
  Fe  Fe120     1.0  0.69519  0.60665  0.88137  1.0000
  S   S239      1.0  0.66220  0.57286  0.89555  1.0000
  S   S240      1.0  0.74210  0.59184  0.86860  1.0000
  Fe  Fe121     1.0  0.65283  0.66386  0.89021  1.0000
  S   S241      1.0  0.61737  0.63299  0.90503  1.0000
  S   S242      1.0  0.64309  0.71676  0.89188  1.0000
  Fe  Fe122     1.0  0.65942  0.60954  0.91845  1.0000
  S   S243      1.0  0.66010  0.59735  0.94990  1.0000
  Fe  Fe123     1.0  0.62358  0.59974  0.88082  1.0000
  S   S244      1.0  0.58725  0.57489  0.86218  1.0000
  S   S245      1.0  0.69442  0.64207  0.90497  1.0000
  S   S246      1.0  0.65722  0.63179  0.86529  1.0000
  Fe  Fe124     1.0  0.59399  0.86541  0.82647  1.0000
  S   S247      1.0  0.57700  0.89442  0.85085  1.0000
  S   S248      1.0  0.60717  0.81290  0.82594  1.0000
  Fe  Fe125     1.0  0.58425  0.92111  0.79800  1.0000
  C   C1068     1.0  0.77061  0.51151  0.92016  1.0000
  S   S249      1.0  0.57900  0.92946  0.76600  1.0000
  Fe  Fe126     1.0  0.60773  0.93328  0.83841  1.0000
  Fe  Fe127     1.0  0.53865  0.91189  0.83153  1.0000
  S   S250      1.0  0.62598  0.90324  0.81461  1.0000
  S   S251      1.0  0.55402  0.88060  0.80796  1.0000
  H   H1882     1.0  0.63002  0.74945  0.82563  1.0000
  Fe  Fe128     1.0  0.84930  0.54480  0.67074  1.0000
  C   C1069     1.0  0.73408  0.54829  0.76914  1.0000
  S   S252      1.0  0.88050  0.58408  0.65939  1.0000
  H   H1883     1.0  0.49380  0.66067  0.85553  1.0000
  C   C1070     1.0  0.66076  0.90144  0.65492  1.0000
  H   H1884     1.0  0.52318  0.71274  0.80734  1.0000
  H   H1885     1.0  0.60379  0.68485  0.93551  1.0000
  H   H1886     1.0  0.74605  0.91703  0.84466  1.0000
  C   C1071     1.0  0.58012  0.96187  0.74995  1.0000
  C   C1072     1.0  0.76779  0.58221  0.91396  1.0000
  H   H1887     1.0  0.77798  0.49126  0.81333  1.0000
  H   H1888     1.0  0.80772  0.49170  0.89025  1.0000
  H   H1889     1.0  0.53845  0.70291  0.90355  1.0000
  C   C1073     1.0  0.56791  0.95768  0.73172  1.0000
  H   H1890     1.0  0.52824  0.76923  0.79800  1.0000
  C   C1074     1.0  0.74072  0.49654  0.86063  1.0000
  H   H1891     1.0  0.72011  0.52845  0.68071  1.0000
  H   H1892     1.0  0.51640  0.91627  0.78045  1.0000
  C   C1075     1.0  0.68914  0.60490  0.96745  1.0000
  H   H1893     1.0  0.74922  0.57412  0.74417  1.0000
  C   C1076     1.0  0.71820  0.61878  0.96318  1.0000
  H   H1894     1.0  0.50642  0.76430  0.81947  1.0000
  H   H1895     1.0  0.72339  0.62538  0.94886  1.0000
  H   H1896     1.0  0.56346  0.72655  0.80603  1.0000
  C   C1077     1.0  0.79347  0.51496  0.85405  1.0000
  C   C1078     1.0  0.78420  0.54583  0.85872  1.0000
  C   C1079     1.0  0.75310  0.55227  0.86419  1.0000
  C   C1080     1.0  0.73148  0.52737  0.86537  1.0000
  H   H1897     1.0  0.66584  0.66484  0.95691  1.0000
  H   H1898     1.0  0.81745  0.51036  0.84977  1.0000
  H   H1899     1.0  0.80116  0.56491  0.85789  1.0000
  H   H1900     1.0  0.70745  0.53197  0.86950  1.0000
  C   C1081     1.0  0.54547  0.57767  0.86139  1.0000
  C   C1082     1.0  0.52899  0.56185  0.84705  1.0000
  H   H1901     1.0  0.70881  0.61478  0.82432  1.0000
  H   H1902     1.0  0.66643  0.51038  0.91584  1.0000
  H   H1903     1.0  0.72807  0.72663  0.96751  1.0000
  C   C1083     1.0  0.52839  0.59489  0.87460  1.0000
  H   H1904     1.0  0.83692  0.51275  0.79814  1.0000
  H   H1905     1.0  0.50644  0.96811  0.79935  1.0000
  C   C1084     1.0  0.65343  0.79356  0.95635  1.0000
  H   H1906     1.0  0.54067  0.60683  0.88584  1.0000
  C   C1085     1.0  0.61729  0.78679  0.84458  1.0000
  C   C1086     1.0  0.61471  0.79531  0.86348  1.0000
  C   C1087     1.0  0.62255  0.77356  0.87773  1.0000
  C   C1088     1.0  0.63294  0.74301  0.87333  1.0000
  C   C1089     1.0  0.63546  0.73445  0.85444  1.0000
  C   C1090     1.0  0.62772  0.75622  0.84019  1.0000
  H   H1907     1.0  0.60676  0.81869  0.86711  1.0000
  H   H1908     1.0  0.62064  0.78054  0.89227  1.0000
  H   H1909     1.0  0.64395  0.71127  0.85083  1.0000
  H   H1910     1.0  0.54681  0.77806  0.82008  1.0000
  H   H1911     1.0  0.52779  0.97078  0.77816  1.0000
  H   H1912     1.0  0.70309  0.57564  0.83347  1.0000
  C   C1091     1.0  0.80075  0.54779  0.80550  1.0000
  H   H1913     1.0  0.75589  0.98472  0.86281  1.0000
  H   H1914     1.0  0.63423  0.61222  0.82087  1.0000
  C   C1092     1.0  0.77147  0.56589  0.93326  1.0000
  C   C1093     1.0  0.83196  0.53805  0.79582  1.0000
  H   H1915     1.0  0.77921  0.56832  0.77524  1.0000
  H   H1916     1.0  0.65150  0.80632  0.94278  1.0000
  H   H1917     1.0  0.49494  0.90691  0.75932  1.0000
  C   C1094     1.0  0.67057  0.74244  0.97158  1.0000
  C   C1095     1.0  0.85994  0.55632  0.80389  1.0000
  H   H1918     1.0  0.74534  0.53284  0.82368  1.0000
  N   N60       1.0  0.77081  0.53399  0.79739  1.0000
  C   C1096     1.0  0.77162  0.49024  0.85469  1.0000
  H   H1919     1.0  0.83113  0.54271  0.78051  1.0000
  H   H1920     1.0  0.80282  0.54165  0.82058  1.0000
  H   H1921     1.0  0.96285  0.93970  0.70394  1.0000
  C   C1097     1.0  0.70899  0.58935  0.82064  1.0000
  H   H1922     1.0  0.79687  0.56568  0.93708  1.0000
  C   C1098     1.0  0.49583  0.56288  0.84600  1.0000
  S   S253      1.0  0.56782  0.95322  0.82113  1.0000
  C   C1099     1.0  0.65797  0.68975  0.95768  1.0000
  C   C1100     1.0  0.84330  0.50916  0.71875  1.0000
  H   H1923     1.0  0.72265  0.48597  0.79841  1.0000
  C   C1101     1.0  0.93665  0.83398  0.66139  1.0000
  N   N61       1.0  0.75732  0.53335  0.93485  1.0000
  H   H1924     1.0  0.64866  0.95394  0.74080  1.0000
  C   C1102     1.0  0.54120  0.72787  0.81415  1.0000
  C   C1103     1.0  0.78299  0.61494  0.91404  1.0000
  C   C1104     1.0  0.52996  0.76194  0.81293  1.0000
  H   H1925     1.0  0.77177  0.63015  0.92477  1.0000
  H   H1926     1.0  0.76235  0.48698  0.92271  1.0000
  H   H1927     1.0  0.65506  0.85039  0.65333  1.0000
  H   H1928     1.0  0.90461  0.77809  0.65951  1.0000
  C   C1105     1.0  0.54681  0.71793  0.83483  1.0000
  H   H1929     1.0  0.79073  0.51985  0.95630  1.0000
  H   H1930     1.0  0.88196  0.54846  0.79696  1.0000
  H   H1931     1.0  0.85725  0.58200  0.80140  1.0000
  H   H1932     1.0  0.86213  0.55186  0.81921  1.0000
  H   H1933     1.0  0.57710  0.67733  0.81141  1.0000
  H   H1934     1.0  0.52461  0.66261  0.81650  1.0000
  H   H1935     1.0  0.76152  0.51765  0.90595  1.0000
  C   C1106     1.0  0.66685  0.76075  0.95292  1.0000
  C   C1107     1.0  0.58214  0.67508  0.82666  1.0000
  H   H1936     1.0  0.57780  0.62340  0.82397  1.0000
  H   H1937     1.0  0.64392  0.65335  0.82359  1.0000
  H   H1938     1.0  0.58708  0.68261  0.86131  1.0000
  H   H1939     1.0  0.72088  0.53625  0.80395  1.0000
  H   H1940     1.0  0.51845  0.69832  0.87136  1.0000
  C   C1108     1.0  0.71375  0.70609  0.96273  1.0000
  C   C1109     1.0  0.72221  0.53548  0.93185  1.0000
  H   H1941     1.0  0.74648  0.59413  0.80040  1.0000
  H   H1942     1.0  0.66457  0.96448  0.66286  1.0000
  H   H1943     1.0  0.80514  0.96981  0.88631  1.0000
  H   H1944     1.0  0.75903  0.58735  0.82414  1.0000
  C   C1110     1.0  0.71839  0.70237  0.94125  1.0000
  C   C1111     1.0  0.75315  0.70435  0.93587  1.0000
  H   H1945     1.0  0.71075  0.55620  0.74244  1.0000
  H   H1946     1.0  0.68383  0.94810  0.71345  1.0000
  C   C1112     1.0  0.74153  0.58031  0.81330  1.0000
  H   H1947     1.0  0.61348  0.94776  0.65907  1.0000
  H   H1948     1.0  0.65845  0.69816  0.94294  1.0000
  C   C1113     1.0  0.75606  0.96489  0.83493  1.0000
  H   H1949     1.0  0.72559  0.68513  0.96882  1.0000
  H   H1950     1.0  0.59947  0.63596  0.84424  1.0000
  H   H1951     1.0  0.69299  0.97840  0.88256  1.0000
  H   H1952     1.0  0.97952  0.88548  0.70872  1.0000
  H   H1953     1.0  0.84355  0.97609  0.87606  1.0000
  H   H1954     1.0  0.81701  0.53327  0.91445  1.0000
  H   H1955     1.0  0.88935  0.96578  0.83955  1.0000
  H   H1956     1.0  0.74199  0.98433  0.82882  1.0000
  H   H1957     1.0  0.55991  0.97838  0.70430  1.0000
  H   H1958     1.0  0.54194  0.54842  0.83676  1.0000
  H   H1959     1.0  0.56677  0.73255  0.84014  1.0000
  H   H1960     1.0  0.70971  0.67883  0.93688  1.0000
  H   H1961     1.0  0.70551  0.72028  0.93305  1.0000
  H   H1962     1.0  0.75570  0.70035  0.92054  1.0000
  H   H1963     1.0  0.76290  0.72800  0.93927  1.0000
  H   H1964     1.0  0.76684  0.68604  0.94341  1.0000
  H   H1965     1.0  0.48733  0.69367  0.83992  1.0000
  C   C1114     1.0  0.73317  0.93802  0.83951  1.0000
  H   H1966     1.0  0.74537  0.53200  0.74089  1.0000
  H   H1967     1.0  0.78114  0.52868  0.76788  1.0000
  H   H1968     1.0  0.71221  0.55580  0.93963  1.0000
  H   H1969     1.0  0.67998  0.92681  0.74574  1.0000
  H   H1970     1.0  0.65775  0.53010  0.93775  1.0000
  C   C1115     1.0  0.56154  0.67805  0.85871  1.0000
  H   H1971     1.0  0.77901  0.56837  0.90263  1.0000
  N   N62       1.0  0.64164  0.93447  0.68322  1.0000
  C   C1116     1.0  0.63657  0.93224  0.70413  1.0000
  C   C1117     1.0  0.77397  0.97604  0.85278  1.0000
  C   C1118     1.0  0.65594  0.90411  0.67645  1.0000
  C   C1119     1.0  0.49409  0.66857  0.84067  1.0000
  C   C1120     1.0  0.76782  0.54481  0.77724  1.0000
  C   C1121     1.0  0.66660  0.92900  0.71633  1.0000
  C   C1122     1.0  0.95287  0.98407  0.66906  1.0000
  C   C1123     1.0  0.56947  0.98205  0.71819  1.0000
  H   H1972     1.0  0.68823  0.95572  0.68246  1.0000
  C   C1124     1.0  0.62562  0.63658  0.81854  1.0000
  H   H1973     1.0  0.80021  0.57398  0.80491  1.0000
  C   C1125     1.0  0.76487  0.52041  0.95406  1.0000
  H   H1974     1.0  0.62144  0.91161  0.70765  1.0000
  H   H1975     1.0  0.62334  0.95298  0.70924  1.0000
  H   H1976     1.0  0.96077  0.82503  0.65886  1.0000
  H   H1977     1.0  0.75705  0.49541  0.95525  1.0000
  H   H1978     1.0  0.64181  0.88352  0.68137  1.0000
  H   H1979     1.0  0.67964  0.90086  0.68274  1.0000
  H   H1980     1.0  0.75919  0.52382  0.69014  1.0000
  H   H1981     1.0  0.55770  0.65286  0.86253  1.0000
  H   H1982     1.0  0.64828  0.74444  0.97968  1.0000
  H   H1983     1.0  0.74256  0.58529  0.91049  1.0000
  H   H1984     1.0  0.67809  0.90601  0.71374  1.0000
  H   H1985     1.0  0.57749  0.67244  0.95398  1.0000
  C   C1126     1.0  0.74390  0.51894  0.67781  1.0000
  C   C1127     1.0  0.54423  0.69869  0.87340  1.0000
  H   H1986     1.0  0.65072  0.74859  0.94304  1.0000
  H   H1987     1.0  0.58148  0.90481  0.68888  1.0000
  H   H1988     1.0  0.71697  0.54057  0.91685  1.0000
  N   N63       1.0  0.55359  0.68349  0.83823  1.0000
  C   C1128     1.0  0.55108  0.68771  0.89340  1.0000
  C   C1129     1.0  0.59486  0.64115  0.82930  1.0000
  S   S254      1.0  0.64255  0.95728  0.85890  1.0000
  C   C1130     1.0  0.82620  0.98553  0.83953  1.0000
  H   H1989     1.0  0.65484  0.48786  0.93613  1.0000
  H   H1990     1.0  0.55253  0.72353  0.87234  1.0000
  H   H1991     1.0  0.76040  0.58190  0.94359  1.0000
  C   C1131     1.0  0.80705  0.51017  0.91880  1.0000
  C   C1132     1.0  0.52686  0.66233  0.83205  1.0000
  C   C1133     1.0  0.65846  0.93051  0.73721  1.0000
  H   H1992     1.0  0.62189  0.64013  0.80327  1.0000
  H   H1993     1.0  0.71893  0.52764  0.77213  1.0000
  H   H1994     1.0  0.71592  0.94542  0.85033  1.0000
  H   H1995     1.0  0.81520  0.53132  0.74004  1.0000
  H   H1996     1.0  0.61367  0.71348  0.96542  1.0000
  H   H1997     1.0  0.70313  0.50189  0.95262  1.0000
  C   C1134     1.0  0.83033  0.51165  0.73689  1.0000
  H   H1998     1.0  0.68814  0.75594  0.97993  1.0000
  H   H1999     1.0  0.77979  0.62616  0.90008  1.0000
  H   H2000     1.0  0.50299  0.97954  0.71733  1.0000
  H   H2001     1.0  0.55731  0.93531  0.72800  1.0000
  H   H2002     1.0  0.82660  0.49117  0.76469  1.0000
  H   H2003     1.0  0.52618  0.72588  0.84300  1.0000
  C   C1135     1.0  0.49524  0.59600  0.87353  1.0000
  H   H2004     1.0  0.48662  0.87974  0.86776  1.0000
  H   H2005     1.0  0.69015  0.76405  0.94618  1.0000
  C   C1136     1.0  0.77330  0.49853  0.79856  1.0000
  H   H2006     1.0  0.59840  0.96084  0.68069  1.0000
  H   H2007     1.0  0.79838  0.80178  0.66416  1.0000
  S   S255      1.0  0.83293  0.53784  0.70138  1.0000
  C   C1137     1.0  0.70281  0.50568  0.93722  1.0000
  H   H2008     1.0  0.80861  0.61326  0.91692  1.0000
  H   H2009     1.0  0.72241  0.56919  0.77531  1.0000
  H   H2010     1.0  0.66905  0.80737  0.96580  1.0000
  H   H2011     1.0  0.93783  0.86015  0.66149  1.0000
  H   H2012     1.0  0.77250  0.95623  0.82405  1.0000
  H   H2013     1.0  0.69072  0.58496  0.80980  1.0000
  H   H2014     1.0  0.85554  0.79456  0.66201  1.0000
  H   H2015     1.0  0.48670  0.77426  0.85541  1.0000
  H   H2016     1.0  0.60173  0.69191  0.82966  1.0000
  H   H2017     1.0  0.53207  0.63734  0.83561  1.0000
  C   C1138     1.0  0.73502  0.55293  0.74787  1.0000
  H   H2018     1.0  0.64095  0.91199  0.74099  1.0000
  N   N64       1.0  0.68029  0.70843  0.96996  1.0000
  S   S256      1.0  0.87551  0.50742  0.65529  1.0000
  C   C1139     1.0  0.74378  0.54435  0.80965  1.0000
  H   H2019     1.0  0.57667  0.68952  0.89638  1.0000
  C   C1140     1.0  0.61027  0.94048  0.67396  1.0000
  C   C1141     1.0  0.58634  0.91270  0.67433  1.0000
  H   H2020     1.0  0.81776  0.50343  0.93238  1.0000
  H   H2021     1.0  0.53876  0.90169  0.66526  1.0000
  H   H2022     1.0  0.50404  0.95443  0.75000  1.0000
  H   H2023     1.0  0.81894  0.97896  0.82507  1.0000
  H   H2024     1.0  0.54311  0.66299  0.89548  1.0000
  H   H2025     1.0  0.97087  0.98052  0.72847  1.0000
  C   C1142     1.0  0.83681  0.48903  0.75095  1.0000
  C   C1143     1.0  0.66363  0.96128  0.67833  1.0000
  H   H2026     1.0  0.76326  0.63431  0.97392  1.0000
  H   H2027     1.0  0.76432  0.56203  0.97235  1.0000
  H   H2028     1.0  0.50071  0.86006  0.77892  1.0000
  C   C1144     1.0  0.74074  0.62386  0.97745  1.0000
  C   C1145     1.0  0.55496  0.92230  0.66564  1.0000
  H   H2029     1.0  0.71986  0.93125  0.82671  1.0000
  C   C1146     1.0  0.75149  0.53932  0.97090  1.0000
  H   H2030     1.0  0.92823  0.82584  0.67534  1.0000
  H   H2031     1.0  0.61996  0.67637  0.97725  1.0000
  H   H2032     1.0  0.83249  0.96280  0.84633  1.0000
  H   H2033     1.0  0.78402  0.95454  0.85936  1.0000
  C   C1147     1.0  0.50615  0.97945  0.78523  1.0000
  H   H2034     1.0  0.79358  0.48991  0.79030  1.0000
  C   C1148     1.0  0.62293  0.68928  0.96382  1.0000
  H   H2035     1.0  0.90337  0.98160  0.67714  1.0000
  H   H2036     1.0  0.72610  0.54441  0.96927  1.0000
  H   H2037     1.0  0.75359  0.53130  0.66535  1.0000
  C   C1149     1.0  0.60240  0.67256  0.94927  1.0000
  H   H2038     1.0  0.61001  0.64774  0.94753  1.0000
  H   H2039     1.0  0.69536  0.86375  0.65650  1.0000
  H   H2040     1.0  0.83433  0.76060  0.65346  1.0000
  C   C1150     1.0  0.66840  0.50883  0.93135  1.0000
  H   H2041     1.0  0.54377  0.94108  0.67414  1.0000
  C   C1151     1.0  0.49296  0.91006  0.77472  1.0000
  H   H2042     1.0  0.84445  0.98487  0.91008  1.0000
  C   C1152     1.0  0.88354  0.98504  0.82960  1.0000
  H   H2043     1.0  0.95492  0.95803  0.66900  1.0000
  H   H2044     1.0  0.91047  0.98144  0.65222  1.0000
  H   H2045     1.0  0.62955  0.79184  0.96264  1.0000
  H   H2046     1.0  0.59520  0.89235  0.66619  1.0000
  H   H2047     1.0  0.87705  0.97480  0.81579  1.0000
  H   H2048     1.0  0.55841  0.93092  0.65105  1.0000
