data_image0
_chemical_formula_structural       HSH2CSH2SHSFeS2FeSHFe2SCSFeSFeS2FeSHSHC6H4CH2C2H3C5H6C2H3CH4C3HSC3H5C2H7CH4SH14CHCHC2HCHCHC2HFeHCHCH2CHNCH2CH4C2NCHC2HC2HCH2CHCH6C2H4NH3SCH3CH2CHSCHCH4NCHC3HC2HCH4CHC2H4CHCHCHC3H2CH5SH2CH2C4H4C3HC2SFeSFeSHFeSFeS2FeS2CFeCFeS3CS2C6H7CHCH4C3H8SH3CHCFeSFeS2FeSFeSC4SH3CH2CH2C3H2CH4NC11H25C2H2CHNH5C3H2CHC4H2CH2CHC2HCH3CH4CHCHSH2CH2CHC2H2C2SCH3SCH8CHCHCHCH2CHNHCHSH5NH6CH4CHC2H2C2H2C2FeH3C2H2CHCHC2HC2HC2HCHFeSFeSHFeSHS3FeS2FeSCFeHFeS4FeS2FeSHFeSFeS4HCH3C6H4C6H4CH2C2H5C3H4CHC5HCH2CH3CNC10H24NH5NCHCH3CH4CH2C2H5C2HC3HCHCHCHC2HC3SC2FeCH3C2H4CH2CHCH2CHCH4C4HSC3HC2H4SH5CH3CH2CHCH2C2H2SH5CH10CFeS2FeS2FeHFeHS2FeHSFeS2HCH4C6H6C4H4CH3NC2H2SHCH2CH3C3H3CH3C2H2CHCH2CH2C3H2NH5CH5NCH2CH3CHCH3CH2C2H3C2H2CHC3SH2CH8CHCHCH2CHSCHC2FeH3C2HNH6CHC4H6CHCH4SCH2CH2SC2H3CH6FeHSH3C2HNC2SCHC2HCH2CH3FeS2FeHSH2SHC3H4C2H3S2HCH2CH2CSH2CHCH3FeHC2HCNC8HC3H15CH13C2H3CH5CH3NSC2SH2C2H2SCH5C2HC2H8CH2C3NHCFeCH2FeS2FeSHFeCHSH2CH2CH3C4HC2SH3C3H3CH2CHCHCNH5CH2SHCH4NH6C2HSCHCH2CHCHCH3CH6CH2C4H3CHCHC3H3SH2CH2CH2C3H4CHCH5C2H3CH2NH6C2H4CHCH2CHCNCH4C2H2C2HSCFeCH2CH2CHNH2CHCHNH2CSH2SFeSFeSHSFeS2FeS2FeSFeCS2H2C2HSHCH2C3H3FeH2C6H5CH2C2H4CH3C3SH2SC3H4CH5CHC2H3CH2CH3CH3CH5CH4NHCH4CH2NC12H24FeHCH2CHC2HCNCH6C2NCHC2H3CHCH5CFeCHCHCH3CH2C2SHCH2C3H3C2H5FeS2FeS2FeSFeS2HC5HCH3C3H6SH6CHC2HCH2CH4C2HCHCH2NHSC2HCNH2CHCSC2H4C3H6CHCH4C3H3C2H9CH5CFeHCH3C2FeCHCH2SFeHFeSFeHSH2CH2SHCH2C3H2C2H2CHC4H3CNC9HCH23SH2CH2CH2CHC2H4CFeCH2CHC3H2NH2CHCHCH5C2HCHSNHCH5SH2SHCHCH6CHCHCHSH4CH2CHCH4C3HCH2CH2SFeH2C2H5CH3FeS2FeSHFe2S3HFeS2FeSFeS3C2H3NCH3C2H3C6H4C3H6CH8C2H4NC3H2C2H2C3H7CH3CH2CSC2H2CHCH2NCH4CH4CH2C2HCHCHCHCH3CH3CH3C3SH8CHC2H6CHCH2CHCHCHC4NHC3H5C4HCHCH5C3H4CH2CH7CH3CHFeSFeS2CHCS2Fe2CS2HS2C6H4CHCH3C4H2FeHFe2S2FeSFeS3C3HC2H2C3H2C3H3CHCHCH2C2HCSH8CFeCHNH2C2H2CH9NC11H22C2H2CH3NC8HCH6CH5CH5SNH4C2H4C2H2CH6CH2CH3C2NH7CHCH2CH3CHCHCHCHCHCH2C2H2CH16CH2CHCHCH4C3H3SH6SCH4FeSFeS2C2HSHCFeCS3FeS2FeS2FeSFeS3HS2CHC2H4CNC7H4C6H6CH2FeCHCH4NC10H14CH7C2H3CH6C2H2CHC4NHCH4NH5C3HCH3CHCH4CHCHFeHS2CH15C2HCHCH4CHC5NC3H4CH3C2H4C2H6CHCH3SHCH2CHFeC2HC3H11FeH3CH10CH5CH3C3
_chemical_formula_sum              "H1536 S192 C864 Fe96 N48"
_cell_length_a       45.9138
_cell_length_b       45.9268
_cell_length_c       50.4432
_cell_angle_alpha    89.9348
_cell_angle_beta     90.128
_cell_angle_gamma    119.986

_space_group_name_H-M_alt    "P 1"
_space_group_IT_number       1

loop_
  _space_group_symop_operation_xyz
  'x, y, z'

loop_
  _atom_site_type_symbol
  _atom_site_label
  _atom_site_symmetry_multiplicity
  _atom_site_fract_x
  _atom_site_fract_y
  _atom_site_fract_z
  _atom_site_occupancy
  H   H1        1.0  0.08634  0.49444  0.16325  1.0000
  S   S1        1.0  0.02885  0.41120  0.10423  1.0000
  H   H2        1.0  0.47714  0.07084  0.26246  1.0000
  H   H3        1.0  0.37416  0.18170  0.24771  1.0000
  C   C1        1.0  0.34582  0.99652  0.20623  1.0000
  S   S2        1.0  0.38800  0.01617  0.10554  1.0000
  H   H4        1.0  0.46642  0.43351  0.19795  1.0000
  H   H5        1.0  0.43286  0.28078  0.07165  1.0000
  S   S3        1.0  0.34317  0.03143  0.16258  1.0000
  H   H6        1.0  0.40876  0.07433  0.99568  1.0000
  S   S4        1.0  0.37317  0.02473  0.03549  1.0000
  Fe  Fe1       1.0  0.41728  0.33867  0.27668  1.0000
  S   S5        1.0  0.36592  0.33421  0.27760  1.0000
  S   S6        1.0  0.42772  0.29452  0.27598  1.0000
  Fe  Fe2       1.0  0.45241  0.41518  0.26715  1.0000
  S   S7        1.0  0.40398  0.41528  0.26755  1.0000
  H   H7        1.0  0.14343  0.42689  0.18772  1.0000
  Fe  Fe3       1.0  0.39113  0.38113  0.30284  1.0000
  Fe  Fe4       1.0  0.38352  0.36920  0.24219  1.0000
  S   S8        1.0  0.34810  0.36378  0.20811  1.0000
  C   C2        1.0  0.47588  0.00680  0.11490  1.0000
  S   S9        1.0  0.43305  0.37084  0.23953  1.0000
  Fe  Fe5       1.0  0.38982  0.47860  0.01170  1.0000
  S   S10       1.0  0.39740  0.43481  0.01753  1.0000
  Fe  Fe6       1.0  0.31317  0.43466  0.01594  1.0000
  S   S11       1.0  0.31726  0.38814  0.02357  1.0000
  S   S12       1.0  0.25937  0.42630  0.01542  1.0000
  Fe  Fe7       1.0  0.36048  0.42041  0.05107  1.0000
  S   S13       1.0  0.38483  0.41077  0.08736  1.0000
  H   H8        1.0  0.36955  0.24069  0.25401  1.0000
  S   S14       1.0  0.35413  0.46565  0.04598  1.0000
  H   H9        1.0  0.39153  0.29420  0.22830  1.0000
  C   C3        1.0  0.35895  0.37752  0.17472  1.0000
  C   C4        1.0  0.33440  0.37727  0.15778  1.0000
  C   C5        1.0  0.34177  0.38750  0.13105  1.0000
  C   C6        1.0  0.37387  0.39805  0.12092  1.0000
  C   C7        1.0  0.39841  0.39827  0.13785  1.0000
  C   C8        1.0  0.39102  0.38804  0.16455  1.0000
  H   H10       1.0  0.30945  0.36898  0.16538  1.0000
  H   H11       1.0  0.32260  0.38708  0.11829  1.0000
  H   H12       1.0  0.42327  0.40619  0.13023  1.0000
  H   H13       1.0  0.41003  0.38797  0.17722  1.0000
  C   C9        1.0  0.47796  0.04792  0.26814  1.0000
  H   H14       1.0  0.45421  0.03080  0.09203  1.0000
  H   H15       1.0  0.28070  0.14757  0.24318  1.0000
  C   C10       1.0  0.41942  0.25968  0.29675  1.0000
  C   C11       1.0  0.43201  0.30943  0.03738  1.0000
  H   H16       1.0  0.39065  0.28581  0.99082  1.0000
  H   H17       1.0  0.47977  0.48151  0.07460  1.0000
  H   H18       1.0  0.34989  0.25653  0.28755  1.0000
  C   C12       1.0  0.99491  0.38024  0.27977  1.0000
  C   C13       1.0  0.35412  0.01804  0.25151  1.0000
  C   C14       1.0  0.35600  0.04753  0.24202  1.0000
  C   C15       1.0  0.35228  0.05124  0.21470  1.0000
  C   C16       1.0  0.34720  0.02576  0.19672  1.0000
  H   H19       1.0  0.32733  0.43057  0.31369  1.0000
  H   H20       1.0  0.13483  0.37156  0.16382  1.0000
  H   H21       1.0  0.35957  0.06707  0.25580  1.0000
  H   H22       1.0  0.35323  0.07388  0.20745  1.0000
  H   H23       1.0  0.46339  0.12768  0.09644  1.0000
  H   H24       1.0  0.36561  0.12621  0.25845  1.0000
  C   C17       1.0  0.34842  0.16225  0.25386  1.0000
  C   C18       1.0  0.36432  0.02594  0.00122  1.0000
  H   H25       1.0  0.49059  0.40098  0.02898  1.0000
  H   H26       1.0  0.45249  0.05913  0.14216  1.0000
  H   H27       1.0  0.29398  0.30025  0.08515  1.0000
  C   C19       1.0  0.01483  0.38328  0.01594  1.0000
  H   H28       1.0  0.06320  0.47828  0.23547  1.0000
  H   H29       1.0  0.05365  0.38602  0.17831  1.0000
  H   H30       1.0  0.04934  0.31370  0.21475  1.0000
  H   H31       1.0  0.18836  0.40200  0.01090  1.0000
  C   C20       1.0  0.05544  0.41391  0.28222  1.0000
  C   C21       1.0  0.18645  0.40898  0.16996  1.0000
  C   C22       1.0  0.07740  0.35703  0.18918  1.0000
  H   H32       1.0  0.07956  0.42748  0.27244  1.0000
  S   S15       1.0  0.00579  0.42760  0.17089  1.0000
  C   C23       1.0  0.04613  0.40751  0.02585  1.0000
  C   C24       1.0  0.04984  0.41610  0.05288  1.0000
  C   C25       1.0  0.02235  0.40055  0.07025  1.0000
  H   H33       1.0  0.07426  0.43464  0.06037  1.0000
  H   H34       1.0  0.06764  0.41914  0.01281  1.0000
  H   H35       1.0  0.42872  0.18994  0.29573  1.0000
  H   H36       1.0  0.33572  0.28861  0.06366  1.0000
  H   H37       1.0  0.33423  0.22160  0.31042  1.0000
  C   C26       1.0  0.44543  0.10245  0.19464  1.0000
  C   C27       1.0  0.00976  0.47416  0.26507  1.0000
  H   H38       1.0  0.43488  0.30852  0.01570  1.0000
  H   H39       1.0  0.24159  0.34003  0.00049  1.0000
  H   H40       1.0  0.24610  0.17329  0.24600  1.0000
  H   H41       1.0  0.41373  0.04040  0.20174  1.0000
  H   H42       1.0  0.33384  0.14984  0.23572  1.0000
  H   H43       1.0  0.27146  0.20575  0.22277  1.0000
  H   H44       1.0  0.38989  0.46913  0.17814  1.0000
  C   C28       1.0  0.38421  0.30485  0.98403  1.0000
  H   H45       1.0  0.29216  0.22464  0.26424  1.0000
  H   H46       1.0  0.41409  0.25585  0.04210  1.0000
  H   H47       1.0  0.15472  0.39791  0.13599  1.0000
  H   H48       1.0  0.44251  0.46292  0.22119  1.0000
  S   S16       1.0  0.44142  0.38374  0.30396  1.0000
  H   H49       1.0  0.38363  0.26951  0.19848  1.0000
  H   H50       1.0  0.39001  0.45421  0.22364  1.0000
  H   H51       1.0  0.45491  0.08502  0.09771  1.0000
  H   H52       1.0  0.05457  0.49407  0.20545  1.0000
  H   H53       1.0  0.09302  0.36775  0.13556  1.0000
  H   H54       1.0  0.00203  0.45107  0.22582  1.0000
  H   H55       1.0  0.22031  0.16060  0.20172  1.0000
  H   H56       1.0  0.10170  0.36156  0.19747  1.0000
  H   H57       1.0  0.36743  0.49183  0.26136  1.0000
  H   H58       1.0  0.34525  0.29008  0.01261  1.0000
  H   H59       1.0  0.11054  0.39949  0.06690  1.0000
  H   H60       1.0  0.30491  0.17334  0.21652  1.0000
  H   H61       1.0  0.05755  0.35294  0.22914  1.0000
  H   H62       1.0  0.37784  0.28138  0.04313  1.0000
  C   C29       1.0  0.09916  0.44173  0.15589  1.0000
  H   H63       1.0  0.15603  0.44641  0.15636  1.0000
  C   C30       1.0  0.36785  0.31414  0.00683  1.0000
  H   H64       1.0  0.46133  0.46691  0.10678  1.0000
  C   C31       1.0  0.43452  0.28033  0.04969  1.0000
  C   C32       1.0  0.44714  0.46803  0.19963  1.0000
  H   H65       1.0  0.42308  0.09490  0.10794  1.0000
  C   C33       1.0  0.10649  0.46456  0.18057  1.0000
  H   H66       1.0  0.33064  0.26317  0.23880  1.0000
  C   C34       1.0  0.23526  0.43288  0.99064  1.0000
  H   H67       1.0  0.02733  0.46622  0.04848  1.0000
  C   C35       1.0  0.37260  0.27965  0.21281  1.0000
  C   C36       1.0  0.39855  0.30791  0.04523  1.0000
  H   H68       1.0  0.45295  0.15466  0.22819  1.0000
  Fe  Fe8       1.0  0.35417  0.40758  0.98984  1.0000
  H   H69       1.0  0.07046  0.34024  0.17172  1.0000
  C   C37       1.0  0.02590  0.39760  0.26682  1.0000
  H   H70       1.0  0.36312  0.47086  0.21563  1.0000
  C   C38       1.0  0.10726  0.40935  0.10854  1.0000
  H   H71       1.0  0.49076  0.43019  0.05292  1.0000
  H   H72       1.0  0.09804  0.42676  0.10313  1.0000
  C   C39       1.0  0.47416  0.45956  0.19164  1.0000
  H   H73       1.0  0.25728  0.16280  0.18742  1.0000
  N   N1        1.0  0.45700  0.08027  0.18167  1.0000
  C   C40       1.0  0.42830  0.23613  0.28769  1.0000
  H   H74       1.0  0.23199  0.12985  0.21089  1.0000
  H   H75       1.0  0.43683  0.35895  0.00945  1.0000
  C   C41       1.0  0.44755  0.10473  0.22542  1.0000
  H   H76       1.0  0.31633  0.30385  0.04050  1.0000
  H   H77       1.0  0.44062  0.24004  0.26870  1.0000
  H   H78       1.0  0.01637  0.45485  0.27123  1.0000
  H   H79       1.0  0.02570  0.33313  0.20372  1.0000
  C   C42       1.0  0.26296  0.17947  0.22857  1.0000
  C   C43       1.0  0.33218  0.17891  0.27048  1.0000
  N   N2        1.0  0.38956  0.33127  0.03076  1.0000
  C   C44       1.0  0.42000  0.36372  0.02215  1.0000
  H   H80       1.0  0.18489  0.40784  0.19195  1.0000
  C   C45       1.0  0.36929  0.34028  0.04915  1.0000
  C   C46       1.0  0.38515  0.47505  0.22773  1.0000
  H   H81       1.0  0.45385  0.33310  0.04462  1.0000
  C   C47       1.0  0.44133  0.38747  0.04509  1.0000
  C   C48       1.0  0.33423  0.31099  0.05736  1.0000
  H   H82       1.0  0.07330  0.43441  0.14903  1.0000
  C   C49       1.0  0.09904  0.38506  0.08534  1.0000
  H   H83       1.0  0.32602  0.11394  0.27432  1.0000
  H   H84       1.0  0.19564  0.39199  0.16316  1.0000
  C   C50       1.0  0.31949  0.32121  0.08028  1.0000
  H   H85       1.0  0.41211  0.37827  0.00919  1.0000
  C   C51       1.0  0.43276  0.01514  0.17861  1.0000
  H   H86       1.0  0.45271  0.04681  0.21364  1.0000
  H   H87       1.0  0.39844  0.48188  0.10487  1.0000
  H   H88       1.0  0.36530  0.36021  0.04012  1.0000
  H   H89       1.0  0.38342  0.35125  0.06789  1.0000
  H   H90       1.0  0.39616  0.47715  0.27009  1.0000
  H   H91       1.0  0.06092  0.47608  0.01183  1.0000
  C   C52       1.0  0.42155  0.20762  0.30298  1.0000
  C   C53       1.0  0.37501  0.47288  0.25685  1.0000
  H   H92       1.0  0.42908  0.40143  0.05253  1.0000
  H   H93       1.0  0.44356  0.37325  0.06200  1.0000
  H   H94       1.0  0.35820  0.33014  0.99837  1.0000
  H   H95       1.0  0.47542  0.42927  0.01995  1.0000
  N   N3        1.0  0.10251  0.41085  0.15968  1.0000
  H   H96       1.0  0.20489  0.43502  0.16370  1.0000
  H   H97       1.0  0.01561  0.44112  0.98983  1.0000
  H   H98       1.0  0.47364  0.11434  0.23249  1.0000
  S   S17       1.0  0.02931  0.39918  0.23161  1.0000
  C   C54       1.0  0.34074  0.25127  0.22534  1.0000
  H   H99       1.0  0.00993  0.48607  0.15179  1.0000
  H   H100      1.0  0.43704  0.12942  0.25766  1.0000
  H   H101      1.0  0.35830  0.21586  0.22533  1.0000
  C   C55       1.0  0.44708  0.07701  0.15276  1.0000
  H   H102      1.0  0.31745  0.34357  0.07480  1.0000
  H   H103      1.0  0.45983  0.12956  0.14475  1.0000
  C   C56       1.0  0.01497  0.47671  0.23456  1.0000
  H   H104      1.0  0.33556  0.32717  0.09824  1.0000
  S   S18       1.0  0.42555  0.10171  0.31369  1.0000
  C   C57       1.0  0.30331  0.21113  0.27448  1.0000
  H   H105      1.0  0.32273  0.23830  0.20897  1.0000
  C   C58       1.0  0.43615  0.12877  0.23566  1.0000
  H   H106      1.0  0.07138  0.36995  0.08231  1.0000
  H   H107      1.0  0.41210  0.00891  0.16420  1.0000
  H   H108      1.0  0.35205  0.19564  0.28472  1.0000
  H   H109      1.0  0.43028  0.48147  0.14360  1.0000
  N   N4        1.0  0.31900  0.19810  0.25492  1.0000
  C   C59       1.0  0.20012  0.41746  0.99366  1.0000
  H   H110      1.0  0.47756  0.46127  0.16979  1.0000
  C   C60       1.0  0.46424  0.10991  0.13619  1.0000
  C   C61       1.0  0.34815  0.22622  0.24031  1.0000
  C   C62       1.0  0.13879  0.42189  0.16606  1.0000
  H   H111      1.0  0.46037  0.12873  0.18736  1.0000
  C   C63       1.0  0.47707  0.03311  0.10007  1.0000
  C   C64       1.0  0.05414  0.41248  0.31020  1.0000
  H   H112      1.0  0.49175  0.11977  0.13492  1.0000
  C   C65       1.0  0.29280  0.17385  0.23550  1.0000
  H   H113      1.0  0.41928  0.06598  0.15111  1.0000
  H   H114      1.0  0.08545  0.45247  0.19497  1.0000
  H   H115      1.0  0.41875  0.09375  0.18910  1.0000
  H   H116      1.0  0.40052  0.31277  0.06700  1.0000
  C   C66       1.0  0.38706  0.05392  0.98609  1.0000
  H   H117      1.0  0.08773  0.40570  0.20102  1.0000
  C   C67       1.0  0.43919  0.04628  0.19517  1.0000
  C   C68       1.0  0.24193  0.15672  0.20575  1.0000
  H   H118      1.0  0.31163  0.15915  0.28279  1.0000
  H   H119      1.0  0.45505  0.01935  0.16724  1.0000
  H   H120      1.0  0.43117  0.07987  0.23475  1.0000
  H   H121      1.0  0.06265  0.38017  0.13215  1.0000
  C   C69       1.0  0.09022  0.39032  0.13456  1.0000
  H   H122      1.0  0.28195  0.18959  0.28480  1.0000
  C   C70       1.0  0.45049  0.10387  0.10789  1.0000
  H   H123      1.0  0.13495  0.42462  0.11066  1.0000
  C   C71       1.0  0.07964  0.39095  0.18229  1.0000
  H   H124      1.0  0.11642  0.45803  0.14002  1.0000
  C   C72       1.0  0.35135  0.13556  0.26994  1.0000
  C   C73       1.0  0.15192  0.39787  0.15782  1.0000
  C   C74       1.0  0.02821  0.49085  0.04704  1.0000
  H   H125      1.0  0.45410  0.02549  0.26177  1.0000
  H   H126      1.0  0.35340  0.44746  0.26105  1.0000
  C   C75       1.0  0.47667  0.41348  0.03605  1.0000
  H   H127      1.0  0.47992  0.04771  0.29009  1.0000
  H   H128      1.0  0.36651  0.29715  0.20214  1.0000
  H   H129      1.0  0.36920  0.45802  0.13070  1.0000
  H   H130      1.0  0.40994  0.12033  0.22932  1.0000
  H   H131      1.0  0.13008  0.46961  0.19060  1.0000
  S   S19       1.0  0.35598  0.01077  0.28565  1.0000
  H   H132      1.0  0.42399  0.45087  0.18863  1.0000
  H   H133      1.0  0.45903  0.28255  0.04439  1.0000
  C   C76       1.0  0.05085  0.33814  0.21047  1.0000
  H   H134      1.0  0.10920  0.36796  0.08899  1.0000
  H   H135      1.0  0.46090  0.48661  0.02561  1.0000
  C   C77       1.0  0.38927  0.48354  0.12486  1.0000
  C   C78       1.0  0.47414  0.48941  0.09382  1.0000
  C   C79       1.0  0.32692  0.23530  0.29624  1.0000
  C   C80       1.0  0.33623  0.99988  0.98855  1.0000
  H   H136      1.0  0.01470  0.48440  0.10072  1.0000
  H   H137      1.0  0.30234  0.26539  0.29939  1.0000
  H   H138      1.0  0.36474  0.14609  0.28894  1.0000
  H   H139      1.0  0.45675  0.48576  0.28109  1.0000
  C   C81       1.0  0.00449  0.48089  0.00096  1.0000
  C   C82       1.0  0.99501  0.44352  0.99908  1.0000
  C   C83       1.0  0.05213  0.49312  0.22736  1.0000
  H   H140      1.0  0.00477  0.49124  0.22480  1.0000
  C   C84       1.0  0.99685  0.48750  0.06117  1.0000
  C   C85       1.0  0.30945  0.25034  0.31234  1.0000
  S   S20       1.0  0.00928  0.37098  0.98226  1.0000
  Fe  Fe9       1.0  0.04868  0.40002  0.45535  1.0000
  S   S21       1.0  0.09843  0.44587  0.46379  1.0000
  Fe  Fe10      1.0  0.05537  0.41130  0.39418  1.0000
  S   S22       1.0  0.10626  0.45790  0.39868  1.0000
  H   H141      1.0  0.45337  0.44502  0.33837  1.0000
  Fe  Fe11      1.0  0.11775  0.42873  0.42959  1.0000
  S   S23       1.0  0.16310  0.41986  0.43054  1.0000
  Fe  Fe12      1.0  0.08241  0.47052  0.43261  1.0000
  S   S24       1.0  0.06799  0.38118  0.42259  1.0000
  S   S25       1.0  0.03166  0.42566  0.42680  1.0000
  Fe  Fe13      1.0  0.37758  0.05595  0.37901  1.0000
  S   S26       1.0  0.42393  0.10695  0.37887  1.0000
  S   S27       1.0  0.34509  0.02669  0.41456  1.0000
  C   C86       1.0  0.26705  0.34940  0.41152  1.0000
  Fe  Fe14      1.0  0.44411  0.08512  0.34888  1.0000
  C   C87       1.0  0.47922  0.00311  0.62010  1.0000
  Fe  Fe15      1.0  0.40101  0.11910  0.34385  1.0000
  S   S28       1.0  0.39518  0.16600  0.34751  1.0000
  S   S29       1.0  0.39918  0.03357  0.35139  1.0000
  S   S30       1.0  0.35316  0.06867  0.34553  1.0000
  C   C88       1.0  0.44055  0.49206  0.42387  1.0000
  S   S31       1.0  0.35599  0.36474  0.45883  1.0000
  S   S32       1.0  0.35799  0.44923  0.47848  1.0000
  C   C89       1.0  0.36796  0.38971  0.36984  1.0000
  C   C90       1.0  0.36534  0.35972  0.37896  1.0000
  C   C91       1.0  0.36157  0.35227  0.40629  1.0000
  C   C92       1.0  0.36081  0.37487  0.42466  1.0000
  C   C93       1.0  0.36373  0.40493  0.41546  1.0000
  C   C94       1.0  0.36696  0.41213  0.38819  1.0000
  H   H142      1.0  0.36564  0.34206  0.36495  1.0000
  H   H143      1.0  0.35919  0.32887  0.41322  1.0000
  H   H144      1.0  0.36318  0.42251  0.42929  1.0000
  H   H145      1.0  0.36887  0.43531  0.38126  1.0000
  H   H146      1.0  0.38606  0.09874  0.43735  1.0000
  H   H147      1.0  0.36678  0.14137  0.40153  1.0000
  H   H148      1.0  0.30813  0.40960  0.35861  1.0000
  C   C95       1.0  0.35587  0.02323  0.44791  1.0000
  H   H149      1.0  0.32357  0.06548  0.44212  1.0000
  C   C96       1.0  0.38837  0.04331  0.45803  1.0000
  H   H150      1.0  0.28563  0.11452  0.36871  1.0000
  H   H151      1.0  0.40833  0.06041  0.44502  1.0000
  H   H152      1.0  0.38959  0.21771  0.46884  1.0000
  H   H153      1.0  0.39688  0.27221  0.32880  1.0000
  C   C97       1.0  0.19462  0.42786  0.45483  1.0000
  C   C98       1.0  0.23611  0.41416  0.47301  1.0000
  C   C99       1.0  0.20928  0.40725  0.45553  1.0000
  H   H154      1.0  0.24686  0.39791  0.47349  1.0000
  H   H155      1.0  0.19991  0.38584  0.44238  1.0000
  H   H156      1.0  0.25493  0.46413  0.35235  1.0000
  H   H157      1.0  0.32690  0.26725  0.32786  1.0000
  H   H158      1.0  0.45451  0.45889  0.46566  1.0000
  H   H159      1.0  0.44771  0.38367  0.52842  1.0000
  H   H160      1.0  0.29307  0.35601  0.40611  1.0000
  H   H161      1.0  0.44694  0.46731  0.36500  1.0000
  S   S33       1.0  0.02729  0.40291  0.60848  1.0000
  H   H162      1.0  0.43266  0.37937  0.36361  1.0000
  H   H163      1.0  0.18217  0.42282  0.37263  1.0000
  H   H164      1.0  0.26050  0.37188  0.37645  1.0000
  C   C100      1.0  0.36920  0.01979  0.50254  1.0000
  H   H165      1.0  0.49008  0.02278  0.47446  1.0000
  C   C101      1.0  0.30474  0.45263  0.37339  1.0000
  Fe  Fe16      1.0  0.40151  0.47382  0.50680  1.0000
  S   S34       1.0  0.40212  0.42674  0.51546  1.0000
  Fe  Fe17      1.0  0.32476  0.43900  0.51404  1.0000
  S   S35       1.0  0.32131  0.38922  0.52426  1.0000
  S   S36       1.0  0.28163  0.45105  0.51338  1.0000
  Fe  Fe18      1.0  0.36785  0.41969  0.54971  1.0000
  S   S37       1.0  0.39196  0.41119  0.58689  1.0000
  Fe  Fe19      1.0  0.35670  0.40137  0.48953  1.0000
  S   S38       1.0  0.36913  0.46867  0.54176  1.0000
  C   C102      1.0  0.40549  0.20205  0.32754  1.0000
  C   C103      1.0  0.35033  0.39128  0.63151  1.0000
  C   C104      1.0  0.38188  0.40039  0.62091  1.0000
  C   C105      1.0  0.40670  0.40112  0.63784  1.0000
  S   S39       1.0  0.01976  0.39006  0.35833  1.0000
  H   H166      1.0  0.33097  0.39052  0.61879  1.0000
  H   H167      1.0  0.43118  0.40806  0.62986  1.0000
  H   H168      1.0  0.42830  0.49164  0.44291  1.0000
  C   C106      1.0  0.46895  0.48435  0.42820  1.0000
  H   H169      1.0  0.02123  0.46277  0.31601  1.0000
  H   H170      1.0  0.45010  0.02099  0.47608  1.0000
  C   C107      1.0  0.39483  0.04189  0.48523  1.0000
  H   H171      1.0  0.47825  0.08339  0.57946  1.0000
  H   H172      1.0  0.41981  0.05824  0.49299  1.0000
  C   C108      1.0  0.20691  0.45523  0.47220  1.0000
  C   C109      1.0  0.23341  0.46183  0.48993  1.0000
  C   C110      1.0  0.24853  0.44166  0.49027  1.0000
  H   H173      1.0  0.19650  0.47178  0.47159  1.0000
  H   H174      1.0  0.06446  0.48285  0.52721  1.0000
  C   C111      1.0  0.23682  0.45164  0.36874  1.0000
  H   H175      1.0  0.46291  0.03886  0.62764  1.0000
  H   H176      1.0  0.34929  0.07458  0.48567  1.0000
  H   H177      1.0  0.39070  0.11992  0.46796  1.0000
  H   H178      1.0  0.46573  0.37506  0.37889  1.0000
  N   N5        1.0  0.12653  0.37866  0.52875  1.0000
  C   C112      1.0  0.10327  0.35092  0.54735  1.0000
  C   C113      1.0  0.16230  0.38549  0.53160  1.0000
  C   C114      1.0  0.12599  0.41007  0.53681  1.0000
  C   C115      1.0  0.11491  0.37096  0.50027  1.0000
  C   C116      1.0  0.11070  0.33788  0.48874  1.0000
  C   C117      1.0  0.06602  0.34244  0.54750  1.0000
  C   C118      1.0  0.15150  0.44311  0.52265  1.0000
  C   C119      1.0  0.16714  0.35524  0.53870  1.0000
  C   C120      1.0  0.20406  0.36468  0.53672  1.0000
  C   C121      1.0  0.09443  0.33076  0.46129  1.0000
  C   C122      1.0  0.04437  0.31192  0.56492  1.0000
  H   H179      1.0  0.17779  0.44929  0.52640  1.0000
  H   H180      1.0  0.11280  0.35760  0.56808  1.0000
  H   H181      1.0  0.10300  0.32712  0.54316  1.0000
  H   H182      1.0  0.17695  0.39751  0.51327  1.0000
  H   H183      1.0  0.17568  0.40405  0.54777  1.0000
  H   H184      1.0  0.13031  0.41433  0.55858  1.0000
  H   H185      1.0  0.10090  0.40710  0.53287  1.0000
  H   H186      1.0  0.09091  0.37111  0.49740  1.0000
  H   H187      1.0  0.13304  0.39114  0.48693  1.0000
  H   H188      1.0  0.09448  0.31591  0.50133  1.0000
  H   H189      1.0  0.13572  0.34003  0.48637  1.0000
  H   H190      1.0  0.06396  0.36364  0.55582  1.0000
  H   H191      1.0  0.05499  0.33676  0.52729  1.0000
  H   H192      1.0  0.14706  0.44113  0.50099  1.0000
  H   H193      1.0  0.36120  0.21300  0.64758  1.0000
  H   H194      1.0  0.15907  0.34727  0.55948  1.0000
  H   H195      1.0  0.15236  0.33332  0.52566  1.0000
  H   H196      1.0  0.22028  0.38730  0.54889  1.0000
  H   H197      1.0  0.20719  0.34356  0.54394  1.0000
  H   H198      1.0  0.21258  0.36983  0.51582  1.0000
  H   H199      1.0  0.06898  0.32798  0.46237  1.0000
  H   H200      1.0  0.11021  0.35141  0.44735  1.0000
  H   H201      1.0  0.09186  0.30704  0.45335  1.0000
  H   H202      1.0  0.44889  0.07157  0.55238  1.0000
  H   H203      1.0  0.06617  0.43815  0.56329  1.0000
  C   C123      1.0  0.27902  0.40972  0.40908  1.0000
  C   C124      1.0  0.33701  0.99889  0.49225  1.0000
  H   H204      1.0  0.34571  0.20507  0.46387  1.0000
  H   H205      1.0  0.41806  0.15653  0.41501  1.0000
  C   C125      1.0  0.46764  0.41098  0.49163  1.0000
  H   H206      1.0  0.42570  0.47152  0.64231  1.0000
  N   N6        1.0  0.35364  0.11992  0.44114  1.0000
  H   H207      1.0  0.47043  0.48239  0.60471  1.0000
  H   H208      1.0  0.45147  0.02119  0.34283  1.0000
  H   H209      1.0  0.38439  0.22177  0.35563  1.0000
  H   H210      1.0  0.47667  0.04499  0.51527  1.0000
  H   H211      1.0  0.23058  0.36401  0.40210  1.0000
  C   C126      1.0  0.25765  0.37342  0.39807  1.0000
  C   C127      1.0  0.02694  0.47672  0.49772  1.0000
  C   C128      1.0  0.45650  0.39288  0.37499  1.0000
  H   H212      1.0  0.23643  0.40463  0.36816  1.0000
  H   H213      1.0  0.35465  0.46060  0.33787  1.0000
  C   C129      1.0  0.31214  0.11053  0.40296  1.0000
  H   H214      1.0  0.44194  0.47614  0.33092  1.0000
  C   C130      1.0  0.46355  0.40533  0.46121  1.0000
  C   C131      1.0  0.45713  0.45203  0.44501  1.0000
  C   C132      1.0  0.28412  0.46543  0.41373  1.0000
  C   C133      1.0  0.45013  0.40576  0.40100  1.0000
  H   H215      1.0  0.42135  0.47329  0.41029  1.0000
  H   H216      1.0  0.48707  0.46384  0.58253  1.0000
  C   C134      1.0  0.02322  0.39432  0.32316  1.0000
  H   H217      1.0  0.45831  0.00613  0.43141  1.0000
  H   H218      1.0  0.04432  0.28926  0.55718  1.0000
  C   C135      1.0  0.44450  0.37869  0.50676  1.0000
  H   H219      1.0  0.35156  0.09797  0.40271  1.0000
  C   C136      1.0  0.39669  0.22565  0.33663  1.0000
  C   C137      1.0  0.99638  0.45126  0.51451  1.0000
  H   H220      1.0  0.02928  0.48338  0.57690  1.0000
  C   C138      1.0  0.01588  0.37628  0.52008  1.0000
  H   H221      1.0  0.43604  0.39028  0.45698  1.0000
  H   H222      1.0  0.43097  0.43317  0.43910  1.0000
  H   H223      1.0  0.26523  0.35038  0.43343  1.0000
  C   C139      1.0  0.30265  0.42895  0.35075  1.0000
  H   H224      1.0  0.24266  0.48314  0.50321  1.0000
  H   H225      1.0  0.43215  0.38362  0.41274  1.0000
  H   H226      1.0  0.43821  0.42100  0.39617  1.0000
  H   H227      1.0  0.46193  0.43061  0.49789  1.0000
  C   C140      1.0  0.20142  0.43533  0.35690  1.0000
  H   H228      1.0  0.47088  0.48106  0.52670  1.0000
  C   C141      1.0  0.32887  0.44830  0.32934  1.0000
  H   H229      1.0  0.33676  0.10472  0.49477  1.0000
  S   S40       1.0  0.37858  0.02108  0.53692  1.0000
  H   H230      1.0  0.07708  0.42482  0.32174  1.0000
  H   H231      1.0  0.34603  0.17726  0.42138  1.0000
  C   C142      1.0  0.48255  0.99841  0.34292  1.0000
  H   H232      1.0  0.24975  0.32326  0.40482  1.0000
  H   H233      1.0  0.49368  0.09230  0.54592  1.0000
  C   C143      1.0  0.32972  0.08181  0.48291  1.0000
  H   H234      1.0  0.22377  0.41352  0.39868  1.0000
  C   C144      1.0  0.14807  0.47276  0.53239  1.0000
  C   C145      1.0  0.45690  0.46974  0.34461  1.0000
  H   H235      1.0  0.28661  0.23018  0.32218  1.0000
  H   H236      1.0  0.26147  0.45808  0.42619  1.0000
  C   C146      1.0  0.04523  0.41474  0.55631  1.0000
  C   C147      1.0  0.04244  0.40675  0.52918  1.0000
  S   S41       1.0  0.01206  0.36506  0.48629  1.0000
  C   C148      1.0  0.38664  0.12115  0.44637  1.0000
  H   H237      1.0  0.05376  0.31668  0.58568  1.0000
  H   H238      1.0  0.33746  0.48154  0.42279  1.0000
  H   H239      1.0  0.15305  0.47655  0.55403  1.0000
  S   S42       1.0  0.39115  0.01589  0.60875  1.0000
  C   C149      1.0  0.29705  0.05309  0.49416  1.0000
  H   H240      1.0  0.40016  0.47792  0.60141  1.0000
  H   H241      1.0  0.41773  0.36959  0.50166  1.0000
  H   H242      1.0  0.44796  0.12698  0.43347  1.0000
  H   H243      1.0  0.06085  0.42410  0.51531  1.0000
  H   H244      1.0  0.12244  0.46844  0.52817  1.0000
  H   H245      1.0  0.30805  0.45589  0.44789  1.0000
  H   H246      1.0  0.19734  0.45488  0.34748  1.0000
  H   H247      1.0  0.03452  0.46291  0.48380  1.0000
  C   C150      1.0  0.24298  0.42507  0.38269  1.0000
  H   H248      1.0  0.45154  0.02294  0.57194  1.0000
  C   C151      1.0  0.47672  0.02561  0.34473  1.0000
  H   H249      1.0  0.32784  0.14932  0.37258  1.0000
  C   C152      1.0  0.41887  0.15277  0.43665  1.0000
  H   H250      1.0  0.32990  0.46206  0.38257  1.0000
  C   C153      1.0  0.32599  0.08762  0.45305  1.0000
  H   H251      1.0  0.26955  0.40779  0.42962  1.0000
  H   H252      1.0  0.30557  0.41557  0.41127  1.0000
  C   C154      1.0  0.02129  0.39251  0.57450  1.0000
  H   H253      1.0  0.37714  0.23348  0.44090  1.0000
  N   N7        1.0  0.47958  0.43673  0.44428  1.0000
  H   H254      1.0  0.47800  0.48227  0.40840  1.0000
  C   C155      1.0  0.31170  0.12161  0.37447  1.0000
  H   H255      1.0  0.32711  0.14211  0.46059  1.0000
  S   S43       1.0  0.37073  0.39974  0.33578  1.0000
  H   H256      1.0  0.19800  0.41648  0.34160  1.0000
  H   H257      1.0  0.30117  0.04816  0.51502  1.0000
  H   H258      1.0  0.02188  0.47840  0.41127  1.0000
  H   H259      1.0  0.43509  0.01668  0.52596  1.0000
  H   H260      1.0  0.27768  0.41652  0.34100  1.0000
  N   N8        1.0  0.27763  0.43772  0.39427  1.0000
  H   H261      1.0  0.42231  0.17536  0.44734  1.0000
  H   H262      1.0  0.28868  0.48855  0.40302  1.0000
  H   H263      1.0  0.23897  0.47098  0.38304  1.0000
  H   H264      1.0  0.01806  0.30695  0.56493  1.0000
  H   H265      1.0  0.32092  0.10924  0.36062  1.0000
  H   H266      1.0  0.30121  0.08621  0.45075  1.0000
  C   C156      1.0  0.46186  0.02419  0.52946  1.0000
  H   H267      1.0  0.01106  0.46100  0.36314  1.0000
  H   H268      1.0  0.30588  0.47528  0.36437  1.0000
  H   H269      1.0  0.38896  0.18926  0.42655  1.0000
  H   H270      1.0  0.30247  0.12316  0.41605  1.0000
  C   C157      1.0  0.36496  0.18155  0.43687  1.0000
  H   H271      1.0  0.28884  0.02970  0.48255  1.0000
  C   C158      1.0  0.35303  0.14936  0.45401  1.0000
  C   C159      1.0  0.36958  0.21118  0.45376  1.0000
  H   H272      1.0  0.02060  0.46540  0.60963  1.0000
  H   H273      1.0  0.29437  0.08299  0.40417  1.0000
  C   C160      1.0  0.34778  0.11809  0.41157  1.0000
  C   C161      1.0  0.47118  0.03967  0.55762  1.0000
  H   H274      1.0  0.36819  0.15661  0.47261  1.0000
  H   H275      1.0  0.27685  0.05969  0.49380  1.0000
  C   C162      1.0  0.33039  0.00083  0.46515  1.0000
  C   C163      1.0  0.47310  0.07384  0.55878  1.0000
  Fe  Fe20      1.0  0.37921  0.05073  0.31777  1.0000
  H   H276      1.0  0.45350  0.14905  0.46434  1.0000
  H   H277      1.0  0.45064  0.35876  0.50200  1.0000
  H   H278      1.0  0.47272  0.17217  0.43439  1.0000
  C   C164      1.0  0.41266  0.48620  0.64325  1.0000
  C   C165      1.0  0.48333  0.42705  0.41646  1.0000
  H   H279      1.0  0.00430  0.43375  0.52242  1.0000
  H   H280      1.0  0.47523  0.41402  0.36271  1.0000
  C   C166      1.0  0.31405  0.47609  0.43321  1.0000
  H   H281      1.0  0.32433  0.46761  0.32004  1.0000
  C   C167      1.0  0.46251  0.00557  0.47435  1.0000
  H   H282      1.0  0.47336  0.38824  0.45612  1.0000
  C   C168      1.0  0.40373  0.25433  0.32144  1.0000
  C   C169      1.0  0.01237  0.47714  0.59427  1.0000
  H   H283      1.0  0.02137  0.49358  0.48585  1.0000
  C   C170      1.0  0.48402  0.03552  0.62296  1.0000
  C   C171      1.0  0.45008  0.14996  0.44260  1.0000
  H   H284      1.0  0.00817  0.49263  0.32387  1.0000
  C   C172      1.0  0.49396  0.48347  0.59797  1.0000
  C   C173      1.0  0.99949  0.46552  0.32211  1.0000
  H   H285      1.0  0.49386  0.41928  0.49782  1.0000
  C   C174      1.0  0.99437  0.36226  0.56535  1.0000
  H   H286      1.0  0.16655  0.49601  0.52192  1.0000
  Fe  Fe21      1.0  0.04750  0.40549  0.95187  1.0000
  S   S44       1.0  0.09566  0.45314  0.96090  1.0000
  Fe  Fe22      1.0  0.05406  0.41818  0.89103  1.0000
  S   S45       1.0  0.10328  0.46622  0.89640  1.0000
  H   H287      1.0  0.33716  0.26531  0.96705  1.0000
  Fe  Fe23      1.0  0.11662  0.43796  0.92662  1.0000
  S   S46       1.0  0.17019  0.44543  0.92603  1.0000
  H   H288      1.0  0.44969  0.42062  0.94640  1.0000
  S   S47       1.0  0.06866  0.38862  0.91871  1.0000
  S   S48       1.0  0.02884  0.43034  0.92392  1.0000
  S   S49       1.0  0.01213  0.35782  0.73473  1.0000
  Fe  Fe24      1.0  0.38259  0.06499  0.87817  1.0000
  S   S50       1.0  0.42837  0.11659  0.88088  1.0000
  S   S51       1.0  0.34869  0.02890  0.91082  1.0000
  Fe  Fe25      1.0  0.39056  0.06286  0.81681  1.0000
  S   S52       1.0  0.43643  0.11443  0.81576  1.0000
  C   C175      1.0  0.48283  0.03522  0.85969  1.0000
  Fe  Fe26      1.0  0.45253  0.09731  0.85208  1.0000
  H   H289      1.0  0.48158  0.01981  0.68226  1.0000
  Fe  Fe27      1.0  0.40796  0.12928  0.84421  1.0000
  S   S53       1.0  0.40092  0.17575  0.84492  1.0000
  S   S54       1.0  0.40822  0.04558  0.85170  1.0000
  S   S55       1.0  0.36066  0.07800  0.84301  1.0000
  S   S56       1.0  0.33813  0.02662  0.66387  1.0000
  Fe  Fe28      1.0  0.42921  0.35351  0.77964  1.0000
  S   S57       1.0  0.37796  0.34935  0.78087  1.0000
  S   S58       1.0  0.44096  0.31021  0.77832  1.0000
  Fe  Fe29      1.0  0.46412  0.42972  0.76830  1.0000
  S   S59       1.0  0.41573  0.43000  0.76859  1.0000
  H   H290      1.0  0.37575  0.48227  0.74152  1.0000
  Fe  Fe30      1.0  0.40382  0.39739  0.80485  1.0000
  S   S60       1.0  0.38556  0.41807  0.83793  1.0000
  Fe  Fe31      1.0  0.39479  0.38272  0.74452  1.0000
  S   S61       1.0  0.35915  0.37414  0.70981  1.0000
  S   S62       1.0  0.45404  0.39975  0.80581  1.0000
  S   S63       1.0  0.44418  0.38438  0.74187  1.0000
  S   S64       1.0  0.35566  0.37286  0.95861  1.0000
  H   H291      1.0  0.49294  0.09701  0.94045  1.0000
  C   C176      1.0  0.36863  0.38388  0.67559  1.0000
  H   H292      1.0  0.45714  0.30343  0.69623  1.0000
  H   H293      1.0  0.31916  0.37569  0.66655  1.0000
  H   H294      1.0  0.41964  0.39391  0.67773  1.0000
  C   C177      1.0  0.37977  0.40566  0.87155  1.0000
  C   C178      1.0  0.37926  0.42771  0.89058  1.0000
  C   C179      1.0  0.37338  0.41845  0.91744  1.0000
  C   C180      1.0  0.36630  0.38641  0.92537  1.0000
  C   C181      1.0  0.36695  0.36438  0.90637  1.0000
  C   C182      1.0  0.37404  0.37409  0.87959  1.0000
  H   H295      1.0  0.38335  0.45205  0.88446  1.0000
  H   H296      1.0  0.37387  0.43597  0.93194  1.0000
  H   H297      1.0  0.36170  0.33958  0.91227  1.0000
  H   H298      1.0  0.37417  0.35683  0.86506  1.0000
  C   C183      1.0  0.41196  0.21265  0.82568  1.0000
  C   C184      1.0  0.40109  0.23491  0.83420  1.0000
  C   C185      1.0  0.40947  0.26468  0.82001  1.0000
  C   C186      1.0  0.42894  0.27271  0.79698  1.0000
  C   C187      1.0  0.43957  0.25034  0.78830  1.0000
  C   C188      1.0  0.43116  0.22054  0.80249  1.0000
  H   H299      1.0  0.38623  0.22915  0.85207  1.0000
  H   H300      1.0  0.40109  0.28150  0.82704  1.0000
  H   H301      1.0  0.45473  0.25623  0.77060  1.0000
  H   H302      1.0  0.43980  0.20385  0.79563  1.0000
  C   C189      1.0  0.36754  0.02693  0.75086  1.0000
  H   H303      1.0  0.40880  0.11916  0.71770  1.0000
  H   H304      1.0  0.27460  0.38879  0.97239  1.0000
  C   C190      1.0  0.35065  0.02732  0.69708  1.0000
  C   C191      1.0  0.10014  0.47801  0.81071  1.0000
  H   H305      1.0  0.41067  0.45294  0.68624  1.0000
  H   H306      1.0  0.38607  0.46850  0.64851  1.0000
  H   H307      1.0  0.01713  0.45272  0.76370  1.0000
  H   H308      1.0  0.11747  0.43495  0.70048  1.0000
  H   H309      1.0  0.47818  0.49155  0.83265  1.0000
  C   C192      1.0  0.35441  0.02945  0.94586  1.0000
  C   C193      1.0  0.35976  0.28906  0.96082  1.0000
  C   C194      1.0  0.38212  0.05576  0.95866  1.0000
  H   H310      1.0  0.05482  0.47345  0.79490  1.0000
  H   H311      1.0  0.39987  0.07744  0.94737  1.0000
  H   H312      1.0  0.44529  0.47745  0.87374  1.0000
  H   H313      1.0  0.45843  0.03191  0.86381  1.0000
  C   C195      1.0  0.19459  0.44127  0.95191  1.0000
  H   H314      1.0  0.22623  0.31250  0.97214  1.0000
  C   C196      1.0  0.22978  0.45698  0.94902  1.0000
  C   C197      1.0  0.35677  0.04896  0.74226  1.0000
  C   C198      1.0  0.43588  0.12720  0.71571  1.0000
  C   C199      1.0  0.45101  0.32391  0.69769  1.0000
  C   C200      1.0  0.04238  0.38407  0.81135  1.0000
  H   H315      1.0  0.37262  0.18606  0.66532  1.0000
  C   C201      1.0  0.32986  0.23593  0.78933  1.0000
  H   H316      1.0  0.35679  0.43910  0.69087  1.0000
  H   H317      1.0  0.46431  0.34233  0.68157  1.0000
  C   C202      1.0  0.47194  0.07778  0.92833  1.0000
  H   H318      1.0  0.36021  0.43760  0.73921  1.0000
  H   H319      1.0  0.23089  0.36775  0.96289  1.0000
  H   H320      1.0  0.33920  0.06558  0.70891  1.0000
  C   C203      1.0  0.48040  0.05754  0.78635  1.0000
  N   N9        1.0  0.26722  0.38801  0.91418  1.0000
  C   C204      1.0  0.26427  0.36215  0.93418  1.0000
  C   C205      1.0  0.27871  0.38206  0.88757  1.0000
  C   C206      1.0  0.29396  0.42196  0.92413  1.0000
  C   C207      1.0  0.23499  0.38898  0.91147  1.0000
  C   C208      1.0  0.20299  0.35547  0.90464  1.0000
  C   C209      1.0  0.34371  0.38280  0.65862  1.0000
  C   C210      1.0  0.30294  0.45229  0.90552  1.0000
  C   C211      1.0  0.26804  0.34530  0.88002  1.0000
  C   C212      1.0  0.27831  0.34321  0.85158  1.0000
  C   C213      1.0  0.17197  0.35967  0.90520  1.0000
  H   H321      1.0  0.48792  0.03806  0.78492  1.0000
  H   H322      1.0  0.40529  0.29584  0.67598  1.0000
  H   H323      1.0  0.28874  0.36257  0.93569  1.0000
  H   H324      1.0  0.24579  0.33635  0.92762  1.0000
  H   H325      1.0  0.27062  0.39284  0.87125  1.0000
  H   H326      1.0  0.30674  0.39561  0.88650  1.0000
  H   H327      1.0  0.31734  0.42135  0.92846  1.0000
  H   H328      1.0  0.28643  0.42813  0.94322  1.0000
  H   H329      1.0  0.22993  0.39904  0.92987  1.0000
  H   H330      1.0  0.23744  0.40703  0.89570  1.0000
  H   H331      1.0  0.19857  0.33542  0.91902  1.0000
  H   H332      1.0  0.20499  0.34736  0.88436  1.0000
  H   H333      1.0  0.44914  0.14156  0.73379  1.0000
  H   H334      1.0  0.44832  0.46964  0.91580  1.0000
  H   H335      1.0  0.28174  0.45741  0.90451  1.0000
  H   H336      1.0  0.26059  0.27648  0.70539  1.0000
  H   H337      1.0  0.28088  0.33575  0.89319  1.0000
  H   H338      1.0  0.24056  0.32836  0.88181  1.0000
  H   H339      1.0  0.27119  0.31684  0.84690  1.0000
  H   H340      1.0  0.26546  0.35149  0.83730  1.0000
  H   H341      1.0  0.30599  0.35921  0.84913  1.0000
  H   H342      1.0  0.14923  0.33557  0.89982  1.0000
  H   H343      1.0  0.16825  0.36705  0.92536  1.0000
  H   H344      1.0  0.17465  0.37926  0.89087  1.0000
  N   N10       1.0  0.48605  0.07860  0.71039  1.0000
  H   H345      1.0  0.36584  0.20771  0.70814  1.0000
  H   H346      1.0  0.41767  0.46579  0.71915  1.0000
  H   H347      1.0  0.48537  0.46822  0.91021  1.0000
  H   H348      1.0  0.37225  0.28325  0.94448  1.0000
  H   H349      1.0  0.24151  0.47254  0.93182  1.0000
  N   N11       1.0  0.35674  0.26430  0.71575  1.0000
  C   C214      1.0  0.34323  0.24250  0.74016  1.0000
  H   H350      1.0  0.99568  0.35415  0.90076  1.0000
  C   C215      1.0  0.39409  0.28717  0.71918  1.0000
  H   H351      1.0  0.02354  0.48182  0.66521  1.0000
  H   H352      1.0  0.44596  0.14374  0.69805  1.0000
  H   H353      1.0  0.31707  0.22161  0.73682  1.0000
  C   C216      1.0  0.41308  0.30962  0.69501  1.0000
  H   H354      1.0  0.32894  0.49032  0.93607  1.0000
  H   H355      1.0  0.07636  0.41429  0.71532  1.0000
  H   H356      1.0  0.40827  0.33102  0.69374  1.0000
  H   H357      1.0  0.30879  0.44785  0.88512  1.0000
  C   C217      1.0  0.47729  0.10632  0.70871  1.0000
  H   H358      1.0  0.35812  0.22994  0.74445  1.0000
  H   H359      1.0  0.40663  0.02469  0.92755  1.0000
  C   C218      1.0  0.45716  0.04347  0.94175  1.0000
  C   C219      1.0  0.47526  0.48216  0.92142  1.0000
  H   H360      1.0  0.40640  0.27258  0.72537  1.0000
  H   H361      1.0  0.39910  0.30497  0.73575  1.0000
  H   H362      1.0  0.35243  0.25564  0.67320  1.0000
  H   H363      1.0  0.46035  0.33679  0.71705  1.0000
  H   H364      1.0  0.45262  0.08546  0.92635  1.0000
  C   C220      1.0  0.37028  0.00556  0.73246  1.0000
  C   C221      1.0  0.03984  0.37326  0.78482  1.0000
  H   H365      1.0  0.39640  0.24079  0.68749  1.0000
  C   C222      1.0  0.24774  0.33605  0.97999  1.0000
  C   C223      1.0  0.36010  0.45933  0.72961  1.0000
  C   C224      1.0  0.34894  0.24157  0.69201  1.0000
  H   H366      1.0  0.07102  0.45045  0.77702  1.0000
  C   C225      1.0  0.34337  0.26062  0.76612  1.0000
  H   H367      1.0  0.30325  0.21640  0.78581  1.0000
  C   C226      1.0  0.28842  0.29082  0.70714  1.0000
  H   H368      1.0  0.00683  0.45513  0.72986  1.0000
  C   C227      1.0  0.35759  0.19892  0.66635  1.0000
  H   H369      1.0  0.34516  0.22355  0.79221  1.0000
  C   C228      1.0  0.45727  0.04602  0.70004  1.0000
  C   C229      1.0  0.34814  0.04897  0.71543  1.0000
  H   H370      1.0  0.36868  0.48211  0.69061  1.0000
  C   C230      1.0  0.46341  0.01577  0.69832  1.0000
  C   C231      1.0  0.17993  0.42166  0.97453  1.0000
  C   C232      1.0  0.47730  0.47525  0.95126  1.0000
  S   S65       1.0  0.02043  0.40641  0.85420  1.0000
  C   C233      1.0  0.09473  0.43699  0.70421  1.0000
  C   C234      1.0  0.41028  0.47170  0.69970  1.0000
  Fe  Fe32      1.0  0.07820  0.47679  0.93019  1.0000
  C   C235      1.0  0.40022  0.39305  0.66501  1.0000
  H   H371      1.0  0.45012  0.04995  0.67974  1.0000
  H   H372      1.0  0.11620  0.46723  0.73884  1.0000
  H   H373      1.0  0.47516  0.49385  0.96378  1.0000
  C   C236      1.0  0.48762  0.00731  0.86046  1.0000
  C   C237      1.0  0.47889  0.49053  0.67404  1.0000
  H   H374      1.0  0.45023  0.04672  0.96217  1.0000
  H   H375      1.0  0.47314  0.01172  0.71726  1.0000
  H   H376      1.0  0.46047  0.46329  0.67532  1.0000
  H   H377      1.0  0.05457  0.44845  0.73601  1.0000
  C   C238      1.0  0.36211  0.00588  0.70567  1.0000
  H   H378      1.0  0.35593  0.48064  0.91629  1.0000
  H   H379      1.0  0.35443  0.06543  0.75634  1.0000
  C   C239      1.0  0.44949  0.44018  0.95922  1.0000
  H   H380      1.0  0.29344  0.25004  0.69198  1.0000
  C   C240      1.0  0.07293  0.47217  0.72606  1.0000
  H   H381      1.0  0.34860  0.30502  0.72773  1.0000
  H   H382      1.0  0.32186  0.22189  0.69196  1.0000
  C   C241      1.0  0.01684  0.37469  0.76710  1.0000
  H   H383      1.0  0.35029  0.30079  0.69317  1.0000
  C   C242      1.0  0.25413  0.36603  0.96274  1.0000
  H   H384      1.0  0.45998  0.04916  0.80127  1.0000
  H   H385      1.0  0.33126  0.24968  0.80782  1.0000
  H   H386      1.0  0.05529  0.36304  0.77812  1.0000
  H   H387      1.0  0.48151  0.07700  0.90833  1.0000
  C   C243      1.0  0.33137  0.00166  0.96104  1.0000
  C   C244      1.0  0.10428  0.46881  0.72015  1.0000
  C   C245      1.0  0.36916  0.22283  0.69007  1.0000
  C   C246      1.0  0.01400  0.46877  0.74911  1.0000
  H   H388      1.0  0.43288  0.01927  0.90525  1.0000
  S   S66       1.0  0.34867  0.45248  0.98123  1.0000
  C   C247      1.0  0.99968  0.39888  0.80240  1.0000
  C   C248      1.0  0.42577  0.01678  0.92651  1.0000
  C   C249      1.0  0.33366  0.48410  0.91582  1.0000
  H   H389      1.0  0.02801  0.47227  0.83665  1.0000
  C   C250      1.0  0.34080  0.28581  0.71174  1.0000
  C   C251      1.0  0.25000  0.45318  0.96836  1.0000
  H   H390      1.0  0.42874  0.08037  0.73038  1.0000
  H   H391      1.0  0.29885  0.30677  0.68918  1.0000
  H   H392      1.0  0.42462  0.43858  0.95773  1.0000
  H   H393      1.0  0.46010  0.08169  0.76287  1.0000
  S   S67       1.0  0.37624  0.02358  0.78441  1.0000
  H   H394      1.0  0.05952  0.38200  0.82494  1.0000
  H   H395      1.0  0.08592  0.45724  0.82498  1.0000
  H   H396      1.0  0.35174  0.30661  0.95313  1.0000
  H   H397      1.0  0.42474  0.08192  0.69519  1.0000
  H   H398      1.0  0.36919  0.28037  0.77137  1.0000
  C   C252      1.0  0.02187  0.39646  0.82038  1.0000
  H   H399      1.0  0.27702  0.46641  0.96628  1.0000
  H   H400      1.0  0.32743  0.27236  0.76433  1.0000
  H   H401      1.0  0.47684  0.03620  0.94273  1.0000
  C   C253      1.0  0.46785  0.06266  0.75960  1.0000
  H   H402      1.0  0.43444  0.03776  0.71216  1.0000
  H   H403      1.0  0.01294  0.48130  0.91750  1.0000
  C   C254      1.0  0.43985  0.09626  0.71270  1.0000
  H   H404      1.0  0.08365  0.43769  0.68478  1.0000
  C   C255      1.0  0.37298  0.46337  0.70113  1.0000
  H   H405      1.0  0.06102  0.47198  0.70672  1.0000
  H   H406      1.0  0.29013  0.25076  0.72750  1.0000
  C   C256      1.0  0.07780  0.47451  0.78697  1.0000
  C   C257      1.0  0.30188  0.26651  0.70973  1.0000
  H   H407      1.0  0.48375  0.11842  0.68876  1.0000
  H   H408      1.0  0.44562  0.03834  0.75404  1.0000
  S   S68       1.0  0.00801  0.41242  0.67749  1.0000
  H   H409      1.0  0.45314  0.43516  0.98008  1.0000
  H   H410      1.0  0.44143  0.49543  0.82849  1.0000
  H   H411      1.0  0.33066  0.17944  0.66840  1.0000
  H   H412      1.0  0.12254  0.47670  0.80416  1.0000
  H   H413      1.0  0.27121  0.00050  0.69621  1.0000
  C   C258      1.0  0.99701  0.38789  0.77598  1.0000
  H   H414      1.0  0.15297  0.40934  0.97711  1.0000
  H   H415      1.0  0.29528  0.30730  0.72488  1.0000
  H   H416      1.0  0.00978  0.49117  0.98040  1.0000
  H   H417      1.0  0.03262  0.49269  0.86796  1.0000
  H   H418      1.0  0.33380  0.45433  0.72946  1.0000
  H   H419      1.0  0.12309  0.49036  0.70830  1.0000
  H   H420      1.0  0.40694  0.32727  0.97628  1.0000
  H   H421      1.0  0.49273  0.12676  0.72308  1.0000
  H   H422      1.0  0.00009  0.29962  0.77620  1.0000
  H   H423      1.0  0.27051  0.33340  0.98076  1.0000
  C   C259      1.0  0.17028  0.84458  0.09153  1.0000
  Fe  Fe33      1.0  0.06951  0.65470  0.17589  1.0000
  S   S69       1.0  0.01854  0.64791  0.18184  1.0000
  S   S70       1.0  0.07212  0.60792  0.16546  1.0000
  Fe  Fe34      1.0  0.10374  0.73091  0.18524  1.0000
  S   S71       1.0  0.05353  0.72743  0.19313  1.0000
  S   S72       1.0  0.14907  0.78481  0.18694  1.0000
  Fe  Fe35      1.0  0.04051  0.68128  0.21753  1.0000
  H   H424      1.0  0.47280  0.51275  0.17508  1.0000
  Fe  Fe36      1.0  0.03625  0.69400  0.15721  1.0000
  H   H425      1.0  0.28716  0.87027  0.26062  1.0000
  S   S73       1.0  0.09176  0.68665  0.21241  1.0000
  S   S74       1.0  0.08643  0.69915  0.14835  1.0000
  Fe  Fe37      1.0  0.31159  0.92626  0.10624  1.0000
  H   H426      1.0  0.11236  0.80389  0.02264  1.0000
  S   S75       1.0  0.26894  0.87104  0.10551  1.0000
  Fe  Fe38      1.0  0.38838  0.96855  0.11244  1.0000
  S   S76       1.0  0.34567  0.94848  0.14165  1.0000
  S   S77       1.0  0.35511  0.94236  0.07752  1.0000
  H   H427      1.0  0.05456  0.76647  0.14468  1.0000
  C   C260      1.0  0.47641  0.53465  0.00767  1.0000
  H   H428      1.0  0.10647  0.76218  0.02430  1.0000
  H   H429      1.0  0.43516  0.51597  0.23703  1.0000
  H   H430      1.0  0.23572  0.83033  0.27140  1.0000
  H   H431      1.0  0.39938  0.97848  0.20772  1.0000
  C   C261      1.0  0.18066  0.80821  0.16282  1.0000
  C   C262      1.0  0.19828  0.84360  0.16421  1.0000
  C   C263      1.0  0.22547  0.86316  0.14704  1.0000
  C   C264      1.0  0.23535  0.84760  0.12811  1.0000
  C   C265      1.0  0.21711  0.81226  0.12622  1.0000
  C   C266      1.0  0.18995  0.79267  0.14341  1.0000
  H   H432      1.0  0.19088  0.85598  0.17870  1.0000
  H   H433      1.0  0.23853  0.89030  0.14813  1.0000
  H   H434      1.0  0.22427  0.79991  0.11148  1.0000
  H   H435      1.0  0.17677  0.76553  0.14206  1.0000
  H   H436      1.0  0.31839  0.97829  0.99988  1.0000
  H   H437      1.0  0.17194  0.89289  0.09260  1.0000
  C   C267      1.0  0.03712  0.53948  0.15854  1.0000
  C   C268      1.0  0.03645  0.56728  0.16937  1.0000
  C   C269      1.0  0.37999  0.94787  0.00766  1.0000
  C   C270      1.0  0.22524  0.85740  0.24002  1.0000
  H   H438      1.0  0.05933  0.54321  0.14816  1.0000
  H   H439      1.0  0.15712  0.77984  0.08824  1.0000
  H   H440      1.0  0.00033  0.51281  0.06497  1.0000
  H   H441      1.0  0.31101  0.83893  0.18749  1.0000
  C   C271      1.0  0.03316  0.69145  0.29905  1.0000
  H   H442      1.0  0.15872  0.72678  0.08658  1.0000
  H   H443      1.0  0.05462  0.70851  0.28723  1.0000
  H   H444      1.0  0.12451  0.83965  0.07394  1.0000
  N   N12       1.0  0.26036  0.87990  0.22956  1.0000
  C   C272      1.0  0.02850  0.67694  0.08552  1.0000
  C   C273      1.0  0.03117  0.66972  0.05888  1.0000
  H   H445      1.0  0.04370  0.67402  0.10048  1.0000
  H   H446      1.0  0.04874  0.66154  0.05344  1.0000
  S   S78       1.0  0.43742  0.96979  0.12177  1.0000
  H   H447      1.0  0.36978  0.92308  0.01761  1.0000
  C   C274      1.0  0.48157  0.50907  0.01749  1.0000
  H   H448      1.0  0.06543  0.80908  0.15190  1.0000
  H   H449      1.0  0.42912  0.55941  0.18359  1.0000
  C   C275      1.0  0.29938  0.87929  0.19225  1.0000
  H   H450      1.0  0.21121  0.89478  0.10024  1.0000
  H   H451      1.0  0.07380  0.79067  0.06200  1.0000
  H   H452      1.0  0.05617  0.55371  0.03445  1.0000
  C   C276      1.0  0.26811  0.85938  0.21034  1.0000
  C   C277      1.0  0.00611  0.68780  0.09270  1.0000
  C   C278      1.0  0.07537  0.79297  0.14452  1.0000
  H   H453      1.0  0.46816  0.61987  0.19605  1.0000
  H   H454      1.0  0.12419  0.78527  0.11997  1.0000
  H   H455      1.0  0.16328  0.83961  0.11273  1.0000
  C   C279      1.0  0.21882  0.82465  0.25406  1.0000
  H   H456      1.0  0.08216  0.63920  0.27985  1.0000
  H   H457      1.0  0.28856  0.93019  0.21331  1.0000
  H   H458      1.0  0.30338  0.89608  0.30543  1.0000
  C   C280      1.0  0.18262  0.80464  0.26407  1.0000
  C   C281      1.0  0.11703  0.73315  0.07321  1.0000
  H   H459      1.0  0.04694  0.59134  0.07981  1.0000
  H   H460      1.0  0.03586  0.57772  0.11348  1.0000
  C   C282      1.0  0.03359  0.59306  0.09751  1.0000
  H   H461      1.0  0.09851  0.72323  0.05679  1.0000
  C   C283      1.0  0.08892  0.80351  0.11643  1.0000
  H   H462      1.0  0.16458  0.79764  0.24730  1.0000
  H   H463      1.0  0.25343  0.90210  0.19391  1.0000
  C   C284      1.0  0.05752  0.61548  0.27999  1.0000
  H   H464      1.0  0.24625  0.84451  0.19699  1.0000
  H   H465      1.0  0.12520  0.69068  0.07018  1.0000
  C   C285      1.0  0.44857  0.55218  0.18762  1.0000
  C   C286      1.0  0.28645  0.89187  0.25132  1.0000
  C   C287      1.0  0.48127  0.96603  0.05464  1.0000
  H   H466      1.0  0.29577  0.89615  0.17857  1.0000
  H   H467      1.0  0.23248  0.96639  0.21815  1.0000
  N   N13       1.0  0.11693  0.78927  0.07775  1.0000
  H   H468      1.0  0.19685  0.88900  0.06644  1.0000
  H   H469      1.0  0.31201  0.90766  0.24293  1.0000
  H   H470      1.0  0.49368  0.95075  0.01833  1.0000
  H   H471      1.0  0.30651  0.93631  0.31111  1.0000
  H   H472      1.0  0.06778  0.80039  0.10377  1.0000
  C   C288      1.0  0.30852  0.91997  0.29585  1.0000
  H   H473      1.0  0.22255  0.80803  0.24021  1.0000
  H   H474      1.0  0.32718  0.87033  0.16168  1.0000
  H   H475      1.0  0.46378  0.55803  0.16925  1.0000
  H   H476      1.0  0.13124  0.51222  0.15903  1.0000
  H   H477      1.0  0.99958  0.53585  0.99325  1.0000
  N   N14       1.0  0.03388  0.50301  0.01870  1.0000
  C   C289      1.0  0.00561  0.66425  0.28686  1.0000
  H   H478      1.0  0.04605  0.61974  0.10401  1.0000
  H   H479      1.0  0.11455  0.51398  0.19086  1.0000
  C   C290      1.0  0.13714  0.77210  0.07289  1.0000
  H   H480      1.0  0.15405  0.72671  0.05086  1.0000
  H   H481      1.0  0.41654  0.96232  0.18358  1.0000
  H   H482      1.0  0.05135  0.78078  0.01565  1.0000
  C   C291      1.0  0.12695  0.52326  0.00849  1.0000
  H   H483      1.0  0.07283  0.58935  0.30665  1.0000
  C   C292      1.0  0.47268  0.57691  0.20902  1.0000
  H   H484      1.0  0.40277  0.96652  0.01860  1.0000
  H   H485      1.0  0.38723  0.50571  0.17295  1.0000
  H   H486      1.0  0.42967  0.95223  0.06317  1.0000
  C   C293      1.0  0.45885  0.50539  0.19419  1.0000
  H   H487      1.0  0.10815  0.83059  0.11720  1.0000
  H   H488      1.0  0.06618  0.51925  0.23507  1.0000
  C   C294      1.0  0.06408  0.50147  0.00861  1.0000
  C   C295      1.0  0.06303  0.76492  0.01256  1.0000
  H   H489      1.0  0.48525  0.98982  0.04570  1.0000
  H   H490      1.0  0.27584  0.97689  0.21781  1.0000
  H   H491      1.0  0.03715  0.62162  0.27754  1.0000
  C   C296      1.0  0.08710  0.77624  0.05925  1.0000
  C   C297      1.0  0.44354  0.94094  0.05370  1.0000
  H   H492      1.0  0.34785  0.96989  0.24076  1.0000
  H   H493      1.0  0.47815  0.51959  0.20961  1.0000
  C   C298      1.0  0.99659  0.57994  0.09093  1.0000
  H   H494      1.0  0.15142  0.54175  0.01747  1.0000
  C   C299      1.0  0.05276  0.59608  0.30577  1.0000
  C   C300      1.0  0.01132  0.67302  0.03922  1.0000
  C   C301      1.0  0.41595  0.51001  0.22132  1.0000
  S   S79       1.0  0.43580  0.52995  0.00560  1.0000
  H   H495      1.0  0.43767  0.91772  0.06478  1.0000
  H   H496      1.0  0.34206  0.97684  0.19259  1.0000
  C   C302      1.0  0.47922  0.50743  0.27372  1.0000
  H   H497      1.0  0.43680  0.52302  0.13823  1.0000
  H   H498      1.0  0.45935  0.57467  0.22790  1.0000
  H   H499      1.0  0.33467  0.93324  0.28809  1.0000
  H   H500      1.0  0.04166  0.59651  0.99795  1.0000
  H   H501      1.0  0.24881  0.95516  0.18988  1.0000
  H   H502      1.0  0.06803  0.74979  0.06424  1.0000
  H   H503      1.0  0.03405  0.59384  0.03326  1.0000
  H   H504      1.0  0.43467  0.93439  0.03291  1.0000
  C   C303      1.0  0.04159  0.53914  0.01678  1.0000
  H   H505      1.0  0.12819  0.52822  0.98682  1.0000
  C   C304      1.0  0.09499  0.77778  0.02918  1.0000
  H   H506      1.0  0.05805  0.55166  0.99929  1.0000
  C   C305      1.0  0.48808  0.61337  0.19980  1.0000
  H   H507      1.0  0.06916  0.76556  0.99120  1.0000
  H   H508      1.0  0.09563  0.79569  0.15817  1.0000
  C   C306      1.0  0.14032  0.71858  0.06999  1.0000
  H   H509      1.0  0.02800  0.57289  0.30457  1.0000
  S   S80       1.0  0.01744  0.66564  0.00596  1.0000
  C   C307      1.0  0.13929  0.82647  0.07300  1.0000
  H   H510      1.0  0.28306  0.83971  0.16245  1.0000
  C   C308      1.0  0.30543  0.85548  0.17500  1.0000
  C   C309      1.0  0.28332  0.91329  0.27356  1.0000
  Fe  Fe39      1.0  0.34324  0.99498  0.13216  1.0000
  H   H511      1.0  0.40657  0.52797  0.22432  1.0000
  H   H512      1.0  0.05656  0.59994  0.26279  1.0000
  H   H513      1.0  0.08400  0.75537  0.10806  1.0000
  C   C310      1.0  0.02286  0.58278  0.01374  1.0000
  C   C311      1.0  0.09861  0.52672  0.02114  1.0000
  H   H514      1.0  0.15082  0.78036  0.05369  1.0000
  N   N15       1.0  0.43195  0.51510  0.19423  1.0000
  H   H515      1.0  0.24185  0.92785  0.24670  1.0000
  H   H516      1.0  0.14983  0.83118  0.05263  1.0000
  H   H517      1.0  0.28921  0.93819  0.26560  1.0000
  H   H518      1.0  0.10345  0.72360  0.09217  1.0000
  H   H519      1.0  0.25790  0.90068  0.28249  1.0000
  H   H520      1.0  0.21319  0.90628  0.22014  1.0000
  C   C312      1.0  0.10405  0.78217  0.10592  1.0000
  H   H521      1.0  0.49190  0.92601  0.04589  1.0000
  C   C313      1.0  0.26203  0.90936  0.21471  1.0000
  C   C314      1.0  0.18853  0.88262  0.08736  1.0000
  C   C315      1.0  0.24004  0.92393  0.22501  1.0000
  C   C316      1.0  0.24996  0.95761  0.21183  1.0000
  H   H522      1.0  0.17746  0.81950  0.27876  1.0000
  H   H523      1.0  0.20680  0.84978  0.22340  1.0000
  H   H524      1.0  0.21779  0.87088  0.25422  1.0000
  H   H525      1.0  0.27211  0.84051  0.22117  1.0000
  H   H526      1.0  0.10472  0.55313  0.01825  1.0000
  H   H527      1.0  0.17846  0.78114  0.27377  1.0000
  C   C317      1.0  0.34909  0.99264  0.23352  1.0000
  H   H528      1.0  0.32250  0.89476  0.20400  1.0000
  C   C318      1.0  0.48336  0.53982  0.27644  1.0000
  H   H529      1.0  0.46387  0.54288  0.28579  1.0000
  H   H530      1.0  0.04461  0.73859  0.01789  1.0000
  H   H531      1.0  0.48882  0.97118  0.07565  1.0000
  H   H532      1.0  0.18848  0.83607  0.08704  1.0000
  S   S81       1.0  0.30684  0.97226  0.09796  1.0000
  C   C319      1.0  0.00737  0.56205  0.18252  1.0000
  H   H533      1.0  0.45668  0.49915  0.09020  1.0000
  H   H534      1.0  0.48564  0.94788  0.26610  1.0000
  C   C320      1.0  0.00915  0.50692  0.16078  1.0000
  H   H535      1.0  0.00659  0.58296  0.19144  1.0000
  H   H536      1.0  0.49367  0.57230  0.21328  1.0000
  S   S82       1.0  0.00411  0.65618  0.25223  1.0000
  C   C321      1.0  0.01143  0.54527  0.01295  1.0000
  C   C322      1.0  0.41830  0.49730  0.14476  1.0000
  H   H537      1.0  0.37839  0.50033  0.12359  1.0000
  H   H538      1.0  0.09892  0.52205  0.04268  1.0000
  H   H539      1.0  0.99576  0.59385  0.07321  1.0000
  C   C323      1.0  0.42225  0.98436  0.19621  1.0000
  H   H540      1.0  0.49015  0.89692  0.26447  1.0000
  H   H541      1.0  0.00096  0.53008  0.24715  1.0000
  H   H542      1.0  0.44289  0.98876  0.21006  1.0000
  H   H543      1.0  0.36072  0.95569  0.00879  1.0000
  H   H544      1.0  0.04994  0.50816  0.05961  1.0000
  H   H545      1.0  0.06641  0.50550  0.98682  1.0000
  Fe  Fe40      1.0  0.35259  0.98972  0.07163  1.0000
  H   H546      1.0  0.00099  0.58644  0.01026  1.0000
  S   S83       1.0  0.00225  0.69708  0.12597  1.0000
  H   H547      1.0  0.12302  0.49762  0.01183  1.0000
  H   H548      1.0  0.48628  0.99477  0.25501  1.0000
  H   H549      1.0  0.02916  0.49819  0.27423  1.0000
  C   C324      1.0  0.10984  0.49832  0.17285  1.0000
  C   C325      1.0  0.40539  0.49627  0.17336  1.0000
  H   H550      1.0  0.10426  0.60038  0.61671  1.0000
  N   N16       1.0  0.00297  0.55746  0.59437  1.0000
  C   C326      1.0  0.22338  0.80969  0.62934  1.0000
  C   C327      1.0  0.00060  0.66611  0.59088  1.0000
  S   S84       1.0  0.99945  0.62831  0.43307  1.0000
  C   C328      1.0  0.22410  0.86011  0.64387  1.0000
  H   H551      1.0  0.04111  0.63090  0.32609  1.0000
  C   C329      1.0  0.04842  0.52398  0.43389  1.0000
  C   C330      1.0  0.04709  0.55189  0.44375  1.0000
  H   H552      1.0  0.11182  0.56174  0.35161  1.0000
  C   C331      1.0  0.44864  0.96879  0.54545  1.0000
  H   H553      1.0  0.45074  0.51739  0.41490  1.0000
  H   H554      1.0  0.06829  0.57109  0.45470  1.0000
  C   C332      1.0  0.01404  0.50876  0.60568  1.0000
  H   H555      1.0  0.18293  0.76268  0.64468  1.0000
  H   H556      1.0  0.07591  0.66058  0.42404  1.0000
  H   H557      1.0  0.32925  0.52930  0.43545  1.0000
  Fe  Fe41      1.0  0.31490  0.92465  0.60866  1.0000
  S   S85       1.0  0.00459  0.68434  0.37649  1.0000
  S   S86       1.0  0.27421  0.86870  0.60815  1.0000
  Fe  Fe42      1.0  0.39144  0.96833  0.61673  1.0000
  H   H558      1.0  0.01683  0.53029  0.56665  1.0000
  S   S87       1.0  0.35966  0.94161  0.58130  1.0000
  H   H559      1.0  0.04038  0.52588  0.61193  1.0000
  H   H560      1.0  0.07089  0.58760  0.38710  1.0000
  S   S88       1.0  0.44968  0.52039  0.49451  1.0000
  H   H561      1.0  0.07973  0.78089  0.64415  1.0000
  C   C333      1.0  0.23871  0.84501  0.62903  1.0000
  C   C334      1.0  0.08902  0.54496  0.36331  1.0000
  C   C335      1.0  0.32118  0.50743  0.44889  1.0000
  H   H562      1.0  0.04131  0.74324  0.63537  1.0000
  H   H563      1.0  0.43488  0.91970  0.58436  1.0000
  H   H564      1.0  0.30519  0.98512  0.45755  1.0000
  H   H565      1.0  0.34160  0.51348  0.46349  1.0000
  C   C336      1.0  0.03058  0.66869  0.58195  1.0000
  C   C337      1.0  0.03561  0.66660  0.55469  1.0000
  H   H566      1.0  0.04980  0.67224  0.59604  1.0000
  H   H567      1.0  0.05894  0.66876  0.54787  1.0000
  H   H568      1.0  0.45894  0.97896  0.56543  1.0000
  S   S89       1.0  0.43939  0.96685  0.62432  1.0000
  S   S90       1.0  0.30974  0.97006  0.59900  1.0000
  H   H569      1.0  0.42178  0.96237  0.54591  1.0000
  C   C338      1.0  0.06739  0.59251  0.58615  1.0000
  H   H570      1.0  0.09502  0.60542  0.35797  1.0000
  H   H571      1.0  0.08215  0.63810  0.33085  1.0000
  C   C339      1.0  0.06237  0.76703  0.62750  1.0000
  H   H572      1.0  0.05525  0.54735  0.33518  1.0000
  H   H573      1.0  0.06332  0.68432  0.40287  1.0000
  C   C340      1.0  0.03719  0.58282  0.60492  1.0000
  S   S91       1.0  0.34740  0.94749  0.64471  1.0000
  H   H574      1.0  0.23519  0.88716  0.64351  1.0000
  H   H575      1.0  0.09113  0.74453  0.61554  1.0000
  C   C341      1.0  0.05543  0.61765  0.33016  1.0000
  H   H576      1.0  0.10720  0.69850  0.40809  1.0000
  C   C342      1.0  0.10062  0.61472  0.60053  1.0000
  H   H577      1.0  0.01736  0.57617  0.44803  1.0000
  H   H578      1.0  0.08129  0.51844  0.35859  1.0000
  H   H579      1.0  0.44144  0.92370  0.52377  1.0000
  Fe  Fe43      1.0  0.35694  0.98859  0.57426  1.0000
  H   H580      1.0  0.01338  0.57881  0.55490  1.0000
  C   C343      1.0  0.00933  0.57050  0.35599  1.0000
  C   C344      1.0  0.01053  0.66146  0.53621  1.0000
  H   H581      1.0  0.42727  0.88634  0.56179  1.0000
  C   C345      1.0  0.42653  0.91002  0.56397  1.0000
  N   N17       1.0  0.12805  0.78802  0.57064  1.0000
  C   C346      1.0  0.10336  0.77030  0.54840  1.0000
  C   C347      1.0  0.10958  0.79182  0.59394  1.0000
  C   C348      1.0  0.15306  0.82305  0.56114  1.0000
  C   C349      1.0  0.14704  0.77037  0.57888  1.0000
  C   C350      1.0  0.12875  0.73159  0.57559  1.0000
  C   C351      1.0  0.11932  0.77054  0.52122  1.0000
  C   C352      1.0  0.17830  0.84687  0.58230  1.0000
  C   C353      1.0  0.19403  0.78970  0.64434  1.0000
  H   H582      1.0  0.03801  0.60681  0.60991  1.0000
  C   C354      1.0  0.14881  0.71693  0.58839  1.0000
  C   C355      1.0  0.09407  0.74298  0.50287  1.0000
  C   C356      1.0  0.20750  0.87807  0.56970  1.0000
  H   H583      1.0  0.08736  0.78194  0.54516  1.0000
  H   H584      1.0  0.08522  0.74379  0.55360  1.0000
  H   H585      1.0  0.12717  0.80464  0.61077  1.0000
  H   H586      1.0  0.09905  0.80821  0.58832  1.0000
  H   H587      1.0  0.13972  0.83575  0.55286  1.0000
  H   H588      1.0  0.16846  0.82184  0.54462  1.0000
  H   H589      1.0  0.17101  0.78025  0.56761  1.0000
  H   H590      1.0  0.15498  0.77612  0.59997  1.0000
  H   H591      1.0  0.12569  0.72461  0.55431  1.0000
  H   H592      1.0  0.10351  0.71918  0.58463  1.0000
  H   H593      1.0  0.12798  0.79511  0.51124  1.0000
  H   H594      1.0  0.14141  0.76703  0.52359  1.0000
  H   H595      1.0  0.18898  0.83385  0.59372  1.0000
  H   H596      1.0  0.16561  0.85560  0.59630  1.0000
  H   H597      1.0  0.06173  0.74334  0.59094  1.0000
  C   C357      1.0  0.08074  0.75910  0.60597  1.0000
  H   H598      1.0  0.10155  0.64854  0.38532  1.0000
  H   H599      1.0  0.05170  0.78219  0.61934  1.0000
  H   H600      1.0  0.03007  0.63445  0.37162  1.0000
  H   H601      1.0  0.13631  0.68959  0.58422  1.0000
  H   H602      1.0  0.17475  0.72908  0.58028  1.0000
  H   H603      1.0  0.15005  0.72055  0.61022  1.0000
  H   H604      1.0  0.10548  0.74526  0.48304  1.0000
  H   H605      1.0  0.08693  0.71781  0.51103  1.0000
  H   H606      1.0  0.07105  0.74495  0.50044  1.0000
  H   H607      1.0  0.22442  0.89489  0.58552  1.0000
  H   H608      1.0  0.22249  0.87091  0.55679  1.0000
  H   H609      1.0  0.19811  0.89212  0.55788  1.0000
  H   H610      1.0  0.04229  0.57408  0.62402  1.0000
  C   C358      1.0  0.03258  0.69702  0.32653  1.0000
  C   C359      1.0  0.45213  0.98754  0.44760  1.0000
  H   H611      1.0  0.43881  0.51609  0.60838  1.0000
  H   H612      1.0  0.12188  0.62331  0.58641  1.0000
  H   H613      1.0  0.49343  0.63656  0.36116  1.0000
  C   C360      1.0  0.01827  0.55487  0.43990  1.0000
  H   H614      1.0  0.07902  0.51558  0.50256  1.0000
  H   H615      1.0  0.08961  0.67259  0.36425  1.0000
  H   H616      1.0  0.10098  0.63712  0.60924  1.0000
  H   H617      1.0  0.40015  0.90423  0.56117  1.0000
  H   H618      1.0  0.03737  0.61118  0.39639  1.0000
  C   C361      1.0  0.44967  0.93567  0.54348  1.0000
  H   H619      1.0  0.48437  0.53614  0.33552  1.0000
  H   H620      1.0  0.42356  0.96801  0.49899  1.0000
  H   H621      1.0  0.03780  0.53271  0.36758  1.0000
  N   N18       1.0  0.04506  0.59957  0.35644  1.0000
  S   S92       1.0  0.01827  0.65952  0.50225  1.0000
  C   C362      1.0  0.06907  0.58763  0.36500  1.0000
  C   C363      1.0  0.04677  0.62428  0.37702  1.0000
  S   S93       1.0  0.08490  0.68763  0.64750  1.0000
  H   H622      1.0  0.05172  0.51437  0.52869  1.0000
  H   H623      1.0  0.06809  0.57014  0.57880  1.0000
  C   C364      1.0  0.08205  0.65560  0.38170  1.0000
  C   C365      1.0  0.06039  0.55163  0.35666  1.0000
  H   H624      1.0  0.05372  0.71851  0.33567  1.0000
  H   H625      1.0  0.06625  0.60691  0.56888  1.0000
  S   S94       1.0  0.08466  0.52050  0.43975  1.0000
  C   C366      1.0  0.08197  0.67588  0.40566  1.0000
  H   H626      1.0  0.31702  0.98189  0.50529  1.0000
  H   H627      1.0  0.46160  0.97330  0.33976  1.0000
  H   H628      1.0  0.99728  0.59734  0.57661  1.0000
  H   H629      1.0  0.23434  0.79768  0.61787  1.0000
  H   H630      1.0  0.45618  0.95963  0.49172  1.0000
  C   C367      1.0  0.41271  0.49939  0.61540  1.0000
  C   C368      1.0  0.49422  0.49642  0.34338  1.0000
  H   H631      1.0  0.48974  0.50618  0.43863  1.0000
  C   C369      1.0  0.48901  0.52318  0.50002  1.0000
  C   C370      1.0  0.00468  0.67535  0.34219  1.0000
  H   H632      1.0  0.48560  0.57905  0.36273  1.0000
  H   H633      1.0  0.39871  0.51332  0.61507  1.0000
  H   H634      1.0  0.00660  0.55023  0.34258  1.0000
  H   H635      1.0  0.47551  0.94067  0.54768  1.0000
  H   H636      1.0  0.46558  0.97348  0.44386  1.0000
  H   H637      1.0  0.42456  0.96979  0.44708  1.0000
  H   H638      1.0  0.09526  0.54911  0.38477  1.0000
  H   H639      1.0  0.48688  0.52938  0.36987  1.0000
  C   C371      1.0  0.02091  0.49946  0.41964  1.0000
  H   H640      1.0  0.29845  0.50304  0.45997  1.0000
  H   H641      1.0  0.00246  0.55870  0.37597  1.0000
  C   C372      1.0  0.49263  0.50090  0.51682  1.0000
  C   C373      1.0  0.45152  0.98016  0.49765  1.0000
  C   C374      1.0  0.05731  0.49865  0.51527  1.0000
  N   N19       1.0  0.46724  0.99482  0.52423  1.0000
  H   H642      1.0  0.99756  0.50099  0.62337  1.0000
  C   C375      1.0  0.00208  0.52573  0.58521  1.0000
  Fe  Fe44      1.0  0.34481  0.99362  0.63390  1.0000
  C   C376      1.0  0.99479  0.57274  0.57108  1.0000
  H   H643      1.0  0.18079  0.81717  0.76539  1.0000
  H   H644      1.0  0.32881  0.90449  0.74873  1.0000
  Fe  Fe45      1.0  0.07367  0.64886  0.67936  1.0000
  S   S95       1.0  0.02093  0.63744  0.68523  1.0000
  S   S96       1.0  0.08260  0.60489  0.67345  1.0000
  Fe  Fe46      1.0  0.10122  0.72499  0.68105  1.0000
  S   S97       1.0  0.04900  0.71709  0.68829  1.0000
  H   H645      1.0  0.44910  0.58383  0.74509  1.0000
  Fe  Fe47      1.0  0.04186  0.67667  0.71738  1.0000
  C   C377      1.0  0.42068  0.93091  0.92320  1.0000
  H   H646      1.0  0.29283  0.85962  0.72623  1.0000
  S   S98       1.0  0.09498  0.68678  0.71256  1.0000
  H   H647      1.0  0.40825  0.52782  0.71100  1.0000
  H   H648      1.0  0.29654  0.88192  0.77335  1.0000
  C   C378      1.0  0.49043  0.52112  0.77099  1.0000
  H   H649      1.0  0.48910  0.54897  0.94470  1.0000
  H   H650      1.0  0.11057  0.57127  0.75666  1.0000
  C   C379      1.0  0.37803  0.96458  0.89127  1.0000
  H   H651      1.0  0.01864  0.57971  0.70097  1.0000
  H   H652      1.0  0.03181  0.54545  0.86959  1.0000
  H   H653      1.0  0.04899  0.51953  0.76274  1.0000
  C   C380      1.0  0.04991  0.53590  0.66966  1.0000
  C   C381      1.0  0.04843  0.56391  0.67904  1.0000
  C   C382      1.0  0.40520  0.97990  0.96510  1.0000
  C   C383      1.0  0.03752  0.70490  0.82556  1.0000
  H   H654      1.0  0.09491  0.53016  0.70466  1.0000
  C   C384      1.0  0.34586  0.93709  0.87838  1.0000
  C   C385      1.0  0.20637  0.85076  0.73209  1.0000
  S   S99       1.0  0.08153  0.52749  0.93549  1.0000
  H   H655      1.0  0.08594  0.65549  0.87888  1.0000
  H   H656      1.0  0.08372  0.56856  0.72974  1.0000
  H   H657      1.0  0.05715  0.71414  0.78546  1.0000
  C   C386      1.0  0.28216  0.86374  0.70790  1.0000
  C   C387      1.0  0.02239  0.50315  0.67296  1.0000
  C   C388      1.0  0.37742  0.96047  0.92184  1.0000
  H   H658      1.0  0.34674  0.94171  0.85669  1.0000
  H   H659      1.0  0.30564  0.91810  0.70463  1.0000
  H   H660      1.0  0.25669  0.84158  0.70513  1.0000
  C   C389      1.0  0.04611  0.56055  0.94173  1.0000
  H   H661      1.0  0.37866  0.98854  0.73901  1.0000
  H   H662      1.0  0.36442  0.92687  0.96896  1.0000
  C   C390      1.0  0.43920  0.51863  0.92987  1.0000
  H   H663      1.0  0.05731  0.57292  0.79803  1.0000
  C   C391      1.0  0.01247  0.76903  0.84346  1.0000
  H   H664      1.0  0.41292  0.97589  0.70862  1.0000
  C   C392      1.0  0.30385  0.86437  0.68472  1.0000
  N   N20       1.0  0.43557  0.50697  0.69120  1.0000
  H   H665      1.0  0.23681  0.92674  0.74408  1.0000
  H   H666      1.0  0.41189  0.52614  0.66449  1.0000
  H   H667      1.0  0.07216  0.53957  0.65940  1.0000
  H   H668      1.0  0.45737  0.92246  0.65159  1.0000
  H   H669      1.0  0.02143  0.61816  0.84459  1.0000
  C   C393      1.0  0.29390  0.92357  0.75338  1.0000
  H   H670      1.0  0.19113  0.86339  0.73318  1.0000
  H   H671      1.0  0.12200  0.50945  0.76490  1.0000
  S   S100      1.0  0.14185  0.78099  0.67795  1.0000
  H   H672      1.0  0.05725  0.61209  0.79875  1.0000
  C   C394      1.0  0.31350  0.90693  0.76463  1.0000
  H   H673      1.0  0.35722  0.95305  0.77855  1.0000
  H   H674      1.0  0.43789  0.52442  0.73150  1.0000
  H   H675      1.0  0.05772  0.72839  0.83317  1.0000
  H   H676      1.0  0.19806  0.80073  0.74118  1.0000
  N   N21       1.0  0.26611  0.90316  0.73379  1.0000
  H   H677      1.0  0.31334  0.94735  0.74422  1.0000
  H   H678      1.0  0.01856  0.58669  0.94748  1.0000
  H   H679      1.0  0.16046  0.59931  0.72795  1.0000
  H   H680      1.0  0.47465  0.55688  0.78100  1.0000
  H   H681      1.0  0.06512  0.51231  0.84315  1.0000
  H   H682      1.0  0.22983  0.91016  0.71127  1.0000
  C   C395      1.0  0.03727  0.69690  0.79848  1.0000
  C   C396      1.0  0.24972  0.92362  0.72651  1.0000
  H   H683      1.0  0.45884  0.57627  0.68563  1.0000
  S   S101      1.0  0.00832  0.65555  0.75426  1.0000
  C   C397      1.0  0.28009  0.89647  0.70883  1.0000
  H   H684      1.0  0.01960  0.55504  0.75846  1.0000
  C   C398      1.0  0.23992  0.87150  0.74737  1.0000
  H   H685      1.0  0.35080  0.91547  0.79480  1.0000
  H   H686      1.0  0.09953  0.52702  0.77955  1.0000
  C   C399      1.0  0.18529  0.81564  0.74394  1.0000
  H   H687      1.0  0.26480  0.89512  0.69117  1.0000
  C   C400      1.0  0.01964  0.55877  0.69245  1.0000
  H   H688      1.0  0.30976  0.98122  0.95140  1.0000
  C   C401      1.0  0.04182  0.58483  0.79433  1.0000
  H   H689      1.0  0.28966  0.97643  0.73100  1.0000
  H   H690      1.0  0.48385  0.56040  0.91243  1.0000
  H   H691      1.0  0.36418  0.98918  0.69177  1.0000
  C   C402      1.0  0.04478  0.53073  0.93354  1.0000
  H   H692      1.0  0.24975  0.85440  0.75194  1.0000
  H   H693      1.0  0.04144  0.51451  0.72809  1.0000
  H   H694      1.0  0.06954  0.58123  0.94898  1.0000
  H   H695      1.0  0.16053  0.80229  0.73376  1.0000
  H   H696      1.0  0.36578  0.93332  0.92636  1.0000
  H   H697      1.0  0.28963  0.95841  0.69918  1.0000
  C   C403      1.0  0.03342  0.60335  0.85091  1.0000
  H   H698      1.0  0.21099  0.84812  0.71096  1.0000
  H   H699      1.0  0.05892  0.61639  0.84194  1.0000
  C   C404      1.0  0.01970  0.51478  0.83478  1.0000
  C   C405      1.0  0.42897  0.51545  0.66365  1.0000
  C   C406      1.0  0.47956  0.92174  0.65952  1.0000
  C   C407      1.0  0.10294  0.53344  0.72584  1.0000
  H   H700      1.0  0.46538  0.93602  0.90368  1.0000
  H   H701      1.0  0.23339  0.87777  0.76703  1.0000
  H   H702      1.0  0.33033  0.88474  0.68743  1.0000
  C   C408      1.0  0.10664  0.56746  0.73500  1.0000
  H   H703      1.0  0.46666  0.98268  0.86496  1.0000
  C   C409      1.0  0.03915  0.60734  0.88132  1.0000
  H   H704      1.0  0.48197  0.53282  0.83209  1.0000
  C   C410      1.0  0.45871  0.56881  0.70655  1.0000
  C   C411      1.0  0.13636  0.59710  0.72132  1.0000
  C   C412      1.0  0.06112  0.64431  0.88888  1.0000
  H   H705      1.0  0.13423  0.59395  0.69944  1.0000
  H   H706      1.0  0.01800  0.59356  0.76005  1.0000
  H   H707      1.0  0.42775  0.55757  0.91818  1.0000
  S   S102      1.0  0.01232  0.69465  0.87643  1.0000
  H   H708      1.0  0.12867  0.53676  0.72573  1.0000
  H   H709      1.0  0.33926  0.50556  0.90252  1.0000
  C   C413      1.0  0.43077  0.98340  0.69180  1.0000
  H   H710      1.0  0.02635  0.77550  0.82438  1.0000
  H   H711      1.0  0.47476  0.50551  0.71392  1.0000
  C   C414      1.0  0.25350  0.97468  0.70338  1.0000
  H   H712      1.0  0.13661  0.62078  0.72633  1.0000
  H   H713      1.0  0.48997  0.53788  0.68972  1.0000
  C   C415      1.0  0.47038  0.51136  0.69334  1.0000
  C   C416      1.0  0.17909  0.80475  0.65879  1.0000
  C   C417      1.0  0.03268  0.54971  0.84779  1.0000
  H   H714      1.0  0.48465  0.57524  0.71204  1.0000
  H   H715      1.0  0.05989  0.56555  0.84301  1.0000
  H   H716      1.0  0.32359  0.93741  0.88664  1.0000
  H   H717      1.0  0.35916  0.96772  0.92956  1.0000
  C   C418      1.0  0.47779  0.53815  0.92504  1.0000
  H   H718      1.0  0.34326  0.91199  0.88169  1.0000
  C   C419      1.0  0.46085  0.50442  0.86869  1.0000
  H   H719      1.0  0.45277  0.53574  0.65490  1.0000
  H   H720      1.0  0.47973  0.49934  0.65345  1.0000
  H   H721      1.0  0.39976  0.52841  0.94273  1.0000
  H   H722      1.0  0.46861  0.61732  0.72125  1.0000
  H   H723      1.0  0.45073  0.98225  0.91124  1.0000
  C   C420      1.0  0.43377  0.53074  0.71097  1.0000
  C   C421      1.0  0.43560  0.96897  0.92906  1.0000
  H   H724      1.0  0.04859  0.65874  0.88328  1.0000
  H   H725      1.0  0.05705  0.59516  0.75303  1.0000
  H   H726      1.0  0.28370  0.93119  0.77041  1.0000
  C   C422      1.0  0.01182  0.68284  0.84279  1.0000
  H   H727      1.0  0.47080  0.89618  0.66762  1.0000
  H   H728      1.0  0.30333  0.83997  0.68349  1.0000
  N   N22       1.0  0.07920  0.50274  0.74183  1.0000
  H   H729      1.0  0.06547  0.64651  0.91063  1.0000
  H   H730      1.0  0.41878  0.98686  0.67383  1.0000
  H   H731      1.0  0.40646  0.92403  0.90425  1.0000
  H   H732      1.0  0.47705  0.94353  0.69627  1.0000
  H   H733      1.0  0.46932  0.50025  0.78063  1.0000
  H   H734      1.0  0.01498  0.59714  0.89207  1.0000
  C   C423      1.0  0.01099  0.66687  0.78828  1.0000
  C   C424      1.0  0.27342  0.95922  0.71510  1.0000
  H   H735      1.0  0.46319  0.92751  0.93900  1.0000
  H   H736      1.0  0.43694  0.89462  0.91612  1.0000
  H   H737      1.0  0.43610  0.96276  0.68783  1.0000
  H   H738      1.0  0.05242  0.59427  0.88850  1.0000
  C   C425      1.0  0.01432  0.50422  0.92420  1.0000
  H   H739      1.0  0.18292  0.85204  0.66931  1.0000
  C   C426      1.0  0.03349  0.58180  0.76471  1.0000
  H   H740      1.0  0.02533  0.76043  0.85746  1.0000
  H   H741      1.0  0.01347  0.79199  0.85156  1.0000
  C   C427      1.0  0.33783  0.92840  0.78654  1.0000
  H   H742      1.0  0.23691  0.97625  0.71862  1.0000
  C   C428      1.0  0.00921  0.56856  0.81120  1.0000
  N   N23       1.0  0.01375  0.56774  0.84082  1.0000
  C   C429      1.0  0.42632  0.54280  0.93607  1.0000
  H   H743      1.0  0.42453  0.58671  0.71810  1.0000
  H   H744      1.0  0.44129  0.56033  0.95228  1.0000
  H   H745      1.0  0.44686  0.51770  0.87318  1.0000
  H   H746      1.0  0.39994  0.96438  0.88222  1.0000
  C   C430      1.0  0.01722  0.56378  0.94076  1.0000
  C   C431      1.0  0.44951  0.59035  0.72382  1.0000
  H   H747      1.0  0.29417  0.86846  0.66573  1.0000
  H   H748      1.0  0.32423  0.93271  0.80289  1.0000
  C   C432      1.0  0.44837  0.92189  0.92039  1.0000
  C   C433      1.0  0.49348  0.55321  0.77115  1.0000
  H   H749      1.0  0.02450  0.51743  0.81316  1.0000
  S   S103      1.0  0.00260  0.63750  0.93714  1.0000
  C   C434      1.0  0.09605  0.50488  0.76807  1.0000
  Fe  Fe48      1.0  0.03300  0.67833  0.65597  1.0000
  C   C435      1.0  0.04669  0.50316  0.74567  1.0000
  H   H750      1.0  0.43303  0.50150  0.94711  1.0000
  H   H751      1.0  0.40328  0.91488  0.93890  1.0000
  C   C436      1.0  0.46617  0.50634  0.83869  1.0000
  H   H752      1.0  0.10850  0.50214  0.82125  1.0000
  H   H753      1.0  0.42486  0.50314  0.91269  1.0000
  C   C437      1.0  0.19434  0.84007  0.65838  1.0000
  H   H754      1.0  0.37975  0.98894  0.88642  1.0000
  N   N24       1.0  0.41097  0.98072  0.93557  1.0000
  H   H755      1.0  0.45440  0.97609  0.94530  1.0000
  H   H756      1.0  0.38991  0.99196  0.96953  1.0000
  C   C438      1.0  0.03756  0.49709  0.84635  1.0000
  H   H757      1.0  0.40579  0.93502  0.97889  1.0000
  C   C439      1.0  0.38829  0.94507  0.97874  1.0000
  H   H758      1.0  0.99654  0.58314  0.80636  1.0000
  N   N25       1.0  0.49348  0.51877  0.91352  1.0000
  H   H759      1.0  0.23809  0.95957  0.68628  1.0000
  H   H760      1.0  0.42936  0.99489  0.97586  1.0000
  C   C440      1.0  0.98717  0.36837  0.03316  1.0000
  S   S104      1.0  0.93641  0.37422  0.20136  1.0000
  H   H761      1.0  0.59444  0.04297  0.25542  1.0000
  H   H762      1.0  0.87629  0.22467  0.02135  1.0000
  S   S105      1.0  0.93709  0.38185  0.13573  1.0000
  Fe  Fe49      1.0  0.95271  0.41612  0.17147  1.0000
  S   S106      1.0  0.94520  0.46072  0.17847  1.0000
  Fe  Fe50      1.0  0.92568  0.34046  0.16545  1.0000
  S   S107      1.0  0.88449  0.28448  0.16355  1.0000
  H   H763      1.0  0.77012  0.11852  0.30026  1.0000
  S   S108      1.0  0.65928  0.04710  0.27599  1.0000
  Fe  Fe51      1.0  0.62505  0.10186  0.09912  1.0000
  S   S109      1.0  0.62349  0.05334  0.09196  1.0000
  S   S110      1.0  0.57637  0.10324  0.09971  1.0000
  Fe  Fe52      1.0  0.70262  0.14172  0.09800  1.0000
  S   S111      1.0  0.70542  0.09471  0.08934  1.0000
  S   S112      1.0  0.74548  0.19700  0.10054  1.0000
  Fe  Fe53      1.0  0.66241  0.08038  0.06028  1.0000
  S   S113      1.0  0.64236  0.05081  0.02117  1.0000
  Fe  Fe54      1.0  0.66559  0.07155  0.12125  1.0000
  C   C441      1.0  0.85569  0.23614  0.07063  1.0000
  S   S114      1.0  0.66240  0.12884  0.06668  1.0000
  S   S115      1.0  0.66453  0.11872  0.13100  1.0000
  H   H764      1.0  0.91118  0.23405  0.04247  1.0000
  H   H765      1.0  0.84722  0.23402  0.09154  1.0000
  C   C442      1.0  0.53814  0.06544  0.10485  1.0000
  C   C443      1.0  0.53707  0.03879  0.11908  1.0000
  H   H766      1.0  0.88004  0.46398  0.11212  1.0000
  S   S116      1.0  0.50152  0.46347  0.25967  1.0000
  H   H767      1.0  0.60689  0.11029  0.28435  1.0000
  C   C444      1.0  0.65626  0.04082  0.24132  1.0000
  H   H768      1.0  0.94185  0.42407  0.99028  1.0000
  H   H769      1.0  0.89186  0.41389  0.22428  1.0000
  C   C445      1.0  0.65743  0.03541  0.18556  1.0000
  C   C446      1.0  0.65886  0.06377  0.19705  1.0000
  C   C447      1.0  0.65892  0.06672  0.22482  1.0000
  H   H770      1.0  0.66061  0.08365  0.18452  1.0000
  H   H771      1.0  0.66093  0.08912  0.23362  1.0000
  H   H772      1.0  0.77832  0.17604  0.04349  1.0000
  Fe  Fe55      1.0  0.99002  0.39122  0.13717  1.0000
  H   H773      1.0  0.95134  0.45003  0.23633  1.0000
  H   H774      1.0  0.89654  0.28329  0.10629  1.0000
  C   C448      1.0  0.84522  0.26069  0.14668  1.0000
  C   C449      1.0  0.83009  0.22539  0.14582  1.0000
  C   C450      1.0  0.79932  0.20538  0.13232  1.0000
  C   C451      1.0  0.78315  0.22045  0.11948  1.0000
  C   C452      1.0  0.79833  0.25575  0.12036  1.0000
  C   C453      1.0  0.82899  0.27573  0.13396  1.0000
  H   H775      1.0  0.84268  0.21352  0.15519  1.0000
  H   H776      1.0  0.78841  0.17837  0.13145  1.0000
  H   H777      1.0  0.78622  0.26778  0.11041  1.0000
  H   H778      1.0  0.84012  0.30277  0.13447  1.0000
  H   H779      1.0  0.80811  0.23360  0.06001  1.0000
  C   C454      1.0  0.51177  0.07872  0.17229  1.0000
  H   H780      1.0  0.50113  0.09875  0.20665  1.0000
  H   H781      1.0  0.96286  0.35046  0.02526  1.0000
  C   C455      1.0  0.86736  0.29383  0.06547  1.0000
  C   C456      1.0  0.56242  0.00608  0.17944  1.0000
  H   H782      1.0  0.90618  0.34167  0.08270  1.0000
  H   H783      1.0  0.92583  0.29730  0.03892  1.0000
  H   H784      1.0  0.86511  0.21821  0.06919  1.0000
  H   H785      1.0  0.56018  0.04085  0.12640  1.0000
  C   C457      1.0  0.91147  0.42743  0.26462  1.0000
  H   H786      1.0  0.93524  0.27266  0.13387  1.0000
  H   H787      1.0  0.91009  0.33856  0.04733  1.0000
  H   H788      1.0  0.74501  0.13782  0.29340  1.0000
  C   C458      1.0  0.57257  0.04613  0.26025  1.0000
  C   C459      1.0  0.88710  0.40232  0.24434  1.0000
  C   C460      1.0  0.94845  0.43982  0.25668  1.0000
  S   S117      1.0  0.97870  0.34857  0.16497  1.0000
  H   H789      1.0  0.53101  0.07163  0.26183  1.0000
  H   H790      1.0  0.55873  0.10695  0.19447  1.0000
  S   S118      1.0  0.66162  0.03252  0.15093  1.0000
  C   C461      1.0  0.65399  0.00917  0.20204  1.0000
  C   C462      1.0  0.50802  0.06250  0.09541  1.0000
  C   C463      1.0  0.55289  0.00962  0.04519  1.0000
  H   H791      1.0  0.91340  0.45413  0.11393  1.0000
  H   H792      1.0  0.49850  0.47691  0.20141  1.0000
  H   H793      1.0  0.96914  0.30326  0.11339  1.0000
  H   H794      1.0  0.90540  0.41456  0.28412  1.0000
  C   C464      1.0  0.50987  0.01640  0.26279  1.0000
  H   H795      1.0  0.97198  0.36746  0.26827  1.0000
  H   H796      1.0  0.56169  0.08633  0.16505  1.0000
  H   H797      1.0  0.55537  0.05857  0.29719  1.0000
  H   H798      1.0  0.52353  0.01344  0.01183  1.0000
  H   H799      1.0  0.83019  0.22989  0.03201  1.0000
  C   C465      1.0  0.97015  0.44780  0.30185  1.0000
  H   H800      1.0  0.98142  0.48110  0.00705  1.0000
  C   C466      1.0  0.55006  0.10037  0.17363  1.0000
  C   C467      1.0  0.89201  0.33229  0.06384  1.0000
  H   H801      1.0  0.94365  0.26691  0.07405  1.0000
  H   H802      1.0  0.88979  0.37960  0.24358  1.0000
  H   H803      1.0  0.96579  0.42180  0.29927  1.0000
  C   C468      1.0  0.92726  0.26332  0.09131  1.0000
  H   H804      1.0  0.94716  0.44484  0.31172  1.0000
  H   H805      1.0  0.72019  0.19477  0.16573  1.0000
  C   C469      1.0  0.87316  0.35150  0.05951  1.0000
  H   H806      1.0  0.85499  0.34620  0.07587  1.0000
  H   H807      1.0  0.89138  0.37894  0.05919  1.0000
  H   H808      1.0  0.85946  0.34434  0.04030  1.0000
  C   C470      1.0  0.57671  0.05605  0.28992  1.0000
  H   H809      1.0  0.55880  0.12375  0.16185  1.0000
  H   H810      1.0  0.95155  0.41733  0.25452  1.0000
  H   H811      1.0  0.86083  0.39442  0.25004  1.0000
  C   C471      1.0  0.90867  0.28326  0.08718  1.0000
  H   H812      1.0  0.97031  0.46941  0.09860  1.0000
  H   H813      1.0  0.58144  0.00083  0.17053  1.0000
  H   H814      1.0  0.50718  0.12314  0.17799  1.0000
  H   H815      1.0  0.96372  0.26191  0.11802  1.0000
  H   H816      1.0  0.90340  0.47093  0.14249  1.0000
  C   C472      1.0  0.90532  0.47205  0.12055  1.0000
  H   H817      1.0  0.90953  0.23616  0.09441  1.0000
  H   H818      1.0  0.92494  0.23223  0.99556  1.0000
  H   H819      1.0  0.84934  0.28739  0.04871  1.0000
  H   H820      1.0  0.57855  0.03684  0.30198  1.0000
  N   N26       1.0  0.54007  0.01494  0.25278  1.0000
  H   H821      1.0  0.57629  0.06811  0.24829  1.0000
  C   C473      1.0  0.55489  0.06283  0.02845  1.0000
  H   H822      1.0  0.98684  0.44415  0.08557  1.0000
  H   H823      1.0  0.95072  0.27401  0.00866  1.0000
  H   H824      1.0  0.71326  0.20173  0.19996  1.0000
  H   H825      1.0  0.87196  0.22179  0.20601  1.0000
  C   C474      1.0  0.95021  0.27617  0.11564  1.0000
  H   H826      1.0  0.67942  0.16962  0.18061  1.0000
  H   H827      1.0  0.85223  0.28915  0.08378  1.0000
  N   N27       1.0  0.76709  0.15129  0.21093  1.0000
  C   C475      1.0  0.80507  0.17061  0.21017  1.0000
  C   C476      1.0  0.75467  0.12001  0.19418  1.0000
  C   C477      1.0  0.75492  0.17311  0.19817  1.0000
  C   C478      1.0  0.75298  0.14245  0.23875  1.0000
  C   C479      1.0  0.77411  0.13624  0.25974  1.0000
  C   C480      1.0  0.82204  0.20704  0.22120  1.0000
  C   C481      1.0  0.71657  0.15647  0.19332  1.0000
  C   C482      1.0  0.76478  0.09408  0.20330  1.0000
  C   C483      1.0  0.75464  0.06624  0.18270  1.0000
  C   C484      1.0  0.75402  0.12131  0.28517  1.0000
  C   C485      1.0  0.85983  0.22164  0.22509  1.0000
  C   C486      1.0  0.70692  0.18236  0.18440  1.0000
  H   H828      1.0  0.81394  0.17251  0.18936  1.0000
  H   H829      1.0  0.81592  0.15710  0.22080  1.0000
  H   H830      1.0  0.72680  0.10558  0.19363  1.0000
  H   H831      1.0  0.76288  0.12710  0.17321  1.0000
  H   H832      1.0  0.76740  0.18265  0.17870  1.0000
  H   H833      1.0  0.76199  0.19577  0.21053  1.0000
  H   H834      1.0  0.74914  0.16270  0.24719  1.0000
  H   H835      1.0  0.72736  0.11979  0.23829  1.0000
  H   H836      1.0  0.79689  0.16029  0.26510  1.0000
  H   H837      1.0  0.78250  0.11890  0.25258  1.0000
  H   H838      1.0  0.81887  0.22373  0.20692  1.0000
  H   H839      1.0  0.81076  0.20800  0.24037  1.0000
  H   H840      1.0  0.70220  0.14396  0.21151  1.0000
  H   H841      1.0  0.70888  0.13768  0.17718  1.0000
  H   H842      1.0  0.79223  0.10569  0.20640  1.0000
  H   H843      1.0  0.75135  0.08179  0.22192  1.0000
  H   H844      1.0  0.76167  0.04770  0.18985  1.0000
  H   H845      1.0  0.72704  0.05280  0.17940  1.0000
  H   H846      1.0  0.76756  0.07677  0.16354  1.0000
  H   H847      1.0  0.58010  0.07803  0.03774  1.0000
  H   H848      1.0  0.73207  0.09602  0.28121  1.0000
  H   H849      1.0  0.91537  0.26477  0.98734  1.0000
  H   H850      1.0  0.87129  0.24801  0.23219  1.0000
  H   H851      1.0  0.86482  0.20685  0.24002  1.0000
  Fe  Fe56      1.0  0.98961  0.38459  0.19899  1.0000
  H   H852      1.0  0.70716  0.08275  0.99227  1.0000
  C   C487      1.0  0.80195  0.18455  0.05488  1.0000
  H   H853      1.0  0.96950  0.36557  0.07340  1.0000
  H   H854      1.0  0.50472  0.07308  0.15118  1.0000
  C   C488      1.0  0.92457  0.25467  0.00331  1.0000
  H   H855      1.0  0.50773  0.01329  0.28476  1.0000
  C   C489      1.0  0.60852  0.08983  0.29476  1.0000
  C   C490      1.0  0.90162  0.24488  0.02755  1.0000
  H   H856      1.0  0.58023  0.02243  0.04953  1.0000
  C   C491      1.0  0.89976  0.27557  0.03837  1.0000
  N   N28       1.0  0.88311  0.27171  0.06500  1.0000
  C   C492      1.0  0.99084  0.37700  0.06024  1.0000
  H   H857      1.0  0.50867  0.08295  0.08425  1.0000
  H   H858      1.0  0.50587  0.04967  0.23345  1.0000
  H   H859      1.0  0.54205  0.03624  0.21414  1.0000
  H   H860      1.0  0.90659  0.44876  0.26547  1.0000
  H   H861      1.0  0.88681  0.28197  0.02262  1.0000
  H   H862      1.0  0.92896  0.30958  0.08394  1.0000
  C   C493      1.0  0.65303  0.01168  0.22983  1.0000
  C   C494      1.0  0.82370  0.22279  0.05310  1.0000
  N   N29       1.0  0.97514  0.46484  0.27519  1.0000
  C   C495      1.0  0.99196  0.47034  0.08812  1.0000
  H   H863      1.0  0.81543  0.17221  0.04652  1.0000
  C   C496      1.0  0.65462  0.04612  0.98863  1.0000
  C   C497      1.0  0.97195  0.49572  0.27926  1.0000
  H   H864      1.0  0.79512  0.17653  0.07582  1.0000
  H   H865      1.0  0.63111  0.08925  0.28779  1.0000
  H   H866      1.0  0.58998  0.02303  0.21559  1.0000
  C   C498      1.0  0.53817  0.01231  0.22293  1.0000
  H   H867      1.0  0.50477  0.05502  0.18301  1.0000
  C   C499      1.0  0.56402  0.00459  0.20959  1.0000
  H   H868      1.0  0.97357  0.47234  0.04952  1.0000
  H   H869      1.0  0.55369  0.07622  0.01051  1.0000
  H   H870      1.0  0.54172  0.01508  0.06263  1.0000
  H   H871      1.0  0.56813  0.03151  0.17295  1.0000
  H   H872      1.0  0.98943  0.43164  0.01895  1.0000
  C   C500      1.0  0.50828  0.04833  0.25523  1.0000
  Fe  Fe57      1.0  0.63760  0.00630  0.30773  1.0000
  C   C501      1.0  0.99367  0.37845  0.30774  1.0000
  H   H873      1.0  0.53542  0.06060  0.04265  1.0000
  C   C502      1.0  0.50601  0.00971  0.12426  1.0000
  H   H874      1.0  0.51733  0.49227  0.02384  1.0000
  C   C503      1.0  0.54888  0.02805  0.02085  1.0000
  H   H875      1.0  0.56783  0.03183  0.00553  1.0000
  H   H876      1.0  0.63053  0.11451  0.00236  1.0000
  H   H877      1.0  0.94796  0.48898  0.28952  1.0000
  C   C504      1.0  0.65080  0.12907  0.98776  1.0000
  H   H878      1.0  0.66628  0.15517  0.99525  1.0000
  H   H879      1.0  0.66715  0.11771  0.98622  1.0000
  C   C505      1.0  0.49458  0.09673  0.18527  1.0000
  C   C506      1.0  0.96389  0.42363  0.98171  1.0000
  S   S119      1.0  0.61959  0.02422  0.34201  1.0000
  H   H880      1.0  0.62071  0.11171  0.38638  1.0000
  C   C507      1.0  0.77785  0.21498  0.63443  1.0000
  H   H881      1.0  0.65973  0.09166  0.37112  1.0000
  H   H882      1.0  0.51505  0.05393  0.43193  1.0000
  C   C508      1.0  0.66242  0.03066  0.43807  1.0000
  C   C509      1.0  0.68142  0.05892  0.45432  1.0000
  C   C510      1.0  0.67488  0.05796  0.48175  1.0000
  H   H883      1.0  0.63039  0.08130  0.50374  1.0000
  H   H884      1.0  0.70143  0.08170  0.44565  1.0000
  H   H885      1.0  0.81449  0.10390  0.63749  1.0000
  C   C511      1.0  0.99181  0.35412  0.53822  1.0000
  C   C512      1.0  0.54020  0.45028  0.45479  1.0000
  H   H886      1.0  0.52961  0.42439  0.46259  1.0000
  H   H887      1.0  0.98623  0.45847  0.58842  1.0000
  H   H888      1.0  0.91715  0.36528  0.57852  1.0000
  H   H889      1.0  0.97838  0.42249  0.34899  1.0000
  H   H890      1.0  0.80894  0.10041  0.58842  1.0000
  Fe  Fe58      1.0  0.63070  0.09119  0.60218  1.0000
  S   S120      1.0  0.62659  0.04076  0.59842  1.0000
  S   S121      1.0  0.58436  0.09594  0.61031  1.0000
  Fe  Fe59      1.0  0.70739  0.12862  0.59311  1.0000
  S   S122      1.0  0.70674  0.07945  0.58771  1.0000
  S   S123      1.0  0.75966  0.17588  0.58826  1.0000
  Fe  Fe60      1.0  0.66020  0.06247  0.56275  1.0000
  S   S124      1.0  0.63967  0.02555  0.52774  1.0000
  Fe  Fe61      1.0  0.67314  0.06249  0.62350  1.0000
  S   S125      1.0  0.66262  0.11258  0.56555  1.0000
  S   S126      1.0  0.67538  0.11194  0.62989  1.0000
  H   H891      1.0  0.51201  0.47090  0.47459  1.0000
  C   C513      1.0  0.51632  0.06376  0.61970  1.0000
  C   C514      1.0  0.54399  0.05984  0.61356  1.0000
  C   C515      1.0  0.91683  0.36424  0.55651  1.0000
  C   C516      1.0  0.52751  0.10517  0.42986  1.0000
  C   C517      1.0  0.95908  0.48481  0.48902  1.0000
  H   H892      1.0  0.96571  0.40795  0.55448  1.0000
  C   C518      1.0  0.64937  0.02855  0.49332  1.0000
  H   H893      1.0  0.92214  0.41976  0.45322  1.0000
  H   H894      1.0  0.68978  0.07985  0.49396  1.0000
  H   H895      1.0  0.58487  0.00228  0.41294  1.0000
  C   C519      1.0  0.51390  0.46212  0.45451  1.0000
  C   C520      1.0  0.78809  0.20845  0.61013  1.0000
  C   C521      1.0  0.82212  0.22837  0.60280  1.0000
  H   H896      1.0  0.54798  0.13069  0.43543  1.0000
  H   H897      1.0  0.64394  0.12540  0.50365  1.0000
  H   H898      1.0  0.83038  0.22378  0.58399  1.0000
  H   H899      1.0  0.53331  0.01850  0.43806  1.0000
  H   H900      1.0  0.61139  0.09539  0.31634  1.0000
  H   H901      1.0  0.92470  0.34600  0.55032  1.0000
  S   S127      1.0  0.93934  0.38206  0.64057  1.0000
  H   H902      1.0  0.76882  0.08129  0.60481  1.0000
  H   H903      1.0  0.95315  0.38147  0.50979  1.0000
  H   H904      1.0  0.91755  0.38023  0.46424  1.0000
  H   H905      1.0  0.93948  0.45443  0.52350  1.0000
  H   H906      1.0  0.50820  0.48867  0.35677  1.0000
  H   H907      1.0  0.61306  0.11918  0.46209  1.0000
  C   C522      1.0  0.96755  0.42450  0.47223  1.0000
  H   H908      1.0  0.55987  0.02385  0.60587  1.0000
  C   C523      1.0  0.61947  0.09960  0.46717  1.0000
  C   C524      1.0  0.57067  0.47339  0.47176  1.0000
  H   H909      1.0  0.91723  0.43406  0.49454  1.0000
  C   C525      1.0  0.94314  0.44996  0.50248  1.0000
  H   H910      1.0  0.91624  0.38473  0.50721  1.0000
  H   H911      1.0  0.51951  0.03408  0.51943  1.0000
  C   C526      1.0  0.63673  0.00137  0.44960  1.0000
  H   H912      1.0  0.54351  0.02326  0.40371  1.0000
  H   H913      1.0  0.51986  0.08877  0.62174  1.0000
  H   H914      1.0  0.97091  0.48312  0.40493  1.0000
  H   H915      1.0  0.58783  0.11110  0.42438  1.0000
  C   C527      1.0  0.53623  0.06338  0.35057  1.0000
  C   C528      1.0  0.94264  0.39816  0.51452  1.0000
  H   H916      1.0  0.64419  0.10622  0.45840  1.0000
  C   C529      1.0  0.56418  0.99789  0.42666  1.0000
  H   H917      1.0  0.52505  0.48525  0.44219  1.0000
  C   C530      1.0  0.53900  0.02736  0.61068  1.0000
  H   H918      1.0  0.54919  0.45063  0.43429  1.0000
  H   H919      1.0  0.95487  0.38203  0.42828  1.0000
  N   N30       1.0  0.58217  0.06133  0.42872  1.0000
  H   H920      1.0  0.60204  0.05330  0.39206  1.0000
  S   S128      1.0  0.49713  0.09315  0.35107  1.0000
  C   C531      1.0  0.94068  0.39919  0.54530  1.0000
  C   C532      1.0  0.61129  0.06823  0.41070  1.0000
  H   H921      1.0  0.62743  0.05956  0.42024  1.0000
  C   C533      1.0  0.56856  0.08430  0.42177  1.0000
  N   N31       1.0  0.96274  0.43170  0.50064  1.0000
  H   H922      1.0  0.59993  0.09504  0.50737  1.0000
  H   H923      1.0  0.49656  0.41229  0.41684  1.0000
  C   C534      1.0  0.94327  0.39824  0.42743  1.0000
  H   H924      1.0  0.96655  0.48382  0.46838  1.0000
  C   C535      1.0  0.50349  0.05826  0.34863  1.0000
  S   S129      1.0  0.67149  0.03359  0.40353  1.0000
  C   C536      1.0  0.79205  0.10555  0.60079  1.0000
  C   C537      1.0  0.93512  0.40498  0.45534  1.0000
  H   H925      1.0  0.52260  0.10457  0.40821  1.0000
  H   H926      1.0  0.91979  0.38500  0.41556  1.0000
  H   H927      1.0  0.97594  0.34486  0.57925  1.0000
  H   H928      1.0  0.49583  0.04315  0.56409  1.0000
  C   C538      1.0  0.59245  0.06433  0.45749  1.0000
  C   C539      1.0  0.55434  0.02559  0.42394  1.0000
  C   C540      1.0  0.66616  0.10934  0.38801  1.0000
  H   H929      1.0  0.55720  0.08861  0.35309  1.0000
  H   H930      1.0  0.89068  0.35513  0.54961  1.0000
  H   H931      1.0  0.56204  0.08170  0.40034  1.0000
  H   H932      1.0  0.98119  0.41007  0.47187  1.0000
  H   H933      1.0  0.56319  0.47160  0.49290  1.0000
  H   H934      1.0  0.68161  0.10464  0.40251  1.0000
  C   C541      1.0  0.78791  0.13242  0.64362  1.0000
  H   H935      1.0  0.98383  0.44793  0.46109  1.0000
  C   C542      1.0  0.63432  0.10500  0.40124  1.0000
  H   H936      1.0  0.54118  0.07992  0.45887  1.0000
  H   H937      1.0  0.57011  0.05498  0.47058  1.0000
  H   H938      1.0  0.68143  0.13541  0.38043  1.0000
  H   H939      1.0  0.87172  0.26890  0.61370  1.0000
  C   C543      1.0  0.84567  0.25408  0.61960  1.0000
  C   C544      1.0  0.53696  0.07862  0.43715  1.0000
  C   C545      1.0  0.54204  0.03607  0.34913  1.0000
  H   H940      1.0  0.60312  0.04777  0.46181  1.0000
  H   H941      1.0  0.50577  0.47759  0.61482  1.0000
  H   H942      1.0  0.96961  0.36426  0.31753  1.0000
  C   C546      1.0  0.51521  0.00348  0.34501  1.0000
  C   C547      1.0  0.62354  0.10023  0.49730  1.0000
  H   H943      1.0  0.64217  0.12329  0.41770  1.0000
  H   H944      1.0  0.93139  0.41604  0.55196  1.0000
  H   H945      1.0  0.96071  0.42217  0.41724  1.0000
  H   H946      1.0  0.50427  0.09999  0.44054  1.0000
  H   H947      1.0  0.56730  0.04036  0.35083  1.0000
  H   H948      1.0  0.91337  0.48271  0.47437  1.0000
  H   H949      1.0  0.97120  0.33043  0.53129  1.0000
  H   H950      1.0  0.78561  0.12237  0.58946  1.0000
  H   H951      1.0  0.83392  0.14452  0.62147  1.0000
  C   C548      1.0  0.63038  0.00032  0.47705  1.0000
  H   H952      1.0  0.59005  0.46576  0.47023  1.0000
  H   H953      1.0  0.52748  0.48820  0.53509  1.0000
  H   H954      1.0  0.75172  0.20056  0.64015  1.0000
  H   H955      1.0  0.99415  0.46458  0.53214  1.0000
  H   H956      1.0  0.51241  0.00682  0.54633  1.0000
  C   C549      1.0  0.50459  0.00716  0.52542  1.0000
  Fe  Fe62      1.0  0.98764  0.38055  0.64089  1.0000
  H   H957      1.0  0.57082  0.02649  0.51352  1.0000
  C   C550      1.0  0.50686  0.99918  0.61413  1.0000
  H   H958      1.0  0.96967  0.45547  0.35813  1.0000
  H   H959      1.0  0.49987  0.44961  0.40436  1.0000
  H   H960      1.0  0.78566  0.15184  0.63204  1.0000
  C   C551      1.0  0.80957  0.12208  0.62678  1.0000
  C   C552      1.0  0.55416  0.99887  0.51529  1.0000
  Fe  Fe63      1.0  0.64049  0.00012  0.36885  1.0000
  C   C553      1.0  0.98886  0.45013  0.34974  1.0000
  H   H961      1.0  0.76200  0.11054  0.64413  1.0000
  C   C554      1.0  0.83546  0.26034  0.64405  1.0000
  H   H962      1.0  0.57212  0.99676  0.44721  1.0000
  H   H963      1.0  0.75728  0.07434  0.67349  1.0000
  S   S130      1.0  0.93442  0.36510  0.70443  1.0000
  Fe  Fe64      1.0  0.98282  0.36468  0.70086  1.0000
  H   H964      1.0  0.72964  0.11192  0.67868  1.0000
  Fe  Fe65      1.0  0.95892  0.41109  0.67854  1.0000
  S   S131      1.0  0.95709  0.45812  0.68883  1.0000
  Fe  Fe66      1.0  0.91871  0.33529  0.66610  1.0000
  H   H965      1.0  0.53164  0.00292  0.80068  1.0000
  S   S132      1.0  0.96630  0.33199  0.66412  1.0000
  H   H966      1.0  0.87478  0.34328  0.82326  1.0000
  H   H967      1.0  0.62183  0.14302  0.96296  1.0000
  C   C555      1.0  0.76970  0.08625  0.69246  1.0000
  H   H968      1.0  0.98366  0.33362  0.85460  1.0000
  H   H969      1.0  0.56131  0.99857  0.66009  1.0000
  S   S133      1.0  0.64775  0.04539  0.77629  1.0000
  H   H970      1.0  0.85371  0.16704  0.66092  1.0000
  C   C556      1.0  0.65838  0.04181  0.74327  1.0000
  H   H971      1.0  0.98083  0.48977  0.74451  1.0000
  H   H972      1.0  0.55870  0.12322  0.71746  1.0000
  C   C557      1.0  0.67272  0.03678  0.68956  1.0000
  C   C558      1.0  0.66421  0.06073  0.69732  1.0000
  C   C559      1.0  0.65714  0.06328  0.72403  1.0000
  H   H973      1.0  0.66301  0.07725  0.68267  1.0000
  H   H974      1.0  0.65041  0.08185  0.72979  1.0000
  C   C560      1.0  0.67058  0.03627  0.93611  1.0000
  C   C561      1.0  0.63758  0.01793  0.94536  1.0000
  H   H975      1.0  0.75132  0.03739  0.71064  1.0000
  H   H976      1.0  0.56502  0.13140  0.65676  1.0000
  C   C562      1.0  0.62975  0.02284  0.97137  1.0000
  H   H977      1.0  0.96204  0.48682  0.91588  1.0000
  C   C563      1.0  0.54129  0.07090  0.84838  1.0000
  C   C564      1.0  0.54603  0.04285  0.84882  1.0000
  C   C565      1.0  0.74158  0.13954  0.67728  1.0000
  C   C566      1.0  0.83614  0.17542  0.66796  1.0000
  H   H978      1.0  0.56217  0.09551  0.84365  1.0000
  H   H979      1.0  0.58291  0.11204  0.67733  1.0000
  H   H980      1.0  0.73357  0.17868  0.69429  1.0000
  C   C567      1.0  0.51591  0.08806  0.69255  1.0000
  N   N32       1.0  0.59962  0.08915  0.92225  1.0000
  C   C568      1.0  0.59571  0.11824  0.91275  1.0000
  C   C569      1.0  0.62268  0.08481  0.90336  1.0000
  C   C570      1.0  0.56540  0.05778  0.92070  1.0000
  C   C571      1.0  0.61237  0.09314  0.95049  1.0000
  C   C572      1.0  0.63598  0.12943  0.96065  1.0000
  C   C573      1.0  0.56691  0.12142  0.92584  1.0000
  C   C574      1.0  0.56455  0.02403  0.92540  1.0000
  C   C575      1.0  0.65925  0.11452  0.90153  1.0000
  C   C576      1.0  0.67804  0.10986  0.87846  1.0000
  H   H981      1.0  0.52454  0.06938  0.69414  1.0000
  C   C577      1.0  0.56951  0.15516  0.91946  1.0000
  H   H982      1.0  0.53804  0.45771  0.80676  1.0000
  H   H983      1.0  0.59068  0.11610  0.89097  1.0000
  H   H984      1.0  0.61926  0.14259  0.91523  1.0000
  H   H985      1.0  0.62531  0.06280  0.90900  1.0000
  H   H986      1.0  0.61153  0.07928  0.88304  1.0000
  H   H987      1.0  0.55357  0.05604  0.90109  1.0000
  H   H988      1.0  0.54810  0.05893  0.93554  1.0000
  H   H989      1.0  0.51960  0.48081  0.66551  1.0000
  H   H990      1.0  0.62570  0.07871  0.95333  1.0000
  H   H991      1.0  0.73853  0.14576  0.65659  1.0000
  H   H992      1.0  0.65715  0.14412  0.94696  1.0000
  H   H993      1.0  0.54241  0.10157  0.91788  1.0000
  H   H994      1.0  0.59325  0.17625  0.92749  1.0000
  H   H995      1.0  0.57993  0.02574  0.94281  1.0000
  H   H996      1.0  0.57421  0.01720  0.90766  1.0000
  H   H997      1.0  0.66033  0.13888  0.89834  1.0000
  H   H998      1.0  0.67309  0.11579  0.91999  1.0000
  H   H999      1.0  0.67871  0.08619  0.88079  1.0000
  H   H1000     1.0  0.66579  0.10921  0.85928  1.0000
  H   H1001     1.0  0.70436  0.13106  0.87798  1.0000
  H   H1002     1.0  0.68146  0.99722  0.70300  1.0000
  H   H1003     1.0  0.50213  0.08145  0.79348  1.0000
  H   H1004     1.0  0.88283  0.35132  0.78828  1.0000
  S   S134      1.0  0.62231  0.02771  0.84760  1.0000
  H   H1005     1.0  0.51616  0.09994  0.74570  1.0000
  H   H1006     1.0  0.54802  0.15620  0.92851  1.0000
  C   C578      1.0  0.57805  0.01525  0.67596  1.0000
  H   H1007     1.0  0.61815  0.99963  0.93251  1.0000
  H   H1008     1.0  0.50845  0.08758  0.67142  1.0000
  C   C579      1.0  0.72241  0.15094  0.69527  1.0000
  H   H1009     1.0  0.60412  0.00860  0.97802  1.0000
  H   H1010     1.0  0.72286  0.14325  0.71609  1.0000
  C   C580      1.0  0.50968  0.06727  0.85400  1.0000
  H   H1011     1.0  0.69580  0.13913  0.68872  1.0000
  C   C581      1.0  0.97003  0.27817  0.81191  1.0000
  C   C582      1.0  0.68767  0.06474  0.97934  1.0000
  H   H1012     1.0  0.83822  0.20892  0.70040  1.0000
  H   H1013     1.0  0.98715  0.31216  0.90873  1.0000
  H   H1014     1.0  0.85423  0.18161  0.70942  1.0000
  H   H1015     1.0  0.75225  0.09067  0.70472  1.0000
  C   C583      1.0  0.88831  0.22531  0.68727  1.0000
  Fe  Fe67      1.0  0.64495  0.00147  0.86973  1.0000
  C   C584      1.0  0.66749  0.01817  0.73564  1.0000
  H   H1016     1.0  0.91098  0.32858  0.84943  1.0000
  H   H1017     1.0  0.54158  0.14349  0.69735  1.0000
  C   C585      1.0  0.77575  0.06080  0.70742  1.0000
  H   H1018     1.0  0.79228  0.05439  0.69576  1.0000
  C   C586      1.0  0.95417  0.30110  0.81131  1.0000
  C   C587      1.0  0.67457  0.01564  0.70883  1.0000
  C   C588      1.0  0.85259  0.19698  0.69317  1.0000
  H   H1019     1.0  0.79304  0.24538  0.66995  1.0000
  H   H1020     1.0  0.99262  0.28930  0.82492  1.0000
  N   N33       1.0  0.93566  0.30125  0.83604  1.0000
  H   H1021     1.0  0.81226  0.12992  0.70828  1.0000
  H   H1022     1.0  0.78739  0.07091  0.72707  1.0000
  C   C589      1.0  0.54755  0.12289  0.69784  1.0000
  H   H1023     1.0  0.85839  0.21650  0.87358  1.0000
  C   C590      1.0  0.90516  0.26669  0.83948  1.0000
  H   H1024     1.0  0.82587  0.22726  0.86976  1.0000
  C   C591      1.0  0.54740  0.46186  0.82752  1.0000
  H   H1025     1.0  0.82208  0.11383  0.68020  1.0000
  H   H1026     1.0  0.51910  0.99939  0.94941  1.0000
  H   H1027     1.0  0.96628  0.33055  0.92653  1.0000
  H   H1028     1.0  0.52666  0.44366  0.84041  1.0000
  H   H1029     1.0  0.90469  0.21493  0.68165  1.0000
  C   C592      1.0  0.94724  0.31427  0.88654  1.0000
  C   C593      1.0  0.97588  0.32856  0.90680  1.0000
  H   H1030     1.0  0.72125  0.07399  0.94633  1.0000
  C   C594      1.0  0.57460  0.13093  0.67692  1.0000
  H   H1031     1.0  0.98381  0.40859  0.80912  1.0000
  S   S135      1.0  0.68160  0.03018  0.90359  1.0000
  N   N34       1.0  0.80101  0.14568  0.67110  1.0000
  H   H1032     1.0  0.89911  0.24136  0.70512  1.0000
  C   C595      1.0  0.80303  0.11971  0.68812  1.0000
  H   H1033     1.0  0.96859  0.43426  0.96133  1.0000
  H   H1034     1.0  0.86213  0.27523  0.84138  1.0000
  H   H1035     1.0  0.89542  0.25447  0.81985  1.0000
  H   H1036     1.0  0.96117  0.44804  0.75815  1.0000
  H   H1037     1.0  0.95187  0.25266  0.81929  1.0000
  S   S136      1.0  0.86404  0.29113  0.66696  1.0000
  H   H1038     1.0  0.93723  0.33176  0.88587  1.0000
  H   H1039     1.0  0.92761  0.28944  0.89408  1.0000
  S   S137      1.0  0.51325  0.47706  0.75903  1.0000
  H   H1040     1.0  0.91468  0.37767  0.81190  1.0000
  C   C596      1.0  0.87435  0.26456  0.85400  1.0000
  H   H1041     1.0  0.94988  0.35373  0.83424  1.0000
  C   C597      1.0  0.89441  0.35152  0.80770  1.0000
  H   H1042     1.0  0.97476  0.32695  0.80679  1.0000
  H   H1043     1.0  0.91236  0.24988  0.85002  1.0000
  H   H1044     1.0  0.57043  0.04599  0.84441  1.0000
  H   H1045     1.0  0.92701  0.33650  0.78986  1.0000
  H   H1046     1.0  0.88815  0.30216  0.80197  1.0000
  H   H1047     1.0  0.93713  0.29316  0.79378  1.0000
  C   C598      1.0  0.84795  0.22810  0.86000  1.0000
  H   H1048     1.0  0.56684  0.11850  0.94769  1.0000
  C   C599      1.0  0.69557  0.05974  0.95324  1.0000
  H   H1049     1.0  0.56853  0.15820  0.89765  1.0000
  C   C600      1.0  0.95972  0.31001  0.85909  1.0000
  H   H1050     1.0  0.60657  0.06954  0.68270  1.0000
  S   S138      1.0  0.68121  0.03274  0.65602  1.0000
  H   H1051     1.0  0.88816  0.24144  0.67088  1.0000
  H   H1052     1.0  0.88137  0.27856  0.87292  1.0000
  H   H1053     1.0  0.78849  0.18454  0.67903  1.0000
  H   H1054     1.0  0.83928  0.21316  0.84141  1.0000
  C   C601      1.0  0.58982  0.05136  0.66752  1.0000
  H   H1055     1.0  0.56787  0.05491  0.66439  1.0000
  H   H1056     1.0  0.97908  0.38894  0.76262  1.0000
  C   C602      1.0  0.77951  0.15789  0.68436  1.0000
  H   H1057     1.0  0.57823  0.02687  0.71711  1.0000
  C   C603      1.0  0.55982  0.00784  0.70304  1.0000
  H   H1058     1.0  0.96678  0.29034  0.86203  1.0000
  H   H1059     1.0  0.56859  0.45677  0.82892  1.0000
  H   H1060     1.0  0.78204  0.15781  0.70633  1.0000
  H   H1061     1.0  0.59110  0.08180  0.96483  1.0000
  C   C604      1.0  0.92678  0.32862  0.83287  1.0000
  C   C605      1.0  0.80137  0.24066  0.65123  1.0000
  C   C606      1.0  0.90883  0.32792  0.80656  1.0000
  H   H1062     1.0  0.59681  0.15602  0.68094  1.0000
  C   C607      1.0  0.51353  0.49501  0.68015  1.0000
  H   H1063     1.0  0.83620  0.19283  0.65243  1.0000
  H   H1064     1.0  0.95799  0.39708  0.98039  1.0000
  C   C608      1.0  0.98457  0.47295  0.75817  1.0000
  H   H1065     1.0  0.60038  0.01203  0.67709  1.0000
  H   H1066     1.0  0.66936  0.00209  0.75039  1.0000
  S   S139      1.0  0.50492  0.10329  0.85483  1.0000
  Fe  Fe68      1.0  0.63302  0.00793  0.81026  1.0000
  H   H1067     1.0  0.51371  0.48508  0.70021  1.0000
  H   H1068     1.0  0.53917  0.01378  0.70119  1.0000
  C   C609      1.0  0.51930  0.01101  0.85542  1.0000
  C   C610      1.0  0.98153  0.27460  0.78428  1.0000
  H   H1069     1.0  0.95979  0.26240  0.77046  1.0000
  H   H1070     1.0  0.50189  0.47706  0.95571  1.0000
  H   H1071     1.0  0.55142  0.01919  0.75549  1.0000
  H   H1072     1.0  0.99364  0.25889  0.78535  1.0000
  H   H1073     1.0  0.50708  0.05864  0.73883  1.0000
  C   C611      1.0  0.49587  0.07521  0.73834  1.0000
  H   H1074     1.0  0.60395  0.05686  0.64866  1.0000
  H   H1075     1.0  0.98893  0.48337  0.77851  1.0000
  H   H1076     1.0  0.90551  0.61571  0.16739  1.0000
  Fe  Fe69      1.0  0.60876  0.73088  0.25381  1.0000
  S   S140      1.0  0.65688  0.72930  0.24925  1.0000
  S   S141      1.0  0.61365  0.78298  0.24909  1.0000
  Fe  Fe70      1.0  0.56847  0.65472  0.26381  1.0000
  S   S142      1.0  0.61422  0.64938  0.26168  1.0000
  H   H1077     1.0  0.96320  0.61888  0.07490  1.0000
  Fe  Fe71      1.0  0.63945  0.69675  0.28564  1.0000
  Fe  Fe72      1.0  0.62704  0.68207  0.22522  1.0000
  S   S143      1.0  0.64380  0.66088  0.19101  1.0000
  S   S144      1.0  0.59255  0.69985  0.29106  1.0000
  S   S145      1.0  0.57997  0.68576  0.22664  1.0000
  H   H1078     1.0  0.60110  0.56972  0.28897  1.0000
  Fe  Fe73      1.0  0.66466  0.66142  0.03208  1.0000
  S   S146      1.0  0.66670  0.61383  0.03400  1.0000
  S   S147      1.0  0.66035  0.69106  0.06661  1.0000
  Fe  Fe74      1.0  0.70527  0.63602  0.00106  1.0000
  S   S148      1.0  0.75546  0.63766  0.00918  1.0000
  Fe  Fe75      1.0  0.62788  0.59521  0.00159  1.0000
  S   S149      1.0  0.58074  0.54414  0.00471  1.0000
  S   S150      1.0  0.70494  0.68508  0.00093  1.0000
  S   S151      1.0  0.62352  0.64134  0.00174  1.0000
  C   C612      1.0  0.54122  0.54180  0.00675  1.0000
  C   C613      1.0  0.50910  0.95012  0.25793  1.0000
  H   H1079     1.0  0.50005  0.52119  0.12703  1.0000
  H   H1080     1.0  0.81782  0.76295  0.05171  1.0000
  H   H1081     1.0  0.93676  0.55290  0.07130  1.0000
  N   N35       1.0  0.78213  0.70314  0.08179  1.0000
  C   C614      1.0  0.93300  0.58949  0.15856  1.0000
  H   H1082     1.0  0.73798  0.59965  0.10251  1.0000
  H   H1083     1.0  0.56238  0.65292  0.03379  1.0000
  H   H1084     1.0  0.71865  0.64141  0.09607  1.0000
  C   C615      1.0  0.53364  0.53169  0.25269  1.0000
  C   C616      1.0  0.53756  0.56396  0.25507  1.0000
  H   H1085     1.0  0.61429  0.54039  0.05266  1.0000
  H   H1086     1.0  0.86166  0.63833  0.99302  1.0000
  H   H1087     1.0  0.55987  0.58544  0.24736  1.0000
  C   C617      1.0  0.64742  0.66927  0.15640  1.0000
  C   C618      1.0  0.64183  0.69393  0.14523  1.0000
  C   C619      1.0  0.64574  0.70011  0.11770  1.0000
  C   C620      1.0  0.65485  0.68147  0.10098  1.0000
  C   C621      1.0  0.65988  0.65640  0.11205  1.0000
  C   C622      1.0  0.65647  0.65058  0.13964  1.0000
  H   H1088     1.0  0.63497  0.70859  0.15785  1.0000
  H   H1089     1.0  0.64185  0.71961  0.10933  1.0000
  H   H1090     1.0  0.66673  0.64182  0.09941  1.0000
  H   H1091     1.0  0.66088  0.63147  0.14811  1.0000
  C   C623      1.0  0.61047  0.81042  0.27258  1.0000
  C   C624      1.0  0.62355  0.84459  0.26613  1.0000
  C   C625      1.0  0.62162  0.86718  0.28414  1.0000
  H   H1092     1.0  0.63536  0.85371  0.24705  1.0000
  H   H1093     1.0  0.63205  0.89336  0.27889  1.0000
  H   H1094     1.0  0.55349  0.92834  0.11105  1.0000
  H   H1095     1.0  0.95051  0.64289  0.16415  1.0000
  H   H1096     1.0  0.95788  0.50026  0.23816  1.0000
  H   H1097     1.0  0.95699  0.52579  0.19476  1.0000
  C   C626      1.0  0.73082  0.60455  0.08265  1.0000
  H   H1098     1.0  0.58076  0.59241  0.17936  1.0000
  H   H1099     1.0  0.61397  0.51298  0.07828  1.0000
  H   H1100     1.0  0.97363  0.68669  0.03131  1.0000
  H   H1101     1.0  0.54435  0.59523  0.18767  1.0000
  H   H1102     1.0  0.54247  0.93259  0.06276  1.0000
  H   H1103     1.0  0.65275  0.79417  0.30740  1.0000
  H   H1104     1.0  0.98965  0.61292  0.11680  1.0000
  H   H1105     1.0  0.82296  0.74222  0.00791  1.0000
  C   C627      1.0  0.84549  0.72109  0.08322  1.0000
  C   C628      1.0  0.87869  0.74530  0.09687  1.0000
  H   H1106     1.0  0.84093  0.69528  0.08666  1.0000
  H   H1107     1.0  0.89915  0.74168  0.08879  1.0000
  H   H1108     1.0  0.88533  0.77180  0.09331  1.0000
  H   H1109     1.0  0.87698  0.74047  0.11857  1.0000
  N   N36       1.0  0.55916  0.57518  0.09758  1.0000
  C   C629      1.0  0.56699  0.57589  0.12678  1.0000
  C   C630      1.0  0.58404  0.56962  0.08197  1.0000
  C   C631      1.0  0.56467  0.60949  0.09017  1.0000
  H   H1110     1.0  0.54661  0.97608  0.99935  1.0000
  H   H1111     1.0  0.50312  0.61772  0.18150  1.0000
  C   C632      1.0  0.54951  0.58918  0.14553  1.0000
  C   C633      1.0  0.56257  0.61573  0.06019  1.0000
  H   H1112     1.0  0.55954  0.92289  0.02504  1.0000
  H   H1113     1.0  0.98533  0.55316  0.08546  1.0000
  C   C634      1.0  0.92760  0.56599  0.08434  1.0000
  C   C635      1.0  0.55374  0.58235  0.17457  1.0000
  C   C636      1.0  0.61333  0.57631  0.30881  1.0000
  H   H1114     1.0  0.59456  0.59211  0.13016  1.0000
  H   H1115     1.0  0.56104  0.55078  0.13411  1.0000
  H   H1116     1.0  0.72041  0.74534  0.09450  1.0000
  H   H1117     1.0  0.60999  0.59115  0.08519  1.0000
  H   H1118     1.0  0.58967  0.62954  0.09735  1.0000
  H   H1119     1.0  0.54582  0.61423  0.10012  1.0000
  H   H1120     1.0  0.56332  0.98456  0.26012  1.0000
  C   C637      1.0  0.73705  0.74940  0.11178  1.0000
  H   H1121     1.0  0.89538  0.52320  0.12473  1.0000
  H   H1122     1.0  0.50052  0.58457  0.99114  1.0000
  H   H1123     1.0  0.56126  0.61690  0.14334  1.0000
  C   C638      1.0  0.93039  0.61816  0.17156  1.0000
  H   H1124     1.0  0.57925  0.56917  0.06030  1.0000
  H   H1125     1.0  0.58481  0.61796  0.04977  1.0000
  C   C639      1.0  0.81495  0.63830  0.99958  1.0000
  S   S152      1.0  0.58944  0.95697  0.30418  1.0000
  C   C640      1.0  0.70696  0.82234  0.30487  1.0000
  C   C641      1.0  0.59491  0.79904  0.29721  1.0000
  H   H1126     1.0  0.63846  0.55790  0.08268  1.0000
  H   H1127     1.0  0.89965  0.55019  0.08364  1.0000
  C   C642      1.0  0.51372  0.51246  0.01670  1.0000
  H   H1128     1.0  0.56140  0.51505  0.07877  1.0000
  C   C643      1.0  0.56251  0.64857  0.05545  1.0000
  H   H1129     1.0  0.78059  0.76441  0.08763  1.0000
  H   H1130     1.0  0.53982  0.64738  0.06432  1.0000
  N   N37       1.0  0.94003  0.56853  0.11246  1.0000
  C   C644      1.0  0.92871  0.58926  0.12801  1.0000
  H   H1131     1.0  0.51435  0.92335  0.29166  1.0000
  H   H1132     1.0  0.70793  0.84673  0.30163  1.0000
  H   H1133     1.0  0.50502  0.63039  0.21551  1.0000
  H   H1134     1.0  0.95642  0.62132  0.29337  1.0000
  C   C645      1.0  0.93671  0.59983  0.07092  1.0000
  H   H1135     1.0  0.54752  0.99015  0.09687  1.0000
  H   H1136     1.0  0.54463  0.55188  0.31098  1.0000
  H   H1137     1.0  0.90163  0.58045  0.12412  1.0000
  H   H1138     1.0  0.94269  0.61601  0.12134  1.0000
  C   C646      1.0  0.53984  0.98486  0.26507  1.0000
  H   H1139     1.0  0.52195  0.54211  0.06917  1.0000
  H   H1140     1.0  0.79829  0.69849  0.04244  1.0000
  C   C647      1.0  0.61465  0.53713  0.07444  1.0000
  C   C648      1.0  0.54086  0.96391  0.09292  1.0000
  H   H1141     1.0  0.72796  0.64331  0.06141  1.0000
  C   C649      1.0  0.51258  0.92135  0.26969  1.0000
  H   H1142     1.0  0.98515  0.57685  0.13293  1.0000
  C   C650      1.0  0.53637  0.56799  0.99796  1.0000
  H   H1143     1.0  0.74629  0.69424  0.11319  1.0000
  C   C651      1.0  0.70888  0.80899  0.27764  1.0000
  H   H1144     1.0  0.52230  0.57749  0.14095  1.0000
  C   C652      1.0  0.96452  0.54287  0.26024  1.0000
  H   H1145     1.0  0.58268  0.98326  0.01804  1.0000
  H   H1146     1.0  0.99183  0.51361  0.29288  1.0000
  H   H1147     1.0  0.51258  0.99290  0.21628  1.0000
  C   C653      1.0  0.78274  0.70783  0.05212  1.0000
  H   H1148     1.0  0.55330  0.52873  0.24354  1.0000
  H   H1149     1.0  0.53960  0.55497  0.17885  1.0000
  H   H1150     1.0  0.73347  0.70038  0.08140  1.0000
  C   C654      1.0  0.80158  0.74640  0.01214  1.0000
  H   H1151     1.0  0.77422  0.74994  0.04515  1.0000
  H   H1152     1.0  0.96880  0.69949  0.07852  1.0000
  H   H1153     1.0  0.51342  0.94697  0.09554  1.0000
  C   C655      1.0  0.58432  0.53657  0.08741  1.0000
  C   C656      1.0  0.79446  0.74378  0.04192  1.0000
  C   C657      1.0  0.50148  0.95249  0.03947  1.0000
  S   S153      1.0  0.51734  0.60862  0.27159  1.0000
  H   H1154     1.0  0.82426  0.75226  0.09223  1.0000
  H   H1155     1.0  0.71028  0.78565  0.27976  1.0000
  H   H1156     1.0  0.90535  0.57571  0.03613  1.0000
  H   H1157     1.0  0.81903  0.64244  0.02069  1.0000
  H   H1158     1.0  0.75725  0.69196  0.04356  1.0000
  H   H1159     1.0  0.84887  0.72650  0.06165  1.0000
  H   H1160     1.0  0.93087  0.53457  0.14545  1.0000
  H   H1161     1.0  0.91288  0.56558  0.16718  1.0000
  C   C658      1.0  0.54644  0.93101  0.01088  1.0000
  H   H1162     1.0  0.54922  0.95596  0.13399  1.0000
  C   C659      1.0  0.50658  0.51617  0.10702  1.0000
  C   C660      1.0  0.77285  0.66704  0.08700  1.0000
  H   H1163     1.0  0.68657  0.80381  0.26548  1.0000
  H   H1164     1.0  0.81472  0.72061  0.11602  1.0000
  H   H1165     1.0  0.77793  0.66371  0.10809  1.0000
  H   H1166     1.0  0.78865  0.66011  0.07477  1.0000
  H   H1167     1.0  0.74616  0.60126  0.06719  1.0000
  H   H1168     1.0  0.93348  0.61750  0.19337  1.0000
  C   C661      1.0  0.81622  0.72525  0.09422  1.0000
  H   H1169     1.0  0.95757  0.59205  0.16392  1.0000
  C   C662      1.0  0.98874  0.68371  0.04638  1.0000
  H   H1170     1.0  0.57967  0.97280  0.06453  1.0000
  H   H1171     1.0  0.51900  0.91313  0.01201  1.0000
  C   C663      1.0  0.97455  0.51640  0.25425  1.0000
  H   H1172     1.0  0.54008  0.98664  0.28705  1.0000
  C   C664      1.0  0.55159  0.95990  0.06478  1.0000
  H   H1173     1.0  0.70399  0.58583  0.07891  1.0000
  C   C665      1.0  0.83921  0.63594  0.98393  1.0000
  H   H1174     1.0  0.78410  0.75264  0.12089  1.0000
  C   C666      1.0  0.97795  0.58513  0.11450  1.0000
  C   C667      1.0  0.73577  0.63999  0.08133  1.0000
  C   C668      1.0  0.75587  0.70930  0.09463  1.0000
  C   C669      1.0  0.97931  0.52946  0.18462  1.0000
  N   N38       1.0  0.53938  0.97235  0.04192  1.0000
  H   H1175     1.0  0.74596  0.77512  0.11952  1.0000
  C   C670      1.0  0.55858  0.95443  0.11407  1.0000
  C   C671      1.0  0.93136  0.59579  0.04094  1.0000
  C   C672      1.0  0.92316  0.53371  0.12440  1.0000
  H   H1176     1.0  0.94964  0.58970  0.03175  1.0000
  H   H1177     1.0  0.58542  0.67011  0.06413  1.0000
  H   H1178     1.0  0.72238  0.73104  0.12761  1.0000
  H   H1179     1.0  0.53522  0.92159  0.26168  1.0000
  H   H1180     1.0  0.58571  0.53213  0.10882  1.0000
  C   C673      1.0  0.55475  0.96749  0.01704  1.0000
  C   C674      1.0  0.76709  0.74583  0.10345  1.0000
  C   C675      1.0  0.50412  0.56442  0.99845  1.0000
  C   C676      1.0  0.52340  0.54910  0.09048  1.0000
  H   H1181     1.0  0.92056  0.60952  0.07877  1.0000
  C   C677      1.0  0.97790  0.64239  0.30259  1.0000
  H   H1182     1.0  0.53946  0.59501  0.05113  1.0000
  C   C678      1.0  0.51266  0.56826  0.26731  1.0000
  H   H1183     1.0  0.93530  0.61965  0.03213  1.0000
  H   H1184     1.0  0.58619  0.97206  0.11359  1.0000
  H   H1185     1.0  0.55718  0.59074  0.99021  1.0000
  H   H1186     1.0  0.65269  0.98704  0.19330  1.0000
  H   H1187     1.0  0.58402  0.77274  0.30225  1.0000
  C   C679      1.0  0.93057  0.50763  0.11129  1.0000
  C   C680      1.0  0.50458  0.50330  0.26211  1.0000
  C   C681      1.0  0.78539  0.63505  0.98821  1.0000
  H   H1188     1.0  0.98007  0.55983  0.27650  1.0000
  H   H1189     1.0  0.93757  0.53064  0.26588  1.0000
  H   H1190     1.0  0.92899  0.50749  0.08941  1.0000
  H   H1191     1.0  0.50612  0.94618  0.23621  1.0000
  C   C682      1.0  0.98620  0.69111  0.07307  1.0000
  H   H1192     1.0  0.52312  0.50532  0.10968  1.0000
  H   H1193     1.0  0.73177  0.82798  0.26710  1.0000
  C   C683      1.0  0.60644  0.85585  0.30894  1.0000
  H   H1194     1.0  0.50633  0.55973  0.09220  1.0000
  H   H1195     1.0  0.96838  0.55848  0.24231  1.0000
  H   H1196     1.0  0.77917  0.72748  0.00103  1.0000
  H   H1197     1.0  0.80814  0.77182  0.00494  1.0000
  H   H1198     1.0  0.50527  0.98923  0.13539  1.0000
  H   H1199     1.0  0.53715  0.98699  0.17219  1.0000
  H   H1200     1.0  0.63914  0.59809  0.30643  1.0000
  C   C684      1.0  0.98027  0.50163  0.17418  1.0000
  H   H1201     1.0  0.65106  0.99161  0.24233  1.0000
  H   H1202     1.0  0.55923  0.97913  0.21497  1.0000
  H   H1203     1.0  0.95616  0.51303  0.11717  1.0000
  C   C685      1.0  0.55839  0.92858  0.98311  1.0000
  H   H1204     1.0  0.99180  0.53243  0.02817  1.0000
  Fe  Fe76      1.0  0.95186  0.57924  0.43189  1.0000
  S   S154      1.0  0.95343  0.53199  0.42127  1.0000
  Fe  Fe77      1.0  0.90924  0.61226  0.44463  1.0000
  S   S155      1.0  0.95519  0.66430  0.44642  1.0000
  S   S156      1.0  0.85330  0.59479  0.45202  1.0000
  C   C686      1.0  0.93445  0.49804  0.48819  1.0000
  H   H1205     1.0  0.95225  0.65847  0.57926  1.0000
  C   C687      1.0  0.49958  0.53167  0.35056  1.0000
  S   S157      1.0  0.92499  0.59853  0.40615  1.0000
  S   S158      1.0  0.93234  0.58825  0.47000  1.0000
  Fe  Fe78      1.0  0.57315  0.97411  0.34010  1.0000
  Fe  Fe79      1.0  0.61295  0.93712  0.33309  1.0000
  C   C688      1.0  0.54784  0.63213  0.53836  1.0000
  S   S159      1.0  0.60459  0.88319  0.33327  1.0000
  S   S160      1.0  0.59237  0.95045  0.36916  1.0000
  H   H1206     1.0  0.89154  0.61679  0.58942  1.0000
  S   S161      1.0  0.66545  0.60622  0.47049  1.0000
  S   S162      1.0  0.62186  0.64902  0.43345  1.0000
  C   C689      1.0  0.66174  0.69104  0.35069  1.0000
  C   C690      1.0  0.62728  0.67315  0.35577  1.0000
  C   C691      1.0  0.61563  0.66115  0.38143  1.0000
  C   C692      1.0  0.63821  0.66572  0.40194  1.0000
  C   C693      1.0  0.67274  0.68353  0.39690  1.0000
  C   C694      1.0  0.68447  0.69665  0.37140  1.0000
  H   H1207     1.0  0.60970  0.66938  0.34005  1.0000
  H   H1208     1.0  0.58897  0.64851  0.38553  1.0000
  H   H1209     1.0  0.69020  0.68771  0.41281  1.0000
  H   H1210     1.0  0.71117  0.71134  0.36768  1.0000
  C   C695      1.0  0.51750  0.54881  0.48744  1.0000
  H   H1211     1.0  0.95343  0.52583  0.61151  1.0000
  C   C696      1.0  0.55988  0.60680  0.61951  1.0000
  H   H1212     1.0  0.66382  0.89836  0.38494  1.0000
  H   H1213     1.0  0.87882  0.67666  0.59233  1.0000
  H   H1214     1.0  0.68468  0.82436  0.59219  1.0000
  C   C697      1.0  0.98180  0.57883  0.34761  1.0000
  C   C698      1.0  0.82937  0.61389  0.46171  1.0000
  C   C699      1.0  0.77425  0.60719  0.47301  1.0000
  C   C700      1.0  0.79437  0.59342  0.46516  1.0000
  H   H1215     1.0  0.74753  0.59099  0.47602  1.0000
  H   H1216     1.0  0.78278  0.56660  0.46196  1.0000
  Fe  Fe80      1.0  0.97227  0.64872  0.40953  1.0000
  H   H1217     1.0  0.58650  0.54670  0.62090  1.0000
  Fe  Fe81      1.0  0.65156  0.64663  0.46865  1.0000
  Fe  Fe82      1.0  0.66650  0.66352  0.52895  1.0000
  S   S163      1.0  0.68130  0.62401  0.53449  1.0000
  S   S164      1.0  0.65608  0.69284  0.56060  1.0000
  Fe  Fe83      1.0  0.70940  0.64284  0.49557  1.0000
  S   S165      1.0  0.76541  0.66067  0.48857  1.0000
  Fe  Fe84      1.0  0.63626  0.59150  0.50868  1.0000
  S   S166      1.0  0.59396  0.53926  0.51887  1.0000
  S   S167      1.0  0.69688  0.68461  0.49144  1.0000
  S   S168      1.0  0.62042  0.62987  0.50555  1.0000
  C   C701      1.0  0.55347  0.53195  0.51020  1.0000
  C   C702      1.0  0.64170  0.69898  0.63962  1.0000
  C   C703      1.0  0.86592  0.57094  0.52682  1.0000
  H   H1218     1.0  0.89849  0.62439  0.63723  1.0000
  C   C704      1.0  0.54947  0.55290  0.49224  1.0000
  C   C705      1.0  0.87096  0.62718  0.53801  1.0000
  H   H1219     1.0  0.57098  0.57236  0.48193  1.0000
  H   H1220     1.0  0.84794  0.63752  0.40721  1.0000
  C   C706      1.0  0.64058  0.70087  0.61174  1.0000
  C   C707      1.0  0.65606  0.68764  0.59547  1.0000
  C   C708      1.0  0.67207  0.67188  0.60735  1.0000
  H   H1221     1.0  0.62792  0.71287  0.60266  1.0000
  H   H1222     1.0  0.68429  0.66185  0.59509  1.0000
  C   C709      1.0  0.84396  0.64852  0.46588  1.0000
  C   C710      1.0  0.82381  0.66231  0.47361  1.0000
  C   C711      1.0  0.78892  0.64177  0.47745  1.0000
  H   H1223     1.0  0.87074  0.66464  0.46307  1.0000
  H   H1224     1.0  0.83540  0.68913  0.47681  1.0000
  H   H1225     1.0  0.67293  0.77224  0.31899  1.0000
  C   C712      1.0  0.87058  0.68042  0.54076  1.0000
  H   H1226     1.0  0.58192  0.49994  0.46515  1.0000
  C   C713      1.0  0.95974  0.55032  0.55827  1.0000
  H   H1227     1.0  0.85385  0.61289  0.60414  1.0000
  C   C714      1.0  0.88039  0.63070  0.59901  1.0000
  H   H1228     1.0  0.49729  0.92661  0.64292  1.0000
  H   H1229     1.0  0.52532  0.96251  0.39978  1.0000
  C   C715      1.0  0.55011  0.56671  0.37866  1.0000
  C   C716      1.0  0.55861  0.54027  0.38933  1.0000
  H   H1230     1.0  0.50268  0.96081  0.51009  1.0000
  C   C717      1.0  0.57569  0.55078  0.41648  1.0000
  S   S169      1.0  0.52121  0.96850  0.34197  1.0000
  H   H1231     1.0  0.55938  0.61489  0.34408  1.0000
  H   H1232     1.0  0.57347  0.59159  0.37991  1.0000
  H   H1233     1.0  0.53275  0.56806  0.39334  1.0000
  H   H1234     1.0  0.57608  0.53728  0.37598  1.0000
  H   H1235     1.0  0.86242  0.69574  0.55240  1.0000
  H   H1236     1.0  0.60685  0.59277  0.34703  1.0000
  H   H1237     1.0  0.74756  0.59707  0.53210  1.0000
  H   H1238     1.0  0.58087  0.81242  0.33419  1.0000
  C   C718      1.0  0.67424  0.79709  0.31971  1.0000
  Fe  Fe85      1.0  0.97882  0.63925  0.46956  1.0000
  C   C719      1.0  0.85055  0.58853  0.54231  1.0000
  H   H1239     1.0  0.54222  0.61653  0.61637  1.0000
  N   N39       1.0  0.55481  0.58128  0.59826  1.0000
  H   H1240     1.0  0.93866  0.74727  0.50827  1.0000
  H   H1241     1.0  0.76201  0.57493  0.55295  1.0000
  C   C720      1.0  0.58769  0.58306  0.59152  1.0000
  C   C721      1.0  0.51826  0.51797  0.58625  1.0000
  H   H1242     1.0  0.92310  0.71749  0.55061  1.0000
  H   H1243     1.0  0.58556  0.62927  0.61805  1.0000
  C   C722      1.0  0.95246  0.56953  0.53705  1.0000
  H   H1244     1.0  0.94810  0.53041  0.32914  1.0000
  H   H1245     1.0  0.60703  0.60926  0.58630  1.0000
  H   H1246     1.0  0.92261  0.54302  0.64438  1.0000
  H   H1247     1.0  0.58913  0.63094  0.55672  1.0000
  H   H1248     1.0  0.64296  0.76592  0.63032  1.0000
  H   H1249     1.0  0.93930  0.54122  0.57314  1.0000
  H   H1250     1.0  0.54068  0.51726  0.57900  1.0000
  H   H1251     1.0  0.62757  0.73558  0.33956  1.0000
  H   H1252     1.0  0.57121  0.72649  0.35115  1.0000
  N   N40       1.0  0.75637  0.63758  0.39494  1.0000
  C   C723      1.0  0.75261  0.66291  0.41150  1.0000
  C   C724      1.0  0.73137  0.60272  0.40457  1.0000
  C   C725      1.0  0.79124  0.64294  0.39989  1.0000
  C   C726      1.0  0.75226  0.64099  0.36550  1.0000
  C   C727      1.0  0.72826  0.65404  0.35702  1.0000
  C   C728      1.0  0.78120  0.69996  0.40860  1.0000
  C   C729      1.0  0.79867  0.61608  0.38817  1.0000
  C   C730      1.0  0.69370  0.59191  0.40185  1.0000
  C   C731      1.0  0.67147  0.55750  0.41457  1.0000
  C   C732      1.0  0.77132  0.72430  0.42068  1.0000
  C   C733      1.0  0.83645  0.62882  0.38732  1.0000
  H   H1253     1.0  0.75145  0.65651  0.43292  1.0000
  H   H1254     1.0  0.72837  0.66192  0.40762  1.0000
  H   H1255     1.0  0.73426  0.58335  0.39358  1.0000
  H   H1256     1.0  0.73643  0.60002  0.42581  1.0000
  H   H1257     1.0  0.79638  0.64419  0.42155  1.0000
  H   H1258     1.0  0.81063  0.66765  0.39175  1.0000
  H   H1259     1.0  0.77692  0.65860  0.35617  1.0000
  H   H1260     1.0  0.74383  0.61649  0.35540  1.0000
  H   H1261     1.0  0.74025  0.68133  0.36120  1.0000
  H   H1262     1.0  0.70395  0.64139  0.36760  1.0000
  H   H1263     1.0  0.80398  0.70365  0.41934  1.0000
  H   H1264     1.0  0.78796  0.70678  0.38750  1.0000
  H   H1265     1.0  0.78867  0.60895  0.36772  1.0000
  H   H1266     1.0  0.78698  0.59318  0.40082  1.0000
  H   H1267     1.0  0.68779  0.60996  0.41157  1.0000
  H   H1268     1.0  0.68655  0.58948  0.38061  1.0000
  H   H1269     1.0  0.67500  0.53796  0.40455  1.0000
  H   H1270     1.0  0.67752  0.55810  0.43597  1.0000
  H   H1271     1.0  0.64465  0.55052  0.41272  1.0000
  H   H1272     1.0  0.75042  0.72386  0.40928  1.0000
  H   H1273     1.0  0.76354  0.71758  0.44170  1.0000
  H   H1274     1.0  0.79315  0.75027  0.42009  1.0000
  C   C734      1.0  0.90799  0.70377  0.53294  1.0000
  C   C735      1.0  0.63517  0.57237  0.60306  1.0000
  H   H1275     1.0  0.84088  0.60818  0.38100  1.0000
  H   H1276     1.0  0.70753  0.62210  0.32208  1.0000
  C   C736      1.0  0.80094  0.62503  0.54073  1.0000
  H   H1277     1.0  0.51493  0.56587  0.47409  1.0000
  H   H1278     1.0  0.90103  0.74554  0.52076  1.0000
  H   H1279     1.0  0.50338  0.97423  0.61182  1.0000
  N   N41       1.0  0.67102  0.80640  0.34792  1.0000
  C   C737      1.0  0.63536  0.78309  0.35679  1.0000
  C   C738      1.0  0.67833  0.84243  0.34780  1.0000
  C   C739      1.0  0.60393  0.57237  0.61351  1.0000
  C   C740      1.0  0.69615  0.80244  0.36461  1.0000
  C   C741      1.0  0.69510  0.80730  0.39487  1.0000
  C   C742      1.0  0.62448  0.74536  0.35873  1.0000
  C   C743      1.0  0.51136  0.60082  0.36050  1.0000
  C   C744      1.0  0.66231  0.85332  0.36996  1.0000
  H   H1280     1.0  0.59965  0.57515  0.41508  1.0000
  C   C745      1.0  0.71622  0.79523  0.40968  1.0000
  H   H1281     1.0  0.56758  0.64539  0.57786  1.0000
  H   H1282     1.0  0.89817  0.63530  0.53977  1.0000
  H   H1283     1.0  0.61762  0.78551  0.34323  1.0000
  H   H1284     1.0  0.63033  0.79015  0.37653  1.0000
  H   H1285     1.0  0.70599  0.86010  0.34793  1.0000
  H   H1286     1.0  0.94004  0.53295  0.36397  1.0000
  C   C746      1.0  0.67362  0.67046  0.63520  1.0000
  H   H1287     1.0  0.66876  0.84771  0.32906  1.0000
  H   H1288     1.0  0.69358  0.77728  0.36107  1.0000
  H   H1289     1.0  0.72223  0.82073  0.35842  1.0000
  H   H1290     1.0  0.66928  0.79311  0.40295  1.0000
  H   H1291     1.0  0.70590  0.83442  0.39938  1.0000
  C   C747      1.0  0.51791  0.98843  0.50803  1.0000
  H   H1292     1.0  0.63951  0.74122  0.37399  1.0000
  H   H1293     1.0  0.63938  0.79721  0.59159  1.0000
  H   H1294     1.0  0.97910  0.59493  0.36265  1.0000
  H   H1295     1.0  0.63486  0.84193  0.36624  1.0000
  H   H1296     1.0  0.66563  0.84546  0.38991  1.0000
  S   S170      1.0  0.67699  0.70722  0.31884  1.0000
  N   N42       1.0  0.86267  0.64870  0.55566  1.0000
  H   H1297     1.0  0.70438  0.90422  0.37576  1.0000
  H   H1298     1.0  0.70574  0.76779  0.40663  1.0000
  H   H1299     1.0  0.74272  0.80896  0.40274  1.0000
  H   H1300     1.0  0.71589  0.79985  0.43126  1.0000
  C   C748      1.0  0.52823  0.54642  0.60682  1.0000
  C   C749      1.0  0.53435  0.96320  0.42034  1.0000
  H   H1301     1.0  0.98144  0.50322  0.50046  1.0000
  H   H1302     1.0  0.56366  0.98643  0.50179  1.0000
  H   H1303     1.0  0.96103  0.65465  0.53100  1.0000
  H   H1304     1.0  0.54047  0.57324  0.55665  1.0000
  C   C750      1.0  0.54218  0.58986  0.57338  1.0000
  C   C751      1.0  0.58746  0.72451  0.36657  1.0000
  H   H1305     1.0  0.67467  0.90059  0.35047  1.0000
  H   H1306     1.0  0.65405  0.59782  0.59594  1.0000
  C   C752      1.0  0.59342  0.58573  0.32774  1.0000
  H   H1307     1.0  0.61221  0.59056  0.63016  1.0000
  H   H1308     1.0  0.98767  0.59160  0.32812  1.0000
  H   H1309     1.0  0.89852  0.71811  0.49398  1.0000
  H   H1310     1.0  0.82433  0.57821  0.53515  1.0000
  H   H1311     1.0  0.92843  0.55233  0.52686  1.0000
  H   H1312     1.0  0.58504  0.56818  0.57333  1.0000
  C   C753      1.0  0.97549  0.66075  0.57241  1.0000
  H   H1313     1.0  0.64675  0.56506  0.61919  1.0000
  H   H1314     1.0  0.82202  0.64692  0.57865  1.0000
  C   C754      1.0  0.52478  0.50518  0.52176  1.0000
  H   H1315     1.0  0.55901  0.55345  0.43103  1.0000
  H   H1316     1.0  0.58036  0.69773  0.36856  1.0000
  H   H1317     1.0  0.68825  0.79260  0.63071  1.0000
  C   C755      1.0  0.89930  0.64496  0.62507  1.0000
  C   C756      1.0  0.82608  0.63154  0.56359  1.0000
  N   N43       1.0  0.53533  0.56109  0.35113  1.0000
  H   H1318     1.0  0.55566  0.99124  0.53594  1.0000
  H   H1319     1.0  0.81817  0.60721  0.57357  1.0000
  H   H1320     1.0  0.97593  0.50631  0.57991  1.0000
  H   H1321     1.0  0.75733  0.60904  0.56636  1.0000
  H   H1322     1.0  0.88760  0.65706  0.63658  1.0000
  H   H1323     1.0  0.53538  0.51578  0.39193  1.0000
  H   H1324     1.0  0.91109  0.67366  0.57546  1.0000
  C   C757      1.0  0.99213  0.50239  0.41581  1.0000
  H   H1325     1.0  0.54461  0.61412  0.52235  1.0000
  C   C758      1.0  0.66138  0.81811  0.64402  1.0000
  H   H1326     1.0  0.86727  0.63104  0.51668  1.0000
  H   H1327     1.0  0.53591  0.53848  0.62504  1.0000
  C   C759      1.0  0.56402  0.62630  0.56280  1.0000
  H   H1328     1.0  0.95559  0.63123  0.34174  1.0000
  H   H1329     1.0  0.74432  0.66274  0.31565  1.0000
  H   H1330     1.0  0.92828  0.55387  0.33960  1.0000
  C   C760      1.0  0.97778  0.54864  0.61650  1.0000
  H   H1331     1.0  0.61080  0.97732  0.48578  1.0000
  C   C761      1.0  0.91163  0.73026  0.51277  1.0000
  H   H1332     1.0  0.95002  0.59007  0.54630  1.0000
  C   C762      1.0  0.66402  0.79167  0.62675  1.0000
  H   H1333     1.0  0.55814  0.53330  0.33510  1.0000
  C   C763      1.0  0.53404  0.59219  0.34330  1.0000
  H   H1334     1.0  0.91902  0.68935  0.52409  1.0000
  C   C764      1.0  0.67735  0.89147  0.37024  1.0000
  H   H1335     1.0  0.58295  0.73310  0.38591  1.0000
  C   C765      1.0  0.66360  0.79894  0.59722  1.0000
  H   H1336     1.0  0.95878  0.52824  0.54847  1.0000
  H   H1337     1.0  0.86641  0.57623  0.50528  1.0000
  C   C766      1.0  0.99057  0.52997  0.42604  1.0000
  C   C767      1.0  0.98039  0.65852  0.54514  1.0000
  H   H1338     1.0  0.58152  0.53153  0.42395  1.0000
  H   H1339     1.0  0.84938  0.58144  0.56338  1.0000
  C   C768      1.0  0.94753  0.54694  0.34492  1.0000
  H   H1340     1.0  0.59303  0.77550  0.64388  1.0000
  H   H1341     1.0  0.84911  0.64991  0.37303  1.0000
  H   H1342     1.0  0.85603  0.67398  0.52196  1.0000
  H   H1343     1.0  0.50473  0.54654  0.61208  1.0000
  H   H1344     1.0  0.98665  0.54159  0.63469  1.0000
  H   H1345     1.0  0.89195  0.57961  0.53373  1.0000
  H   H1346     1.0  0.52249  0.60916  0.38055  1.0000
  H   H1347     1.0  0.59383  0.60817  0.31911  1.0000
  H   H1348     1.0  0.62840  0.55416  0.58647  1.0000
  H   H1349     1.0  0.54224  0.94401  0.42199  1.0000
  H   H1350     1.0  0.52562  0.58997  0.32235  1.0000
  H   H1351     1.0  0.66648  0.78009  0.58541  1.0000
  H   H1352     1.0  0.80170  0.64887  0.53533  1.0000
  H   H1353     1.0  0.94760  0.52441  0.48091  1.0000
  H   H1354     1.0  0.85064  0.54333  0.52978  1.0000
  H   H1355     1.0  0.51340  0.95663  0.43442  1.0000
  C   C769      1.0  0.76479  0.59992  0.54867  1.0000
  H   H1356     1.0  0.56436  0.65802  0.53078  1.0000
  H   H1357     1.0  0.53338  0.65186  0.34483  1.0000
  C   C770      1.0  0.97019  0.57674  0.62483  1.0000
  H   H1358     1.0  0.61518  0.55470  0.31668  1.0000
  C   C771      1.0  0.72073  0.64922  0.32731  1.0000
  H   H1359     1.0  0.95761  0.58260  0.60857  1.0000
  C   C772      1.0  0.88396  0.65921  0.58048  1.0000
  H   H1360     1.0  0.80737  0.61534  0.52291  1.0000
  H   H1361     1.0  0.51619  0.58531  0.57652  1.0000
  H   H1362     1.0  0.52296  0.62916  0.54337  1.0000
  H   H1363     1.0  0.92608  0.66380  0.62132  1.0000
  C   C773      1.0  0.97739  0.64786  0.33006  1.0000
  C   C774      1.0  0.50818  0.62944  0.34797  1.0000
  C   C775      1.0  0.55673  0.55627  0.33087  1.0000
  H   H1364     1.0  0.70419  0.65951  0.32180  1.0000
  H   H1365     1.0  0.50505  0.52167  0.56933  1.0000
  H   H1366     1.0  0.64179  0.82274  0.63524  1.0000
  S   S171      1.0  0.66282  0.98600  0.33461  1.0000
  H   H1367     1.0  0.97283  0.58030  0.52198  1.0000
  H   H1368     1.0  0.68690  0.65902  0.64419  1.0000
  H   H1369     1.0  0.68540  0.84201  0.64095  1.0000
  H   H1370     1.0  0.62209  0.97936  0.43743  1.0000
  H   H1371     1.0  0.72975  0.82712  0.31599  1.0000
  H   H1372     1.0  0.99349  0.60018  0.63027  1.0000
  S   S172      1.0  0.99360  0.66960  0.62482  1.0000
  C   C776      1.0  0.59305  0.82161  0.31524  1.0000
  H   H1373     1.0  0.51757  0.99452  0.48678  1.0000
  H   H1374     1.0  0.92419  0.49754  0.50819  1.0000
  H   H1375     1.0  0.50265  0.49624  0.32280  1.0000
  H   H1376     1.0  0.49508  0.62146  0.32852  1.0000
  Fe  Fe86      1.0  0.95273  0.59075  0.93517  1.0000
  S   S173      1.0  0.95002  0.54049  0.92915  1.0000
  Fe  Fe87      1.0  0.91483  0.63006  0.94198  1.0000
  S   S174      1.0  0.96365  0.67961  0.94495  1.0000
  S   S175      1.0  0.86357  0.62663  0.93567  1.0000
  C   C777      1.0  0.49643  0.94838  0.68113  1.0000
  C   C778      1.0  0.88598  0.63786  0.85699  1.0000
  H   H1377     1.0  0.64332  0.89574  0.88110  1.0000
  S   S176      1.0  0.93170  0.61273  0.90612  1.0000
  H   H1378     1.0  0.66022  0.83984  0.83791  1.0000
  C   C779      1.0  0.51506  0.51633  0.75878  1.0000
  Fe  Fe88      1.0  0.60929  0.93835  0.83418  1.0000
  C   C780      1.0  0.64860  0.55790  0.89088  1.0000
  S   S177      1.0  0.59423  0.88273  0.82852  1.0000
  S   S178      1.0  0.59592  0.95297  0.87336  1.0000
  S   S179      1.0  0.58304  0.96011  0.81037  1.0000
  Fe  Fe89      1.0  0.62546  0.74171  0.75673  1.0000
  S   S180      1.0  0.67055  0.73459  0.75245  1.0000
  S   S181      1.0  0.63940  0.79728  0.75616  1.0000
  Fe  Fe90      1.0  0.57755  0.66579  0.75660  1.0000
  S   S182      1.0  0.61934  0.65483  0.75244  1.0000
  S   S183      1.0  0.52489  0.62092  0.76006  1.0000
  Fe  Fe91      1.0  0.64560  0.69433  0.78327  1.0000
  S   S184      1.0  0.67435  0.68239  0.81393  1.0000
  Fe  Fe92      1.0  0.64019  0.69548  0.72175  1.0000
  S   S185      1.0  0.66345  0.68342  0.68643  1.0000
  S   S186      1.0  0.60245  0.70354  0.78968  1.0000
  S   S187      1.0  0.59642  0.70451  0.72390  1.0000
  H   H1379     1.0  0.96492  0.75184  0.82496  1.0000
  S   S188      1.0  0.65053  0.68520  0.93745  1.0000
  S   S189      1.0  0.66605  0.61236  0.96857  1.0000
  C   C781      1.0  0.98545  0.50746  0.92320  1.0000
  H   H1380     1.0  0.68154  0.76596  0.66747  1.0000
  C   C782      1.0  0.54207  0.54350  0.74607  1.0000
  C   C783      1.0  0.54485  0.57536  0.74592  1.0000
  H   H1381     1.0  0.60485  0.59040  0.77568  1.0000
  H   H1382     1.0  0.56087  0.53986  0.73612  1.0000
  H   H1383     1.0  0.56522  0.59567  0.73531  1.0000
  H   H1384     1.0  0.51040  0.95899  0.79240  1.0000
  C   C784      1.0  0.61456  0.56557  0.85461  1.0000
  N   N44       1.0  0.65492  0.81042  0.67323  1.0000
  C   C785      1.0  0.89606  0.70168  0.81672  1.0000
  C   C786      1.0  0.66580  0.68086  0.84814  1.0000
  C   C787      1.0  0.64280  0.68970  0.85782  1.0000
  C   C788      1.0  0.63773  0.68984  0.88527  1.0000
  C   C789      1.0  0.65536  0.68096  0.90323  1.0000
  C   C790      1.0  0.67727  0.67063  0.89354  1.0000
  C   C791      1.0  0.68258  0.67076  0.86603  1.0000
  H   H1385     1.0  0.62922  0.69668  0.84415  1.0000
  H   H1386     1.0  0.62025  0.69708  0.89277  1.0000
  H   H1387     1.0  0.69098  0.66375  0.90725  1.0000
  H   H1388     1.0  0.70032  0.66374  0.85864  1.0000
  C   C792      1.0  0.60701  0.85986  0.80751  1.0000
  C   C793      1.0  0.58822  0.82446  0.80780  1.0000
  C   C794      1.0  0.59776  0.80496  0.79235  1.0000
  C   C795      1.0  0.62639  0.82062  0.77635  1.0000
  C   C796      1.0  0.64512  0.85602  0.77589  1.0000
  C   C797      1.0  0.63555  0.87555  0.79135  1.0000
  H   H1389     1.0  0.56601  0.81202  0.82010  1.0000
  H   H1390     1.0  0.58280  0.77782  0.79269  1.0000
  H   H1391     1.0  0.66738  0.86848  0.76368  1.0000
  H   H1392     1.0  0.65040  0.90271  0.79095  1.0000
  H   H1393     1.0  0.66005  0.58495  0.89613  1.0000
  H   H1394     1.0  0.91904  0.52937  0.87855  1.0000
  C   C798      1.0  0.90814  0.72636  0.90652  1.0000
  H   H1395     1.0  0.74067  0.80116  0.68293  1.0000
  H   H1396     1.0  0.56181  0.56213  0.80484  1.0000
  Fe  Fe93      1.0  0.57429  0.97874  0.84894  1.0000
  C   C799      1.0  0.83416  0.63016  0.95662  1.0000
  H   H1397     1.0  0.50786  0.54786  0.87717  1.0000
  C   C800      1.0  0.80474  0.62721  0.94524  1.0000
  H   H1398     1.0  0.54272  0.58757  0.92002  1.0000
  H   H1399     1.0  0.80051  0.62277  0.92416  1.0000
  H   H1400     1.0  0.87947  0.67572  0.89188  1.0000
  H   H1401     1.0  0.59080  0.64145  0.66745  1.0000
  N   N45       1.0  0.64551  0.79504  0.86155  1.0000
  C   C801      1.0  0.60754  0.77646  0.86103  1.0000
  C   C802      1.0  0.65919  0.83258  0.85919  1.0000
  C   C803      1.0  0.65719  0.78401  0.83750  1.0000
  C   C804      1.0  0.65912  0.78666  0.88586  1.0000
  C   C805      1.0  0.64726  0.79232  0.91306  1.0000
  C   C806      1.0  0.58978  0.73766  0.86345  1.0000
  C   C807      1.0  0.69573  0.80322  0.83234  1.0000
  C   C808      1.0  0.65734  0.77648  0.93534  1.0000
  C   C809      1.0  0.55158  0.72204  0.86226  1.0000
  C   C810      1.0  0.70422  0.78994  0.80754  1.0000
  H   H1402     1.0  0.59715  0.78498  0.87711  1.0000
  H   H1403     1.0  0.68563  0.84666  0.86650  1.0000
  H   H1404     1.0  0.64469  0.78623  0.81923  1.0000
  H   H1405     1.0  0.64988  0.75708  0.83903  1.0000
  H   H1406     1.0  0.65354  0.76013  0.88492  1.0000
  H   H1407     1.0  0.68701  0.80193  0.88641  1.0000
  H   H1408     1.0  0.61962  0.78112  0.91403  1.0000
  H   H1409     1.0  0.65955  0.81964  0.91726  1.0000
  H   H1410     1.0  0.59686  0.72643  0.84707  1.0000
  H   H1411     1.0  0.59607  0.73034  0.88263  1.0000
  H   H1412     1.0  0.70956  0.79998  0.84906  1.0000
  H   H1413     1.0  0.70547  0.83048  0.82930  1.0000
  H   H1414     1.0  0.63328  0.83946  0.89382  1.0000
  H   H1415     1.0  0.68255  0.89583  0.88377  1.0000
  C   C811      1.0  0.95836  0.56702  0.85310  1.0000
  H   H1416     1.0  0.97677  0.71996  0.82943  1.0000
  H   H1417     1.0  0.72598  0.79564  0.71693  1.0000
  H   H1418     1.0  0.65257  0.90005  0.68668  1.0000
  H   H1419     1.0  0.69559  0.76271  0.80969  1.0000
  H   H1420     1.0  0.69218  0.79387  0.78984  1.0000
  H   H1421     1.0  0.73185  0.80361  0.80444  1.0000
  H   H1422     1.0  0.56429  0.99093  0.76838  1.0000
  C   C812      1.0  0.56112  0.73723  0.67136  1.0000
  C   C813      1.0  0.89879  0.71110  0.84659  1.0000
  H   H1423     1.0  0.70101  0.87379  0.69929  1.0000
  H   H1424     1.0  0.88755  0.61745  0.81831  1.0000
  H   H1425     1.0  0.88175  0.62873  0.87781  1.0000
  C   C814      1.0  0.68078  0.87331  0.68688  1.0000
  H   H1426     1.0  0.62977  0.70923  0.65191  1.0000
  H   H1427     1.0  0.96469  0.62175  0.79783  1.0000
  H   H1428     1.0  0.68500  0.78683  0.93559  1.0000
  H   H1429     1.0  0.87700  0.70998  0.77976  1.0000
  H   H1430     1.0  0.62978  0.83982  0.67483  1.0000
  H   H1431     1.0  0.50990  0.51009  0.87577  1.0000
  C   C815      1.0  0.64957  0.83738  0.68566  1.0000
  C   C816      1.0  0.68486  0.81126  0.68669  1.0000
  H   H1432     1.0  0.90751  0.55637  0.86129  1.0000
  H   H1433     1.0  0.54273  0.94640  0.67753  1.0000
  C   C817      1.0  0.68630  0.77817  0.68706  1.0000
  H   H1434     1.0  0.66153  0.89025  0.71941  1.0000
  C   C818      1.0  0.65882  0.88586  0.87227  1.0000
  C   C819      1.0  0.59059  0.77241  0.66572  1.0000
  C   C820      1.0  0.62351  0.77712  0.67832  1.0000
  C   C821      1.0  0.99301  0.49832  0.68532  1.0000
  N   N46       1.0  0.92023  0.70227  0.86391  1.0000
  H   H1435     1.0  0.54567  0.93566  0.96775  1.0000
  C   C822      1.0  0.78054  0.62968  0.96086  1.0000
  H   H1436     1.0  0.86048  0.69789  0.92757  1.0000
  H   H1437     1.0  0.61174  0.55567  0.77016  1.0000
  H   H1438     1.0  0.97060  0.72526  0.87993  1.0000
  H   H1439     1.0  0.67255  0.59446  0.76382  1.0000
  N   N47       1.0  0.54673  0.97295  0.71404  1.0000
  H   H1440     1.0  0.66470  0.89508  0.85150  1.0000
  H   H1441     1.0  0.61465  0.95575  0.75888  1.0000
  H   H1442     1.0  0.62872  0.59288  0.85939  1.0000
  H   H1443     1.0  0.70872  0.83140  0.67790  1.0000
  H   H1444     1.0  0.87239  0.69861  0.85398  1.0000
  C   C823      1.0  0.52627  0.94639  0.69373  1.0000
  C   C824      1.0  0.63121  0.58150  0.80846  1.0000
  C   C825      1.0  0.65886  0.68436  0.65150  1.0000
  H   H1445     1.0  0.55265  0.91380  0.72402  1.0000
  C   C826      1.0  0.63924  0.84744  0.87293  1.0000
  H   H1446     1.0  0.64481  0.60810  0.81539  1.0000
  H   H1447     1.0  0.85394  0.70983  0.80869  1.0000
  H   H1448     1.0  0.59869  0.78246  0.84240  1.0000
  C   C827      1.0  0.63873  0.55219  0.86158  1.0000
  H   H1449     1.0  0.75802  0.62712  0.95178  1.0000
  C   C828      1.0  0.72045  0.78430  0.69680  1.0000
  H   H1450     1.0  0.89680  0.70283  0.94560  1.0000
  H   H1451     1.0  0.62625  0.75579  0.67129  1.0000
  H   H1452     1.0  0.55871  0.57314  0.89356  1.0000
  H   H1453     1.0  0.54955  0.63691  0.66350  1.0000
  C   C829      1.0  0.97941  0.54906  0.85349  1.0000
  H   H1454     1.0  0.66733  0.54989  0.89506  1.0000
  C   C830      1.0  0.56340  0.62346  0.66819  1.0000
  H   H1455     1.0  0.61511  0.83914  0.86234  1.0000
  Fe  Fe94      1.0  0.98080  0.65126  0.97146  1.0000
  H   H1456     1.0  0.68572  0.81798  0.70806  1.0000
  S   S190      1.0  0.93109  0.60288  0.97060  1.0000
  S   S191      1.0  0.52446  0.97547  0.85865  1.0000
  C   C831      1.0  0.90640  0.69584  0.89183  1.0000
  H   H1457     1.0  0.59275  0.91101  0.75424  1.0000
  H   H1458     1.0  0.96954  0.52272  0.70519  1.0000
  H   H1459     1.0  0.96581  0.63572  0.84561  1.0000
  H   H1460     1.0  0.64020  0.83026  0.70638  1.0000
  H   H1461     1.0  0.89499  0.74571  0.80171  1.0000
  H   H1462     1.0  0.66704  0.63012  0.77041  1.0000
  H   H1463     1.0  0.61522  0.93833  0.72680  1.0000
  H   H1464     1.0  0.89849  0.73947  0.89386  1.0000
  H   H1465     1.0  0.90965  0.52350  0.84353  1.0000
  H   H1466     1.0  0.90779  0.73851  0.84802  1.0000
  H   H1467     1.0  0.53946  0.69427  0.86398  1.0000
  H   H1468     1.0  0.55699  0.61355  0.68874  1.0000
  H   H1469     1.0  0.51503  0.92097  0.70279  1.0000
  H   H1470     1.0  0.60461  0.61162  0.92216  1.0000
  H   H1471     1.0  0.61934  0.77311  0.70011  1.0000
  C   C832      1.0  0.98528  0.64490  0.80555  1.0000
  C   C833      1.0  0.51845  0.98452  0.78456  1.0000
  H   H1472     1.0  0.64783  0.60428  0.74163  1.0000
  C   C834      1.0  0.59963  0.93535  0.74452  1.0000
  H   H1473     1.0  0.92941  0.67354  0.83419  1.0000
  C   C835      1.0  0.98677  0.53729  0.93136  1.0000
  H   H1474     1.0  0.86058  0.58660  0.84233  1.0000
  H   H1475     1.0  0.54257  0.73142  0.87882  1.0000
  H   H1476     1.0  0.54385  0.72809  0.84308  1.0000
  H   H1477     1.0  0.55666  0.73336  0.69306  1.0000
  C   C836      1.0  0.95606  0.73106  0.86518  1.0000
  H   H1478     1.0  0.59421  0.99051  0.73448  1.0000
  C   C837      1.0  0.52932  0.53428  0.92347  1.0000
  C   C838      1.0  0.56779  0.93603  0.73675  1.0000
  C   C839      1.0  0.88745  0.71546  0.93203  1.0000
  C   C840      1.0  0.57504  0.56994  0.82431  1.0000
  C   C841      1.0  0.58711  0.60783  0.82816  1.0000
  N   N48       1.0  0.60185  0.56018  0.82637  1.0000
  C   C842      1.0  0.62282  0.58129  0.77867  1.0000
  C   C843      1.0  0.55739  0.61394  0.83008  1.0000
  C   C844      1.0  0.65456  0.60393  0.76275  1.0000
  H   H1479     1.0  0.59326  0.55455  0.86885  1.0000
  H   H1480     1.0  0.55514  0.55605  0.83934  1.0000
  H   H1481     1.0  0.60290  0.62274  0.81121  1.0000
  H   H1482     1.0  0.60191  0.61777  0.84660  1.0000
  C   C845      1.0  0.67163  0.89819  0.69905  1.0000
  H   H1483     1.0  0.65004  0.57306  0.80941  1.0000
  H   H1484     1.0  0.95687  0.75432  0.87235  1.0000
  H   H1485     1.0  0.66227  0.56552  0.84991  1.0000
  C   C846      1.0  0.92145  0.54251  0.85952  1.0000
  C   C847      1.0  0.58666  0.52385  0.81814  1.0000
  H   H1486     1.0  0.52988  0.53406  0.94556  1.0000
  H   H1487     1.0  0.56681  0.64138  0.83118  1.0000
  H   H1488     1.0  0.54097  0.60378  0.81240  1.0000
  H   H1489     1.0  0.54238  0.60189  0.84815  1.0000
  C   C848      1.0  0.49488  0.52115  0.88363  1.0000
  C   C849      1.0  0.58740  0.58565  0.92925  1.0000
  H   H1490     1.0  0.55365  0.93324  0.75525  1.0000
  H   H1491     1.0  0.72014  0.75997  0.69779  1.0000
  H   H1492     1.0  0.51186  0.94227  0.74484  1.0000
  H   H1493     1.0  0.58436  0.58665  0.95099  1.0000
  H   H1494     1.0  0.59918  0.57012  0.92523  1.0000
  H   H1495     1.0  0.64463  0.74874  0.93283  1.0000
  C   C850      1.0  0.55350  0.57132  0.91513  1.0000
  H   H1496     1.0  0.93871  0.66738  0.86678  1.0000
  C   C851      1.0  0.97605  0.74136  0.83887  1.0000
  H   H1497     1.0  0.91963  0.68610  0.90444  1.0000
  H   H1498     1.0  0.88954  0.73778  0.94233  1.0000
  H   H1499     1.0  0.62703  0.52485  0.85770  1.0000
  S   S192      1.0  0.66031  0.98559  0.83205  1.0000
  H   H1500     1.0  0.92075  0.70940  0.80763  1.0000
  C   C852      1.0  0.57634  0.96906  0.72197  1.0000
  H   H1501     1.0  0.88038  0.67408  0.81409  1.0000
  H   H1502     1.0  0.90550  0.60531  0.84513  1.0000
  C   C853      1.0  0.52107  0.58063  0.75902  1.0000
  H   H1503     1.0  0.57496  0.51988  0.79812  1.0000
  Fe  Fe95      1.0  0.66356  0.66011  0.97056  1.0000
  C   C854      1.0  0.92030  0.67100  0.85485  1.0000
  C   C855      1.0  0.98578  0.65272  0.83263  1.0000
  H   H1504     1.0  0.62628  0.54282  0.90358  1.0000
  C   C856      1.0  0.87946  0.71786  0.80085  1.0000
  C   C857      1.0  0.54243  0.99270  0.76122  1.0000
  C   C858      1.0  0.88495  0.61018  0.83956  1.0000
  H   H1505     1.0  0.93448  0.74447  0.91233  1.0000
  H   H1506     1.0  0.86469  0.64154  0.85132  1.0000
  H   H1507     1.0  0.59125  0.97028  0.70420  1.0000
  H   H1508     1.0  0.51202  0.99386  0.91394  1.0000
  H   H1509     1.0  0.50453  0.97324  0.67200  1.0000
  H   H1510     1.0  0.66689  0.75992  0.70077  1.0000
  H   H1511     1.0  0.69100  0.88268  0.66682  1.0000
  H   H1512     1.0  0.69440  0.92352  0.70023  1.0000
  H   H1513     1.0  0.54076  0.51903  0.91696  1.0000
  H   H1514     1.0  0.98133  0.54301  0.87457  1.0000
  H   H1515     1.0  0.64971  0.78184  0.95479  1.0000
  Fe  Fe96      1.0  0.98076  0.66059  0.91043  1.0000
  H   H1516     1.0  0.96397  0.52426  0.84370  1.0000
  H   H1517     1.0  0.95885  0.57813  0.83356  1.0000
  H   H1518     1.0  0.60653  0.51688  0.81590  1.0000
  C   C859      1.0  0.52466  0.96867  0.73754  1.0000
  H   H1519     1.0  0.96822  0.58748  0.86804  1.0000
  H   H1520     1.0  0.58385  0.79064  0.67396  1.0000
  H   H1521     1.0  0.50389  0.97316  0.73160  1.0000
  H   H1522     1.0  0.56616  0.71767  0.66328  1.0000
  H   H1523     1.0  0.53615  0.50091  0.83550  1.0000
  H   H1524     1.0  0.53329  0.52195  0.67923  1.0000
  H   H1525     1.0  0.56879  0.58232  0.65419  1.0000
  H   H1526     1.0  0.95889  0.56121  0.66617  1.0000
  H   H1527     1.0  0.52701  0.57609  0.65208  1.0000
  H   H1528     1.0  0.53794  0.73427  0.66187  1.0000
  C   C860      1.0  0.99194  0.52625  0.69522  1.0000
  H   H1529     1.0  0.55245  0.90236  0.97927  1.0000
  H   H1530     1.0  0.52877  0.97125  0.93147  1.0000
  H   H1531     1.0  0.49597  0.98612  0.77867  1.0000
  H   H1532     1.0  0.56690  0.50013  0.85729  1.0000
  H   H1533     1.0  0.94182  0.58656  0.65424  1.0000
  C   C861      1.0  0.55854  0.49774  0.83639  1.0000
  H   H1534     1.0  0.99209  0.54280  0.80346  1.0000
  H   H1535     1.0  0.58606  0.94533  0.98140  1.0000
  H   H1536     1.0  0.99238  0.49812  0.83807  1.0000
  C   C862      1.0  0.94690  0.56605  0.64886  1.0000
  C   C863      1.0  0.52881  0.99543  0.93042  1.0000
  C   C864      1.0  0.55404  0.59452  0.64882  1.0000
