data_image0
_chemical_formula_structural       H6CH5S2CHCH2CH3C2HCHCHCH4SCFeC3HC2H6CH3CHNCH2SHSHCH3C2HCH4C2HCH2CH2FeS2FeS2FeSFeS3CFeSFeSFeS2FeS2FeHFeS3FeS2FeS2FeSFeS4C2HC2H3C6H4C6H4C6H4C6H4C3H2C6H4C6H7CH2CHCH3C2HFeH2CH6CH2SH13CH3NC8H13CH4CHCHCHCHCH7CH5CHCH4NH3C2HCH3CHCHCH5CHCHCH3NHCH5CH3CHC2H9CH2CHCH2NC2HC3HCHC2H3C2SHCH8C3HCH7CHC2H2CH2CH4CH8CH6CHC2H5CHC2H2NH4CH3C2HCH2CH3SHFeS2FeS2FeSFeS3HFeSFeSFeS2FeS2FeHFeS3FeS2FeS2FeSFeS3HSH2C3HC7HCH2C6H4C6H4C7H3C3H2CHC4H4C6H4C2H7C2HNCHC5HC2H3CH2CH6CH10C3H22C2HSHC2H11CHCHCHC2H4CH13SHNCHC2H4CHSH4C2H8C2H5NCH2C3H4C2H2CH4CHC4HCHC2HC2H3CHCH2CH6N2CH4CH7CHCH3C2H3CHCH2FeH5C3NHCH4C3H2FeH3CH3CH7SH2CHC3FeS2FeNSFeSC2H3SHCFeSH2CH6C6H4C6H4C6H7CH2SH3C2SH3C3HCH4C2HC2H4CHCNH10SCHCH2C2H2CH3C2SH3CNHCHC2HCHNC2H2C4H2CFeH5CH4CH3C2SCH2C2HCH11SHFeCH4CH4C2H2C2HCNH2CH2SH2C2H6CHC3HFeS2CHSFeSHC2HS2FeSFeSCH4C2H2C6H4C6H4C6H2CHCSH2NHC4HC3HC2SH4CH22SH2C2H4FeH4CH7SC2H5C4FeHCHC2H2NH5CH3CH3CH2NH2CH2C3HSCH3CHC2H3C5H6CHCH4NHC2H2NSFeS2FeS2FeSFeS3H2FeSFeSHC2HC6H4C6H4C6H6C2SHCH3C3HCH5CH3NH3CHCHC2SH4C5H2NH2C3HCH4CH10CH3FeC2H5CH7NC12H25C2H2C2H2C4HNHSCHCH5SH3CH3CH3CFeH2C4FeH3CH2C2H2CH5C2H3CH4CSH3NCH3SFeS2FeS2FeSFeS3CHFeSCSH3C7H4C6H4C6H9CHCH2C2NCHC2HC2FeH2C2H2CSH4SCH6CH13NCHCH2CSCH5CH12CH3CHCH2C2H2CSCH2CH3CNHNHCHFeNC11H14CH9SH2C3FeH5C4HCH4CHCH2CHCH2CHFeH2CH10FeSHSFeS2FeS2FeSFeS3FeS2FeS2FeSFeS3FeS2CFeSFeSHSHSFeSFeHC6H4CHC4H4C6H4C6H4C6H5CH3C6H5CH11CH3C2S2C2H2CHCSC2H2CH3CH2CH2C2HC2HCH2CFeC3SH4NH3CH3CH2CH2CH2N2C2FeHC2H2C2H6CH3CH2C2H2CH3CHCH2CH6C2H6CHNCHC2HCH2C2HNCNC11H18SH6NC9H11CHCH2CH6CHC3H3CHC2HC2H16CH13CHCH6NCH6CH2CHCH2CHCHC2H6CHCHFeSH2FeS2FeS2FeSFeS3FeS2FeS2FeSFeS3FeS2HFeSFeSHCS2FeHFeSC6H5C4H4SC6H4C3HC2H4C6H4C2HCHC6H4C2H3NC6HC4H17CH2SNH5C3H10NHCHC2SC2H2C4H3C2H7CH7CH5CHCH2NHC6H6SCH2C2H4CH3NH8C2H2CH4CH2CH3C3HCHC2H7CH2SH3C2HCHCH8SH3CH7C2HSHCH5CNH2C2H2CH3C4HCH4CHCHCHCHSH2CHCH5CHNHC3HCHC2HFeSH2SH2C3H2CH2CHC2H4FeCH5CSH2C2HC2H2CH2CH3CH2CH3C2H2NH6CHCHSCH4FeSH2SHC4H2C2H4SH2CH4CH3CH2SC2HCH3CH3C2HC3H5CFeHCH3
_chemical_formula_sum              "H1536 C864 S192 Fe96 N48"
_cell_length_a       55.4612
_cell_length_b       55.4724
_cell_length_c       48.0893
_cell_angle_alpha    89.7819
_cell_angle_beta     89.9581
_cell_angle_gamma    120.146

_space_group_name_H-M_alt    "P 1"
_space_group_IT_number       1

loop_
  _space_group_symop_operation_xyz
  'x, y, z'

loop_
  _atom_site_type_symbol
  _atom_site_label
  _atom_site_symmetry_multiplicity
  _atom_site_fract_x
  _atom_site_fract_y
  _atom_site_fract_z
  _atom_site_occupancy
  H   H1        1.0  0.44168  0.12757  0.06084  1.0000
  H   H2        1.0  0.44246  0.27041  0.45366  1.0000
  H   H3        1.0  0.45076  0.16359  0.05861  1.0000
  H   H4        1.0  0.46992  0.31172  0.18735  1.0000
  H   H5        1.0  0.47020  0.07938  0.39352  1.0000
  H   H6        1.0  0.45644  0.20381  0.02140  1.0000
  C   C1        1.0  0.47797  0.27135  0.47426  1.0000
  H   H7        1.0  0.48685  0.27563  0.42999  1.0000
  H   H8        1.0  0.46417  0.05558  0.36553  1.0000
  H   H9        1.0  0.48963  0.18843  0.10377  1.0000
  H   H10       1.0  0.48060  0.00676  0.05250  1.0000
  H   H11       1.0  0.48934  0.00315  0.11397  1.0000
  S   S1        1.0  0.45167  0.03394  0.00330  1.0000
  S   S2        1.0  0.47873  0.09998  0.45837  1.0000
  C   C2        1.0  0.48407  0.15679  0.07352  1.0000
  H   H12       1.0  0.44413  0.14646  0.09216  1.0000
  C   C3        1.0  0.45329  0.14818  0.07119  1.0000
  H   H13       1.0  0.48466  0.02037  0.14306  1.0000
  H   H14       1.0  0.46653  0.01270  0.37512  1.0000
  C   C4        1.0  0.47184  0.01712  0.39756  1.0000
  H   H15       1.0  0.47473  0.17355  0.00474  1.0000
  H   H16       1.0  0.46757  0.24827  0.47373  1.0000
  H   H17       1.0  0.48135  0.05200  0.42553  1.0000
  C   C5        1.0  0.44278  0.00057  0.98979  1.0000
  C   C6        1.0  0.46314  0.05729  0.38845  1.0000
  H   H18       1.0  0.48685  0.30813  0.15691  1.0000
  C   C7        1.0  0.45488  0.27872  0.47296  1.0000
  H   H19       1.0  0.44123  0.04425  0.39565  1.0000
  C   C8        1.0  0.47873  0.21220  0.01994  1.0000
  H   H20       1.0  0.42610  0.00993  0.45440  1.0000
  C   C9        1.0  0.48821  0.32282  0.17330  1.0000
  H   H21       1.0  0.46860  0.03055  0.09831  1.0000
  H   H22       1.0  0.48538  0.14068  0.08591  1.0000
  H   H23       1.0  0.46376  0.30166  0.47361  1.0000
  H   H24       1.0  0.45162  0.00588  0.40895  1.0000
  S   S3        1.0  0.48273  0.26104  0.03932  1.0000
  C   C10       1.0  0.48199  0.04840  0.40289  1.0000
  Fe  Fe1       1.0  0.48698  0.07249  0.48693  1.0000
  C   C11       1.0  0.44415  0.99406  0.48361  1.0000
  C   C12       1.0  0.48905  0.19494  0.01046  1.0000
  C   C13       1.0  0.48030  0.23121  0.53192  1.0000
  H   H25       1.0  0.47198  0.28636  0.95010  1.0000
  C   C14       1.0  0.47224  0.01820  0.59360  1.0000
  C   C15       1.0  0.44297  0.03463  0.92317  1.0000
  H   H26       1.0  0.48026  0.01687  0.84175  1.0000
  H   H27       1.0  0.43634  0.02404  0.59304  1.0000
  H   H28       1.0  0.47868  0.02875  0.61406  1.0000
  H   H29       1.0  0.43602  0.03848  0.87918  1.0000
  H   H30       1.0  0.48145  0.01410  0.96818  1.0000
  H   H31       1.0  0.45337  0.02477  0.83823  1.0000
  C   C16       1.0  0.47044  0.20395  0.52163  1.0000
  H   H32       1.0  0.43792  0.10941  0.58070  1.0000
  H   H33       1.0  0.44747  0.07595  0.92724  1.0000
  H   H34       1.0  0.44845  0.19073  0.51733  1.0000
  C   C17       1.0  0.45420  0.02824  0.57939  1.0000
  H   H35       1.0  0.47787  0.00958  0.91745  1.0000
  N   N1        1.0  0.46308  0.02079  0.88100  1.0000
  C   C18       1.0  0.45977  0.11639  0.57455  1.0000
  H   H36       1.0  0.46199  0.12143  0.55201  1.0000
  H   H37       1.0  0.46652  0.05101  0.57512  1.0000
  S   S4        1.0  0.47501  0.15878  0.50428  1.0000
  H   H38       1.0  0.46055  0.03905  0.93727  1.0000
  S   S5        1.0  0.46709  0.02647  0.49986  1.0000
  H   H39       1.0  0.46385  0.09899  0.57831  1.0000
  C   C19       1.0  0.45308  0.03966  0.89242  1.0000
  H   H40       1.0  0.45907  0.99546  0.59726  1.0000
  H   H41       1.0  0.44583  0.01705  0.55945  1.0000
  H   H42       1.0  0.42585  0.01308  0.92712  1.0000
  C   C20       1.0  0.47975  0.14201  0.59144  1.0000
  C   C21       1.0  0.47185  0.02934  0.85116  1.0000
  H   H43       1.0  0.46591  0.23868  0.53548  1.0000
  C   C22       1.0  0.43174  0.05378  0.93128  1.0000
  H   H44       1.0  0.48339  0.07326  0.84670  1.0000
  H   H45       1.0  0.48879  0.27876  0.49449  1.0000
  H   H46       1.0  0.47440  0.15845  0.58704  1.0000
  H   H47       1.0  0.47564  0.13587  0.61362  1.0000
  C   C23       1.0  0.46092  0.99666  0.97263  1.0000
  C   C24       1.0  0.48866  0.19356  0.51697  1.0000
  H   H48       1.0  0.47015  0.06182  0.89177  1.0000
  C   C25       1.0  0.48560  0.29563  0.96851  1.0000
  H   H49       1.0  0.42653  0.05125  0.95382  1.0000
  H   H50       1.0  0.41252  0.04835  0.91939  1.0000
  C   C26       1.0  0.48655  0.02332  0.89897  1.0000
  H   H51       1.0  0.47246  0.28766  0.98752  1.0000
  H   H52       1.0  0.44072  0.26937  0.49113  1.0000
  Fe  Fe2       1.0  0.13575  0.57848  0.36347  1.0000
  S   S6        1.0  0.13024  0.61448  0.37604  1.0000
  S   S7        1.0  0.13040  0.57094  0.31644  1.0000
  Fe  Fe3       1.0  0.14082  0.56595  0.42460  1.0000
  S   S8        1.0  0.13565  0.60120  0.44049  1.0000
  S   S9        1.0  0.14458  0.53505  0.45288  1.0000
  Fe  Fe4       1.0  0.10081  0.58591  0.40893  1.0000
  S   S10       1.0  0.05883  0.58243  0.41970  1.0000
  Fe  Fe5       1.0  0.16583  0.62651  0.40617  1.0000
  S   S11       1.0  0.10445  0.54939  0.39499  1.0000
  S   S12       1.0  0.17274  0.59180  0.39174  1.0000
  S   S13       1.0  0.44216  0.58690  0.31270  1.0000
  C   C27       1.0  0.19096  0.52996  0.99785  1.0000
  Fe  Fe6       1.0  0.45107  0.56669  0.27687  1.0000
  S   S14       1.0  0.41732  0.53704  0.24757  1.0000
  Fe  Fe7       1.0  0.46842  0.57514  0.33861  1.0000
  S   S15       1.0  0.46172  0.55298  0.38054  1.0000
  Fe  Fe8       1.0  0.37816  0.44782  0.07296  1.0000
  S   S16       1.0  0.41878  0.48427  0.05975  1.0000
  S   S17       1.0  0.37569  0.40578  0.07974  1.0000
  Fe  Fe9       1.0  0.34793  0.48241  0.07232  1.0000
  S   S18       1.0  0.38760  0.52076  0.05765  1.0000
  S   S19       1.0  0.31409  0.49352  0.08398  1.0000
  Fe  Fe10      1.0  0.39368  0.49258  0.02832  1.0000
  H   H53       1.0  0.29283  0.41256  0.16972  1.0000
  Fe  Fe11      1.0  0.40878  0.50865  0.09008  1.0000
  S   S20       1.0  0.44216  0.54080  0.11838  1.0000
  S   S21       1.0  0.35268  0.45484  0.04057  1.0000
  S   S22       1.0  0.36951  0.47159  0.10577  1.0000
  Fe  Fe12      1.0  0.16467  0.50972  0.18337  1.0000
  S   S23       1.0  0.14067  0.46332  0.17662  1.0000
  S   S24       1.0  0.18205  0.52462  0.22692  1.0000
  Fe  Fe13      1.0  0.15817  0.52095  0.12183  1.0000
  S   S25       1.0  0.13342  0.47552  0.11182  1.0000
  S   S26       1.0  0.16858  0.55414  0.08892  1.0000
  Fe  Fe14      1.0  0.11045  0.47105  0.15204  1.0000
  S   S27       1.0  0.06455  0.45798  0.15981  1.0000
  Fe  Fe15      1.0  0.16633  0.47271  0.13713  1.0000
  S   S28       1.0  0.18713  0.44836  0.12163  1.0000
  S   S29       1.0  0.13391  0.51723  0.16055  1.0000
  S   S30       1.0  0.19191  0.51846  0.14544  1.0000
  S   S31       1.0  0.48119  0.38839  0.07318  1.0000
  C   C28       1.0  0.99480  0.38104  0.15055  1.0000
  C   C29       1.0  0.24132  0.55220  0.07876  1.0000
  H   H54       1.0  0.23111  0.58356  0.09221  1.0000
  C   C30       1.0  0.02964  0.42980  0.15788  1.0000
  C   C31       1.0  0.02299  0.40251  0.15181  1.0000
  H   H55       1.0  0.27158  0.53872  0.00081  1.0000
  H   H56       1.0  0.03950  0.39786  0.14828  1.0000
  H   H57       1.0  0.14900  0.57454  0.99488  1.0000
  C   C32       1.0  0.40515  0.40123  0.07672  1.0000
  C   C33       1.0  0.43236  0.42359  0.07974  1.0000
  C   C34       1.0  0.45522  0.41915  0.07822  1.0000
  C   C35       1.0  0.45129  0.39233  0.07392  1.0000
  C   C36       1.0  0.42414  0.36995  0.07069  1.0000
  C   C37       1.0  0.40121  0.37440  0.07219  1.0000
  H   H58       1.0  0.43577  0.44428  0.08338  1.0000
  H   H59       1.0  0.99092  0.49724  0.36984  1.0000
  H   H60       1.0  0.42074  0.34921  0.06732  1.0000
  H   H61       1.0  0.38025  0.35694  0.06995  1.0000
  C   C38       1.0  0.27868  0.48012  0.09465  1.0000
  C   C39       1.0  0.27033  0.49899  0.10369  1.0000
  C   C40       1.0  0.24259  0.48968  0.11213  1.0000
  C   C41       1.0  0.22262  0.46126  0.11156  1.0000
  C   C42       1.0  0.23101  0.44237  0.10277  1.0000
  C   C43       1.0  0.25882  0.45167  0.09444  1.0000
  H   H62       1.0  0.28548  0.52103  0.10418  1.0000
  H   H63       1.0  0.23668  0.50448  0.11912  1.0000
  H   H64       1.0  0.21584  0.42032  0.10229  1.0000
  H   H65       1.0  0.26479  0.43683  0.08764  1.0000
  C   C44       1.0  0.42469  0.53852  0.21178  1.0000
  C   C45       1.0  0.40633  0.51649  0.19473  1.0000
  C   C46       1.0  0.41133  0.51718  0.16605  1.0000
  C   C47       1.0  0.43494  0.53970  0.15420  1.0000
  C   C48       1.0  0.45358  0.56156  0.17131  1.0000
  C   C49       1.0  0.44834  0.56112  0.19998  1.0000
  H   H66       1.0  0.38830  0.49866  0.20375  1.0000
  H   H67       1.0  0.39709  0.50006  0.15324  1.0000
  H   H68       1.0  0.32600  0.47876  0.23712  1.0000
  H   H69       1.0  0.00951  0.42473  0.03233  1.0000
  C   C50       1.0  0.44023  0.54975  0.40943  1.0000
  C   C51       1.0  0.44135  0.53570  0.43338  1.0000
  C   C52       1.0  0.42594  0.53382  0.45744  1.0000
  C   C53       1.0  0.40918  0.54603  0.45785  1.0000
  C   C54       1.0  0.40800  0.56007  0.43387  1.0000
  C   C55       1.0  0.42337  0.56187  0.40974  1.0000
  H   H70       1.0  0.44499  0.35972  0.17188  1.0000
  H   H71       1.0  0.04390  0.48636  0.01388  1.0000
  H   H72       1.0  0.39512  0.56961  0.43399  1.0000
  H   H73       1.0  0.42231  0.57279  0.39151  1.0000
  C   C56       1.0  0.02517  0.55717  0.40737  1.0000
  C   C57       1.0  0.02090  0.53428  0.39149  1.0000
  C   C58       1.0  0.00197  0.56001  0.41403  1.0000
  H   H74       1.0  0.03846  0.53172  0.38628  1.0000
  H   H75       1.0  0.00502  0.57769  0.42621  1.0000
  C   C59       1.0  0.24940  0.58046  0.09148  1.0000
  C   C60       1.0  0.14459  0.55839  0.01007  1.0000
  C   C61       1.0  0.15739  0.56546  0.03637  1.0000
  C   C62       1.0  0.15189  0.54469  0.05623  1.0000
  C   C63       1.0  0.13355  0.51681  0.04953  1.0000
  C   C64       1.0  0.12089  0.50972  0.02328  1.0000
  H   H76       1.0  0.12709  0.56743  0.25725  1.0000
  H   H77       1.0  0.17161  0.58710  0.04131  1.0000
  H   H78       1.0  0.12928  0.50067  0.06442  1.0000
  H   H79       1.0  0.14752  0.47495  0.26889  1.0000
  C   C65       1.0  0.14544  0.55817  0.29221  1.0000
  C   C66       1.0  0.16208  0.54704  0.30033  1.0000
  C   C67       1.0  0.17330  0.53703  0.28010  1.0000
  C   C68       1.0  0.16760  0.53755  0.25165  1.0000
  C   C69       1.0  0.15099  0.54869  0.24358  1.0000
  C   C70       1.0  0.14001  0.55895  0.26376  1.0000
  H   H80       1.0  0.16616  0.54596  0.32215  1.0000
  H   H81       1.0  0.18625  0.52857  0.28655  1.0000
  H   H82       1.0  0.14668  0.54949  0.22177  1.0000
  H   H83       1.0  0.12152  0.47727  0.22751  1.0000
  H   H84       1.0  0.43225  0.64573  0.16859  1.0000
  H   H85       1.0  0.40400  0.39416  0.15306  1.0000
  H   H86       1.0  0.47966  0.35925  0.20032  1.0000
  C   C71       1.0  0.43350  0.61122  0.13195  1.0000
  H   H87       1.0  0.44076  0.62668  0.11469  1.0000
  H   H88       1.0  0.23475  0.54465  0.99472  1.0000
  C   C72       1.0  0.44174  0.43749  0.00838  1.0000
  H   H89       1.0  0.07908  0.52668  0.47485  1.0000
  C   C73       1.0  0.45331  0.64147  0.21957  1.0000
  H   H90       1.0  0.43006  0.47982  0.27612  1.0000
  H   H91       1.0  0.01453  0.52402  0.47385  1.0000
  H   H92       1.0  0.14801  0.63207  0.29762  1.0000
  C   C74       1.0  0.27273  0.53676  0.02369  1.0000
  C   C75       1.0  0.21626  0.52609  0.00383  1.0000
  H   H93       1.0  0.43350  0.59230  0.12442  1.0000
  Fe  Fe16      1.0  0.48236  0.62576  0.30023  1.0000
  H   H94       1.0  0.48550  0.45966  0.39517  1.0000
  H   H95       1.0  0.45976  0.62553  0.22214  1.0000
  C   C76       1.0  0.99389  0.51475  0.38221  1.0000
  H   H96       1.0  0.26492  0.64206  0.39199  1.0000
  H   H97       1.0  0.25685  0.58134  0.11308  1.0000
  H   H98       1.0  0.17976  0.50689  0.05054  1.0000
  H   H99       1.0  0.13642  0.65699  0.26131  1.0000
  H   H100      1.0  0.40114  0.36084  0.15995  1.0000
  H   H101      1.0  0.08704  0.45048  0.28083  1.0000
  C   C77       1.0  0.45866  0.38017  0.16143  1.0000
  H   H102      1.0  0.31442  0.54294  0.01876  1.0000
  H   H103      1.0  0.07416  0.48261  0.10471  1.0000
  S   S32       1.0  0.39036  0.54531  0.48810  1.0000
  H   H104      1.0  0.24634  0.50951  0.05714  1.0000
  H   H105      1.0  0.17121  0.51156  0.00483  1.0000
  H   H106      1.0  0.21681  0.64313  0.35202  1.0000
  H   H107      1.0  0.47640  0.39849  0.21380  1.0000
  H   H108      1.0  0.21825  0.64982  0.02743  1.0000
  H   H109      1.0  0.26634  0.59762  0.07921  1.0000
  H   H110      1.0  0.38591  0.59655  0.24466  1.0000
  H   H111      1.0  0.47037  0.48724  0.36600  1.0000
  H   H112      1.0  0.41721  0.37954  0.12821  1.0000
  H   H113      1.0  0.41346  0.60946  0.20149  1.0000
  H   H114      1.0  0.43941  0.48511  0.22586  1.0000
  H   H115      1.0  0.46588  0.59777  0.44643  1.0000
  H   H116      1.0  0.01268  0.45640  0.16688  1.0000
  C   C78       1.0  0.18136  0.47115  0.03404  1.0000
  H   H117      1.0  0.48769  0.41420  0.37085  1.0000
  H   H118      1.0  0.10918  0.48625  0.27326  1.0000
  H   H119      1.0  0.35800  0.51386  0.26981  1.0000
  N   N2        1.0  0.30343  0.49234  0.18697  1.0000
  C   C79       1.0  0.30659  0.46694  0.18399  1.0000
  C   C80       1.0  0.31129  0.50423  0.21610  1.0000
  C   C81       1.0  0.27298  0.48302  0.18263  1.0000
  C   C82       1.0  0.32016  0.51436  0.16544  1.0000
  C   C83       1.0  0.29967  0.45281  0.15500  1.0000
  C   C84       1.0  0.26482  0.50588  0.18636  1.0000
  C   C85       1.0  0.30572  0.42881  0.15411  1.0000
  C   C86       1.0  0.23322  0.49304  0.18881  1.0000
  H   H120      1.0  0.29318  0.45084  0.19963  1.0000
  H   H121      1.0  0.32817  0.47191  0.18869  1.0000
  H   H122      1.0  0.31799  0.52683  0.21598  1.0000
  H   H123      1.0  0.29280  0.49422  0.23022  1.0000
  H   H124      1.0  0.25980  0.46532  0.19694  1.0000
  H   H125      1.0  0.26617  0.47483  0.16126  1.0000
  H   H126      1.0  0.31148  0.50698  0.14434  1.0000
  H   H127      1.0  0.31827  0.53318  0.16874  1.0000
  H   H128      1.0  0.27732  0.44397  0.14986  1.0000
  H   H129      1.0  0.31251  0.46780  0.13850  1.0000
  H   H130      1.0  0.27197  0.52011  0.16805  1.0000
  H   H131      1.0  0.27413  0.51860  0.20522  1.0000
  H   H132      1.0  0.32815  0.43652  0.15815  1.0000
  C   C87       1.0  0.03928  0.46438  0.01368  1.0000
  H   H133      1.0  0.19330  0.54868  0.00852  1.0000
  H   H134      1.0  0.22258  0.48027  0.17027  1.0000
  H   H135      1.0  0.22521  0.47970  0.20769  1.0000
  H   H136      1.0  0.22794  0.50983  0.19050  1.0000
  C   C88       1.0  0.23026  0.54993  0.04869  1.0000
  H   H137      1.0  0.09192  0.42167  0.06851  1.0000
  C   C89       1.0  0.45848  0.47527  0.17119  1.0000
  H   H138      1.0  0.05096  0.48317  0.33299  1.0000
  C   C90       1.0  0.07249  0.41883  0.07821  1.0000
  H   H139      1.0  0.14586  0.45252  0.24117  1.0000
  C   C91       1.0  0.29453  0.52824  0.02934  1.0000
  H   H140      1.0  0.48239  0.40684  0.32037  1.0000
  C   C92       1.0  0.33410  0.50101  0.23158  1.0000
  H   H141      1.0  0.05605  0.39657  0.07628  1.0000
  H   H142      1.0  0.45434  0.52627  0.43340  1.0000
  H   H143      1.0  0.18433  0.62154  0.31126  1.0000
  H   H144      1.0  0.19723  0.51712  0.47745  1.0000
  H   H145      1.0  0.04637  0.48827  0.11582  1.0000
  H   H146      1.0  0.21239  0.55372  0.05015  1.0000
  H   H147      1.0  0.48904  0.54874  0.21518  1.0000
  C   C93       1.0  0.09383  0.46607  0.26365  1.0000
  H   H148      1.0  0.46079  0.63206  0.36398  1.0000
  H   H149      1.0  0.45669  0.51114  0.18703  1.0000
  H   H150      1.0  0.19477  0.46165  0.03592  1.0000
  H   H151      1.0  0.02737  0.41269  0.27070  1.0000
  H   H152      1.0  0.47934  0.60730  0.39720  1.0000
  C   C94       1.0  0.48396  0.43146  0.00092  1.0000
  H   H153      1.0  0.17714  0.47236  0.01173  1.0000
  C   C95       1.0  0.13326  0.45597  0.25693  1.0000
  H   H154      1.0  0.38847  0.55164  0.14015  1.0000
  H   H155      1.0  0.41212  0.63857  0.21569  1.0000
  H   H156      1.0  0.20608  0.56538  0.46601  1.0000
  H   H157      1.0  0.09057  0.48886  0.21418  1.0000
  N   N3        1.0  0.22144  0.52273  0.03402  1.0000
  H   H158      1.0  0.05691  0.41071  0.25800  1.0000
  H   H159      1.0  0.09753  0.44037  0.23051  1.0000
  H   H160      1.0  0.09953  0.53069  0.08489  1.0000
  C   C96       1.0  0.34271  0.51768  0.25859  1.0000
  C   C97       1.0  0.42098  0.62482  0.21865  1.0000
  H   H161      1.0  0.19839  0.59346  0.33774  1.0000
  C   C98       1.0  0.21870  0.53538  0.47832  1.0000
  H   H162      1.0  0.42969  0.41830  0.02106  1.0000
  H   H163      1.0  0.35307  0.50820  0.21882  1.0000
  H   H164      1.0  0.46876  0.34032  0.14838  1.0000
  C   C99       1.0  0.35173  0.52466  0.16449  1.0000
  H   H165      1.0  0.41535  0.62281  0.26374  1.0000
  C   C100      1.0  0.44301  0.39665  0.16500  1.0000
  H   H166      1.0  0.21245  0.54833  0.43755  1.0000
  C   C101      1.0  0.15346  0.45131  0.04792  1.0000
  H   H167      1.0  0.99506  0.46349  0.07782  1.0000
  H   H168      1.0  0.01152  0.52279  0.32510  1.0000
  H   H169      1.0  0.99786  0.49842  0.27953  1.0000
  H   H170      1.0  0.45812  0.37518  0.13888  1.0000
  H   H171      1.0  0.46609  0.49153  0.28345  1.0000
  C   C102      1.0  0.22051  0.60959  0.33423  1.0000
  H   H172      1.0  0.11999  0.62014  0.25459  1.0000
  C   C103      1.0  0.06352  0.43765  0.06373  1.0000
  H   H173      1.0  0.42664  0.44196  0.99765  1.0000
  C   C104      1.0  0.20565  0.63955  0.30769  1.0000
  H   H174      1.0  0.23735  0.49537  0.02359  1.0000
  H   H175      1.0  0.03081  0.44236  0.22994  1.0000
  H   H176      1.0  0.13894  0.45954  0.04603  1.0000
  N   N4        1.0  0.02702  0.45370  0.06677  1.0000
  H   H177      1.0  0.22799  0.60449  0.31491  1.0000
  C   C105      1.0  0.40903  0.60844  0.24569  1.0000
  H   H178      1.0  0.08111  0.45935  0.06499  1.0000
  H   H179      1.0  0.35281  0.54037  0.25409  1.0000
  H   H180      1.0  0.05905  0.46444  0.01658  1.0000
  H   H181      1.0  0.04016  0.43687  0.10026  1.0000
  H   H182      1.0  0.07166  0.53628  0.09645  1.0000
  C   C106      1.0  0.24377  0.51484  0.03547  1.0000
  H   H183      1.0  0.15653  0.44845  0.07026  1.0000
  H   H184      1.0  0.99979  0.45067  0.03266  1.0000
  H   H185      1.0  0.20025  0.49668  0.06976  1.0000
  C   C107      1.0  0.04907  0.48406  0.07010  1.0000
  H   H186      1.0  0.24146  0.57530  0.45657  1.0000
  C   C108      1.0  0.12621  0.53045  0.00352  1.0000
  C   C109      1.0  0.01766  0.44724  0.03670  1.0000
  H   H187      1.0  0.04039  0.49757  0.06390  1.0000
  H   H188      1.0  0.14387  0.43062  0.03771  1.0000
  H   H189      1.0  0.47197  0.57900  0.16229  1.0000
  H   H190      1.0  0.32437  0.51129  0.27237  1.0000
  H   H191      1.0  0.09232  0.53019  0.12140  1.0000
  H   H192      1.0  0.28748  0.50687  0.02158  1.0000
  H   H193      1.0  0.41185  0.60538  0.13774  1.0000
  H   H194      1.0  0.30065  0.41920  0.13313  1.0000
  H   H195      1.0  0.45496  0.41795  0.15623  1.0000
  C   C110      1.0  0.03686  0.43450  0.07739  1.0000
  H   H196      1.0  0.26010  0.54998  0.07927  1.0000
  H   H197      1.0  0.41649  0.59343  0.24901  1.0000
  C   C111      1.0  0.47291  0.50633  0.18006  1.0000
  H   H198      1.0  0.45487  0.45526  0.02228  1.0000
  C   C112      1.0  0.36583  0.54440  0.13996  1.0000
  H   H199      1.0  0.00169  0.39079  0.22663  1.0000
  H   H200      1.0  0.29864  0.52895  0.05197  1.0000
  N   N5        1.0  0.06938  0.46773  0.25212  1.0000
  C   C113      1.0  0.05377  0.47102  0.27616  1.0000
  C   C114      1.0  0.04979  0.44175  0.23626  1.0000
  H   H201      1.0  0.46898  0.50023  0.99539  1.0000
  C   C115      1.0  0.08025  0.49221  0.23244  1.0000
  C   C116      1.0  0.05831  0.49893  0.22047  1.0000
  C   C117      1.0  0.06942  0.49907  0.29217  1.0000
  H   H202      1.0  0.35726  0.53352  0.11998  1.0000
  C   C118      1.0  0.03933  0.41370  0.25179  1.0000
  H   H203      1.0  0.12362  0.43771  0.27120  1.0000
  C   C119      1.0  0.07219  0.52466  0.20163  1.0000
  C   C120      1.0  0.05274  0.49893  0.31754  1.0000
  H   H204      1.0  0.04837  0.45419  0.29178  1.0000
  H   H205      1.0  0.03340  0.46822  0.26916  1.0000
  H   H206      1.0  0.23295  0.60903  0.35204  1.0000
  C   C121      1.0  0.15885  0.63695  0.27721  1.0000
  C   C122      1.0  0.19550  0.50019  0.04813  1.0000
  S   S33       1.0  0.47343  0.55120  0.30365  1.0000
  H   H207      1.0  0.09674  0.51122  0.24261  1.0000
  C   C123      1.0  0.08262  0.52449  0.10047  1.0000
  H   H208      1.0  0.04717  0.50313  0.23719  1.0000
  H   H209      1.0  0.04275  0.48142  0.20771  1.0000
  H   H210      1.0  0.08995  0.50313  0.29986  1.0000
  H   H211      1.0  0.07296  0.51688  0.27875  1.0000
  H   H212      1.0  0.36199  0.53640  0.18363  1.0000
  H   H213      1.0  0.35564  0.50709  0.16203  1.0000
  H   H214      1.0  0.41706  0.46877  0.16260  1.0000
  H   H215      1.0  0.15029  0.64415  0.23468  1.0000
  C   C124      1.0  0.11083  0.45967  0.24237  1.0000
  C   C125      1.0  0.44921  0.48064  0.26792  1.0000
  C   C126      1.0  0.00784  0.43535  0.16244  1.0000
  H   H216      1.0  0.08248  0.52089  0.18367  1.0000
  C   C127      1.0  0.00143  0.52905  0.30896  1.0000
  H   H217      1.0  0.08797  0.54308  0.21336  1.0000
  H   H218      1.0  0.47576  0.41848  0.02013  1.0000
  H   H219      1.0  0.06364  0.51975  0.32762  1.0000
  H   H220      1.0  0.03158  0.49426  0.31139  1.0000
  H   H221      1.0  0.10740  0.48806  0.01807  1.0000
  H   H222      1.0  0.16097  0.61878  0.27118  1.0000
  H   H223      1.0  0.06706  0.49000  0.05600  1.0000
  C   C128      1.0  0.02009  0.38923  0.23314  1.0000
  H   H224      1.0  0.07655  0.42412  0.10064  1.0000
  C   C129      1.0  0.43416  0.46795  0.15146  1.0000
  C   C130      1.0  0.06220  0.49311  0.09942  1.0000
  H   H225      1.0  0.01806  0.54674  0.29694  1.0000
  H   H226      1.0  0.43909  0.39830  0.18739  1.0000
  C   C131      1.0  0.00198  0.44852  0.08395  1.0000
  H   H227      1.0  0.36295  0.56277  0.14125  1.0000
  H   H228      1.0  0.22511  0.53594  0.09229  1.0000
  C   C132      1.0  0.00390  0.53478  0.48253  1.0000
  H   H229      1.0  0.46254  0.57826  0.21287  1.0000
  H   H230      1.0  0.23335  0.52894  0.47029  1.0000
  H   H231      1.0  0.05949  0.44075  0.21636  1.0000
  H   H232      1.0  0.05621  0.52928  0.19347  1.0000
  C   C133      1.0  0.22350  0.63847  0.33196  1.0000
  H   H233      1.0  0.05952  0.43122  0.04164  1.0000
  H   H234      1.0  0.03144  0.38885  0.21423  1.0000
  H   H235      1.0  0.44544  0.60694  0.17349  1.0000
  H   H236      1.0  0.02047  0.41233  0.07444  1.0000
  H   H237      1.0  0.01260  0.36928  0.24459  1.0000
  H   H238      1.0  0.45881  0.63290  0.41582  1.0000
  H   H239      1.0  0.28045  0.55757  0.03308  1.0000
  H   H240      1.0  0.24635  0.56790  0.03644  1.0000
  C   C134      1.0  0.45284  0.62309  0.15699  1.0000
  H   H241      1.0  0.15546  0.58331  0.48578  1.0000
  H   H242      1.0  0.44974  0.33487  0.99980  1.0000
  H   H243      1.0  0.21390  0.50816  0.99134  1.0000
  H   H244      1.0  0.47880  0.63256  0.45755  1.0000
  H   H245      1.0  0.44095  0.48257  0.13345  1.0000
  H   H246      1.0  0.42584  0.44651  0.14332  1.0000
  C   C135      1.0  0.45397  0.64992  0.16784  1.0000
  H   H247      1.0  0.42710  0.52300  0.47572  1.0000
  C   C136      1.0  0.41462  0.38183  0.15070  1.0000
  C   C137      1.0  0.14790  0.54141  0.48902  1.0000
  H   H248      1.0  0.21325  0.63489  0.28807  1.0000
  H   H249      1.0  0.45016  0.46100  0.18933  1.0000
  H   H250      1.0  0.00732  0.45236  0.10634  1.0000
  H   H251      1.0  0.48145  0.51864  0.16059  1.0000
  H   H252      1.0  0.45944  0.65348  0.23933  1.0000
  C   C138      1.0  0.21980  0.55752  0.45848  1.0000
  H   H253      1.0  0.06484  0.54856  0.48380  1.0000
  C   C139      1.0  0.14035  0.63988  0.25556  1.0000
  C   C140      1.0  0.47927  0.64531  0.40515  1.0000
  H   H254      1.0  0.47612  0.43670  0.08039  1.0000
  H   H255      1.0  0.48685  0.38476  0.00903  1.0000
  N   N6        1.0  0.48824  0.39338  0.17244  1.0000
  H   H256      1.0  0.01231  0.55517  0.47169  1.0000
  H   H257      1.0  0.47345  0.47108  0.15992  1.0000
  H   H258      1.0  0.44496  0.45899  0.26520  1.0000
  H   H259      1.0  0.48576  0.41041  0.46481  1.0000
  C   C141      1.0  0.47343  0.65168  0.37576  1.0000
  H   H260      1.0  0.17679  0.65007  0.34029  1.0000
  H   H261      1.0  0.47382  0.62764  0.15001  1.0000
  H   H262      1.0  0.48024  0.47676  0.22534  1.0000
  C   C142      1.0  0.45729  0.49637  0.24021  1.0000
  C   C143      1.0  0.48507  0.61670  0.45369  1.0000
  H   H263      1.0  0.46017  0.51733  0.24410  1.0000
  C   C144      1.0  0.48862  0.34804  0.15984  1.0000
  H   H264      1.0  0.48944  0.42926  0.12723  1.0000
  H   H265      1.0  0.48734  0.42812  0.19216  1.0000
  C   C145      1.0  0.48423  0.49836  0.22816  1.0000
  H   H266      1.0  0.48680  0.44249  0.35330  1.0000
  H   H267      1.0  0.24599  0.65342  0.32866  1.0000
  H   H268      1.0  0.48655  0.51293  0.39317  1.0000
  S   S34       1.0  0.48974  0.60540  0.26317  1.0000
  H   H269      1.0  0.44258  0.37476  0.98967  1.0000
  Fe  Fe17      1.0  0.14433  0.56830  0.87717  1.0000
  S   S35       1.0  0.14513  0.60913  0.87860  1.0000
  S   S36       1.0  0.16268  0.55398  0.84290  1.0000
  Fe  Fe18      1.0  0.12418  0.55451  0.93805  1.0000
  S   S37       1.0  0.12403  0.59450  0.94373  1.0000
  S   S38       1.0  0.10972  0.52063  0.97086  1.0000
  Fe  Fe19      1.0  0.10367  0.58427  0.90132  1.0000
  S   S39       1.0  0.06534  0.58819  0.89230  1.0000
  Fe  Fe20      1.0  0.16550  0.61564  0.92088  1.0000
  S   S40       1.0  0.10192  0.54330  0.89699  1.0000
  S   S41       1.0  0.16625  0.57547  0.91811  1.0000
  S   S42       1.0  0.43787  0.58325  0.79741  1.0000
  H   H270      1.0  0.45320  0.41315  0.67072  1.0000
  Fe  Fe21      1.0  0.45325  0.55644  0.77904  1.0000
  S   S43       1.0  0.42883  0.52252  0.74760  1.0000
  Fe  Fe22      1.0  0.45273  0.57650  0.83860  1.0000
  S   S44       1.0  0.42897  0.57392  0.87846  1.0000
  Fe  Fe23      1.0  0.39664  0.47750  0.55837  1.0000
  S   S45       1.0  0.42248  0.52405  0.55199  1.0000
  S   S46       1.0  0.42740  0.46140  0.55251  1.0000
  Fe  Fe24      1.0  0.34423  0.48269  0.57175  1.0000
  S   S47       1.0  0.36778  0.52904  0.56608  1.0000
  S   S48       1.0  0.29761  0.46029  0.58362  1.0000
  Fe  Fe25      1.0  0.38655  0.52096  0.52799  1.0000
  H   H271      1.0  0.28327  0.46214  0.71130  1.0000
  Fe  Fe26      1.0  0.40151  0.52741  0.59039  1.0000
  S   S49       1.0  0.42688  0.55960  0.62311  1.0000
  S   S50       1.0  0.36115  0.47426  0.53206  1.0000
  S   S51       1.0  0.37735  0.48136  0.59836  1.0000
  Fe  Fe27      1.0  0.13961  0.51288  0.67839  1.0000
  S   S52       1.0  0.13883  0.47198  0.67352  1.0000
  S   S53       1.0  0.12832  0.53180  0.71503  1.0000
  Fe  Fe28      1.0  0.14691  0.52398  0.61491  1.0000
  S   S54       1.0  0.14561  0.48386  0.60583  1.0000
  S   S55       1.0  0.15424  0.55707  0.58296  1.0000
  Fe  Fe29      1.0  0.11005  0.46504  0.63708  1.0000
  S   S56       1.0  0.06859  0.42536  0.62735  1.0000
  Fe  Fe30      1.0  0.17462  0.49447  0.64238  1.0000
  S   S57       1.0  0.21979  0.50242  0.63901  1.0000
  S   S58       1.0  0.10971  0.50468  0.64320  1.0000
  S   S59       1.0  0.17682  0.53570  0.65031  1.0000
  H   H272      1.0  0.22177  0.46032  0.68013  1.0000
  S   S60       1.0  0.44279  0.35430  0.56181  1.0000
  H   H273      1.0  0.25895  0.64663  0.81386  1.0000
  H   H274      1.0  0.26182  0.50736  0.55629  1.0000
  C   C146      1.0  0.03428  0.41960  0.63336  1.0000
  C   C147      1.0  0.02961  0.43994  0.64516  1.0000
  C   C148      1.0  0.07073  0.50011  0.52599  1.0000
  H   H275      1.0  0.04718  0.45981  0.65107  1.0000
  C   C149      1.0  0.47084  0.60498  0.50447  1.0000
  C   C150      1.0  0.43075  0.43108  0.55537  1.0000
  C   C151      1.0  0.45652  0.43338  0.54848  1.0000
  C   C152      1.0  0.46063  0.41030  0.55069  1.0000
  C   C153      1.0  0.43890  0.38437  0.55962  1.0000
  C   C154      1.0  0.41311  0.38206  0.56657  1.0000
  C   C155      1.0  0.40906  0.40525  0.56460  1.0000
  H   H276      1.0  0.05369  0.52842  0.53130  1.0000
  C   C156      1.0  0.21571  0.61999  0.80176  1.0000
  H   H277      1.0  0.39608  0.36211  0.57336  1.0000
  H   H278      1.0  0.38909  0.40304  0.56991  1.0000
  C   C157      1.0  0.27599  0.47311  0.59687  1.0000
  C   C158      1.0  0.24717  0.45452  0.60025  1.0000
  C   C159      1.0  0.22945  0.46327  0.61202  1.0000
  C   C160      1.0  0.24031  0.49084  0.62081  1.0000
  C   C161      1.0  0.26907  0.50957  0.61699  1.0000
  C   C162      1.0  0.28676  0.50085  0.60505  1.0000
  H   H279      1.0  0.23853  0.43299  0.59410  1.0000
  H   H280      1.0  0.20753  0.44845  0.61509  1.0000
  H   H281      1.0  0.27783  0.53092  0.62378  1.0000
  H   H282      1.0  0.30880  0.51549  0.60254  1.0000
  C   C163      1.0  0.42831  0.53326  0.71323  1.0000
  C   C164      1.0  0.44411  0.56124  0.70522  1.0000
  C   C165      1.0  0.44367  0.56904  0.67745  1.0000
  C   C166      1.0  0.42707  0.54902  0.65768  1.0000
  C   C167      1.0  0.41106  0.52110  0.66580  1.0000
  C   C168      1.0  0.41199  0.51322  0.69340  1.0000
  H   H283      1.0  0.45678  0.57686  0.72037  1.0000
  H   H284      1.0  0.45629  0.59063  0.67130  1.0000
  H   H285      1.0  0.39808  0.50555  0.65085  1.0000
  H   H286      1.0  0.39990  0.49151  0.69945  1.0000
  C   C169      1.0  0.42296  0.55156  0.90742  1.0000
  C   C170      1.0  0.41511  0.55763  0.93314  1.0000
  C   C171      1.0  0.41080  0.54072  0.95677  1.0000
  C   C172      1.0  0.41411  0.51739  0.95482  1.0000
  C   C173      1.0  0.42149  0.51109  0.92897  1.0000
  C   C174      1.0  0.42582  0.52801  0.90539  1.0000
  C   C175      1.0  0.48805  0.47340  0.61125  1.0000
  H   H287      1.0  0.46057  0.65930  0.71220  1.0000
  H   H288      1.0  0.42374  0.49290  0.92715  1.0000
  H   H289      1.0  0.43119  0.52274  0.88559  1.0000
  C   C176      1.0  0.02834  0.56703  0.88902  1.0000
  C   C177      1.0  0.01366  0.53772  0.88670  1.0000
  C   C178      1.0  0.01322  0.58098  0.88817  1.0000
  H   H290      1.0  0.02506  0.52665  0.88706  1.0000
  H   H291      1.0  0.02412  0.60348  0.88974  1.0000
  C   C179      1.0  0.35436  0.48266  0.75399  1.0000
  H   H292      1.0  0.44750  0.38036  0.68489  1.0000
  C   C180      1.0  0.14785  0.52525  0.53636  1.0000
  C   C181      1.0  0.15228  0.55059  0.54695  1.0000
  C   C182      1.0  0.15505  0.57145  0.52851  1.0000
  C   C183      1.0  0.01487  0.47395  0.72740  1.0000
  H   H293      1.0  0.17530  0.52617  0.80009  1.0000
  H   H294      1.0  0.14605  0.50926  0.55046  1.0000
  H   H295      1.0  0.15875  0.59122  0.53654  1.0000
  H   H296      1.0  0.01309  0.45661  0.71439  1.0000
  C   C184      1.0  0.15377  0.54891  0.80715  1.0000
  C   C185      1.0  0.13803  0.55932  0.79477  1.0000
  C   C186      1.0  0.13089  0.55423  0.76641  1.0000
  C   C187      1.0  0.13958  0.53894  0.75009  1.0000
  C   C188      1.0  0.15587  0.52911  0.76234  1.0000
  C   C189      1.0  0.16290  0.53409  0.79074  1.0000
  H   H297      1.0  0.13142  0.57130  0.80697  1.0000
  H   H298      1.0  0.11856  0.56219  0.75699  1.0000
  H   H299      1.0  0.16273  0.51738  0.75002  1.0000
  H   H300      1.0  0.45992  0.63578  0.68733  1.0000
  C   C190      1.0  0.09679  0.48668  0.84996  1.0000
  C   C191      1.0  0.10141  0.47367  0.87601  1.0000
  H   H301      1.0  0.10889  0.50949  0.85255  1.0000
  H   H302      1.0  0.10560  0.48105  0.83206  1.0000
  H   H303      1.0  0.10627  0.47389  0.76492  1.0000
  H   H304      1.0  0.12406  0.48139  0.87844  1.0000
  H   H305      1.0  0.09408  0.47968  0.89486  1.0000
  H   H306      1.0  0.09030  0.45059  0.87432  1.0000
  H   H307      1.0  0.05904  0.54395  0.60250  1.0000
  C   C192      1.0  0.06624  0.46027  0.78523  1.0000
  C   C193      1.0  0.06775  0.56462  0.81915  1.0000
  H   H308      1.0  0.05437  0.45354  0.84355  1.0000
  N   N7        1.0  0.23066  0.52904  0.52921  1.0000
  C   C194      1.0  0.23904  0.54467  0.55643  1.0000
  H   H309      1.0  0.30574  0.52855  0.50957  1.0000
  C   C195      1.0  0.22266  0.61417  0.77269  1.0000
  C   C196      1.0  0.20402  0.50140  0.53190  1.0000
  C   C197      1.0  0.20410  0.48074  0.55349  1.0000
  C   C198      1.0  0.21777  0.55160  0.56980  1.0000
  C   C199      1.0  0.27360  0.52256  0.53967  1.0000
  H   H310      1.0  0.47015  0.62444  0.50771  1.0000
  C   C200      1.0  0.17610  0.45357  0.55417  1.0000
  C   C201      1.0  0.22939  0.56806  0.59664  1.0000
  H   H311      1.0  0.25896  0.56474  0.55351  1.0000
  H   H312      1.0  0.24342  0.53301  0.57256  1.0000
  H   H313      1.0  0.09340  0.43240  0.57152  1.0000
  C   C202      1.0  0.22485  0.63333  0.86233  1.0000
  H   H314      1.0  0.46516  0.52474  0.67210  1.0000
  H   H315      1.0  0.09662  0.48656  0.56282  1.0000
  C   C203      1.0  0.45295  0.65115  0.69100  1.0000
  H   H316      1.0  0.20802  0.48974  0.57464  1.0000
  H   H317      1.0  0.21993  0.47498  0.54799  1.0000
  H   H318      1.0  0.19800  0.53225  0.57495  1.0000
  H   H319      1.0  0.36685  0.50471  0.76083  1.0000
  H   H320      1.0  0.28716  0.54306  0.54968  1.0000
  H   H321      1.0  0.48293  0.37739  0.74047  1.0000
  C   C204      1.0  0.48943  0.54825  0.58600  1.0000
  H   H322      1.0  0.01429  0.37799  0.61665  1.0000
  H   H323      1.0  0.45789  0.49611  0.60235  1.0000
  H   H324      1.0  0.00870  0.53884  0.50502  1.0000
  H   H325      1.0  0.15914  0.45761  0.56002  1.0000
  H   H326      1.0  0.17142  0.44316  0.53360  1.0000
  H   H327      1.0  0.21421  0.57355  0.60532  1.0000
  H   H328      1.0  0.23301  0.55550  0.61233  1.0000
  H   H329      1.0  0.24925  0.58772  0.59257  1.0000
  H   H330      1.0  0.09636  0.51908  0.58938  1.0000
  H   H331      1.0  0.09418  0.55628  0.61435  1.0000
  C   C205      1.0  0.32698  0.52159  0.67487  1.0000
  C   C206      1.0  0.35722  0.53852  0.66320  1.0000
  C   C207      1.0  0.36297  0.56644  0.65110  1.0000
  H   H332      1.0  0.32415  0.53509  0.69010  1.0000
  H   H333      1.0  0.31302  0.51884  0.65713  1.0000
  H   H334      1.0  0.26977  0.49843  0.67352  1.0000
  H   H335      1.0  0.36064  0.52714  0.64616  1.0000
  H   H336      1.0  0.37293  0.54303  0.67965  1.0000
  H   H337      1.0  0.34861  0.56305  0.63353  1.0000
  H   H338      1.0  0.36039  0.57919  0.66729  1.0000
  H   H339      1.0  0.38472  0.57811  0.64312  1.0000
  H   H340      1.0  0.47644  0.53268  0.90434  1.0000
  H   H341      1.0  0.23332  0.44165  0.70192  1.0000
  H   H342      1.0  0.24813  0.59043  0.89095  1.0000
  H   H343      1.0  0.04357  0.46636  0.96879  1.0000
  H   H344      1.0  0.08951  0.57668  0.82693  1.0000
  H   H345      1.0  0.11844  0.45887  0.54820  1.0000
  H   H346      1.0  0.09288  0.51538  0.53083  1.0000
  H   H347      1.0  0.48024  0.46411  0.65537  1.0000
  H   H348      1.0  0.48962  0.51433  0.84933  1.0000
  H   H349      1.0  0.00398  0.53642  0.98394  1.0000
  H   H350      1.0  0.41324  0.64932  0.70045  1.0000
  H   H351      1.0  0.20712  0.55268  0.95874  1.0000
  H   H352      1.0  0.42012  0.45707  0.61152  1.0000
  H   H353      1.0  0.38725  0.60051  0.71563  1.0000
  C   C208      1.0  0.46232  0.39944  0.67316  1.0000
  C   C209      1.0  0.01101  0.39389  0.62582  1.0000
  H   H354      1.0  0.22552  0.63084  0.75790  1.0000
  S   S61       1.0  0.46371  0.54585  0.82089  1.0000
  H   H355      1.0  0.48728  0.42310  0.77309  1.0000
  C   C210      1.0  0.00213  0.43444  0.64971  1.0000
  C   C211      1.0  0.23818  0.46275  0.69498  1.0000
  H   H356      1.0  0.24189  0.61267  0.77314  1.0000
  H   H357      1.0  0.34644  0.46917  0.77278  1.0000
  H   H358      1.0  0.41082  0.62651  0.67270  1.0000
  H   H359      1.0  0.14191  0.50089  0.49935  1.0000
  H   H360      1.0  0.29116  0.42562  0.63414  1.0000
  H   H361      1.0  0.47630  0.64207  0.63016  1.0000
  H   H362      1.0  0.31830  0.45630  0.72964  1.0000
  H   H363      1.0  0.26569  0.46549  0.66232  1.0000
  H   H364      1.0  0.48051  0.41248  0.54508  1.0000
  H   H365      1.0  0.02008  0.45092  0.81587  1.0000
  H   H366      1.0  0.23766  0.47482  0.71312  1.0000
  C   C212      1.0  0.23316  0.59795  0.88786  1.0000
  H   H367      1.0  0.05314  0.56140  0.83643  1.0000
  C   C213      1.0  0.00760  0.53137  0.96267  1.0000
  H   H368      1.0  0.01487  0.46709  0.53595  1.0000
  C   C214      1.0  0.24498  0.62182  0.86674  1.0000
  H   H369      1.0  0.32774  0.43652  0.63731  1.0000
  C   C215      1.0  0.45949  0.43307  0.98696  1.0000
  C   C216      1.0  0.48690  0.52900  0.96081  1.0000
  H   H370      1.0  0.28866  0.43428  0.68393  1.0000
  H   H371      1.0  0.34085  0.48338  0.65736  1.0000
  H   H372      1.0  0.30703  0.47483  0.64726  1.0000
  H   H373      1.0  0.05935  0.52105  0.84963  1.0000
  C   C217      1.0  0.05329  0.49680  0.57448  1.0000
  H   H374      1.0  0.17682  0.43923  0.56991  1.0000
  H   H375      1.0  0.46794  0.45091  0.97214  1.0000
  H   H376      1.0  0.36806  0.47697  0.74234  1.0000
  H   H377      1.0  0.30661  0.51242  0.54185  1.0000
  H   H378      1.0  0.48618  0.53910  0.72116  1.0000
  H   H379      1.0  0.19864  0.49028  0.51166  1.0000
  H   H380      1.0  0.44188  0.61997  0.64407  1.0000
  H   H381      1.0  0.46608  0.49134  0.87600  1.0000
  H   H382      1.0  0.20522  0.59402  0.76510  1.0000
  H   H383      1.0  0.46522  0.39298  0.65214  1.0000
  H   H384      1.0  0.41591  0.59546  0.70650  1.0000
  H   H385      1.0  0.44538  0.41397  0.97527  1.0000
  H   H386      1.0  0.09654  0.42377  0.53615  1.0000
  S   S62       1.0  0.20916  0.64922  0.93632  1.0000
  H   H387      1.0  0.99034  0.40033  0.53704  1.0000
  N   N8        1.0  0.46625  0.49335  0.64616  1.0000
  C   C218      1.0  0.47695  0.51341  0.67037  1.0000
  H   H388      1.0  0.18521  0.51523  0.95499  1.0000
  C   C219      1.0  0.07548  0.44761  0.54048  1.0000
  C   C220      1.0  0.45472  0.63838  0.63067  1.0000
  H   H389      1.0  0.46923  0.40690  0.72800  1.0000
  H   H390      1.0  0.47617  0.59881  0.52451  1.0000
  H   H391      1.0  0.03961  0.52527  0.80073  1.0000
  H   H392      1.0  0.20773  0.54906  0.51493  1.0000
  C   C221      1.0  0.02827  0.45264  0.98479  1.0000
  H   H393      1.0  0.02964  0.44761  0.52305  1.0000
  S   S63       1.0  0.41069  0.49611  0.98402  1.0000
  H   H394      1.0  0.00806  0.45159  0.98086  1.0000
  H   H395      1.0  0.47472  0.45620  0.75374  1.0000
  H   H396      1.0  0.02979  0.47762  0.74441  1.0000
  H   H397      1.0  0.41953  0.61865  0.73460  1.0000
  C   C222      1.0  0.32993  0.47844  0.73588  1.0000
  C   C223      1.0  0.42067  0.63525  0.69303  1.0000
  H   H398      1.0  0.04541  0.53118  0.97527  1.0000
  H   H399      1.0  0.43222  0.66006  0.63983  1.0000
  H   H400      1.0  0.08066  0.45543  0.51882  1.0000
  H   H401      1.0  0.00519  0.44511  0.58178  1.0000
  H   H402      1.0  0.02174  0.47902  0.79699  1.0000
  H   H403      1.0  0.04359  0.53717  0.93850  1.0000
  H   H404      1.0  0.24561  0.50654  0.50429  1.0000
  H   H405      1.0  0.43151  0.43499  0.62781  1.0000
  C   C224      1.0  0.02817  0.45823  0.54204  1.0000
  C   C225      1.0  0.14560  0.52062  0.50745  1.0000
  H   H406      1.0  0.08832  0.53947  0.56616  1.0000
  H   H407      1.0  0.48523  0.53265  0.56949  1.0000
  H   H408      1.0  0.01583  0.47479  0.86133  1.0000
  H   H409      1.0  0.18625  0.50460  0.53682  1.0000
  H   H410      1.0  0.39120  0.41655  0.66010  1.0000
  N   N9        1.0  0.31894  0.49375  0.68807  1.0000
  C   C226      1.0  0.26664  0.47801  0.68063  1.0000
  H   H411      1.0  0.06743  0.49895  0.77796  1.0000
  H   H412      1.0  0.07796  0.44163  0.75202  1.0000
  C   C227      1.0  0.44304  0.63089  0.60118  1.0000
  C   C228      1.0  0.31935  0.47501  0.66558  1.0000
  C   C229      1.0  0.08001  0.52386  0.58325  1.0000
  H   H413      1.0  0.35841  0.49856  0.70129  1.0000
  H   H414      1.0  0.34851  0.51976  0.71976  1.0000
  H   H415      1.0  0.30178  0.40571  0.65522  1.0000
  H   H416      1.0  0.01126  0.49784  0.83848  1.0000
  C   C230      1.0  0.29029  0.48240  0.70077  1.0000
  C   C231      1.0  0.34008  0.49863  0.71050  1.0000
  H   H417      1.0  0.29108  0.49669  0.71745  1.0000
  H   H418      1.0  0.22219  0.64047  0.88300  1.0000
  C   C232      1.0  0.07440  0.53748  0.60807  1.0000
  H   H419      1.0  0.06844  0.45985  0.58112  1.0000
  H   H420      1.0  0.22963  0.60512  0.90822  1.0000
  H   H421      1.0  0.09592  0.50281  0.79753  1.0000
  H   H422      1.0  0.46167  0.33630  0.96438  1.0000
  C   C233      1.0  0.07474  0.46946  0.56007  1.0000
  H   H423      1.0  0.44452  0.61277  0.59366  1.0000
  C   C234      1.0  0.08374  0.46272  0.75965  1.0000
  C   C235      1.0  0.09732  0.44027  0.54977  1.0000
  C   C236      1.0  0.30952  0.44452  0.67400  1.0000
  C   C237      1.0  0.30750  0.42713  0.64858  1.0000
  H   H424      1.0  0.09551  0.55321  0.50118  1.0000
  C   C238      1.0  0.48729  0.42453  0.71726  1.0000
  H   H425      1.0  0.05102  0.56438  0.96300  1.0000
  C   C239      1.0  0.23959  0.64799  0.81335  1.0000
  C   C240      1.0  0.29262  0.51347  0.52597  1.0000
  H   H426      1.0  0.21313  0.56481  0.55605  1.0000
  C   C241      1.0  0.03874  0.54148  0.95969  1.0000
  C   C242      1.0  0.07294  0.48947  0.79544  1.0000
  H   H427      1.0  0.09105  0.53170  0.83210  1.0000
  H   H428      1.0  0.08020  0.47416  0.74258  1.0000
  H   H429      1.0  0.32489  0.44393  0.68831  1.0000
  C   C243      1.0  0.43740  0.47001  0.65374  1.0000
  H   H430      1.0  0.19098  0.64431  0.83373  1.0000
  C   C244      1.0  0.05690  0.51650  0.51471  1.0000
  H   H431      1.0  0.04397  0.44766  0.77923  1.0000
  H   H432      1.0  0.43816  0.45823  0.67214  1.0000
  C   C245      1.0  0.06542  0.47663  0.84570  1.0000
  H   H433      1.0  0.04585  0.48328  0.59339  1.0000
  H   H434      1.0  0.38057  0.41164  0.62417  1.0000
  H   H435      1.0  0.47903  0.42108  0.94471  1.0000
  H   H436      1.0  0.37991  0.43880  0.64393  1.0000
  H   H437      1.0  0.45406  0.48900  0.70714  1.0000
  H   H438      1.0  0.31594  0.48254  0.74911  1.0000
  N   N10       1.0  0.05667  0.48116  0.55062  1.0000
  N   N11       1.0  0.05846  0.48990  0.82184  1.0000
  C   C246      1.0  0.06809  0.51981  0.82918  1.0000
  H   H439      1.0  0.05779  0.48047  0.86566  1.0000
  H   H440      1.0  0.07502  0.54097  0.78872  1.0000
  H   H441      1.0  0.07059  0.44876  0.80148  1.0000
  H   H442      1.0  0.06491  0.57706  0.80268  1.0000
  C   C247      1.0  0.22569  0.54668  0.50852  1.0000
  H   H443      1.0  0.03678  0.50206  0.56994  1.0000
  H   H444      1.0  0.44728  0.51405  0.62468  1.0000
  H   H445      1.0  0.42412  0.47889  0.65984  1.0000
  H   H446      1.0  0.02342  0.49318  0.71448  1.0000
  H   H447      1.0  0.16997  0.53635  0.96301  1.0000
  H   H448      1.0  0.21217  0.60223  0.81521  1.0000
  H   H449      1.0  0.24869  0.61376  0.84712  1.0000
  C   C248      1.0  0.39146  0.42748  0.64061  1.0000
  H   H450      1.0  0.20382  0.61560  0.85712  1.0000
  C   C249      1.0  0.06168  0.53657  0.80741  1.0000
  H   H451      1.0  0.48429  0.48618  0.69852  1.0000
  H   H452      1.0  0.48444  0.48685  0.79442  1.0000
  H   H453      1.0  0.00256  0.54356  0.94773  1.0000
  C   C250      1.0  0.42141  0.44764  0.63134  1.0000
  C   C251      1.0  0.15300  0.56693  0.49969  1.0000
  H   H454      1.0  0.19586  0.62019  0.80027  1.0000
  H   H455      1.0  0.99915  0.48891  0.96710  1.0000
  H   H456      1.0  0.41257  0.57568  0.93486  1.0000
  C   C252      1.0  0.18829  0.53377  0.96673  1.0000
  H   H457      1.0  0.21322  0.58026  0.88026  1.0000
  C   C253      1.0  0.02734  0.47359  0.81736  1.0000
  H   H458      1.0  0.47265  0.55361  0.58603  1.0000
  H   H459      1.0  0.45478  0.37636  0.95434  1.0000
  Fe  Fe31      1.0  0.48140  0.61923  0.79030  1.0000
  H   H460      1.0  0.02549  0.43144  0.98278  1.0000
  H   H461      1.0  0.03642  0.50203  0.50521  1.0000
  H   H462      1.0  0.26850  0.54311  0.50466  1.0000
  H   H463      1.0  0.26531  0.63824  0.87496  1.0000
  H   H464      1.0  0.99892  0.45031  0.65903  1.0000
  C   C254      1.0  0.01152  0.43593  0.56477  1.0000
  C   C255      1.0  0.47592  0.50060  0.69940  1.0000
  C   C256      1.0  0.46422  0.50907  0.62138  1.0000
  N   N12       1.0  0.23412  0.65660  0.84130  1.0000
  H   H465      1.0  0.45507  0.64861  0.58666  1.0000
  C   C257      1.0  0.25411  0.52512  0.51809  1.0000
  H   H466      1.0  0.28010  0.49240  0.51673  1.0000
  H   H467      1.0  0.46745  0.46039  0.60160  1.0000
  H   H468      1.0  0.06645  0.52291  0.62609  1.0000
  H   H469      1.0  0.02388  0.42731  0.57405  1.0000
  C   C258      1.0  0.00934  0.47697  0.84012  1.0000
  C   C259      1.0  0.41029  0.61101  0.71371  1.0000
  C   C260      1.0  0.48587  0.48222  0.64138  1.0000
  H   H470      1.0  0.47347  0.45319  0.54131  1.0000
  H   H471      1.0  0.40510  0.54582  0.97648  1.0000
  Fe  Fe32      1.0  0.48396  0.35404  0.55838  1.0000
  H   H472      1.0  0.24418  0.56817  0.50779  1.0000
  H   H473      1.0  0.48953  0.63123  0.89690  1.0000
  H   H474      1.0  0.05503  0.42800  0.54045  1.0000
  C   C261      1.0  0.44830  0.34085  0.97803  1.0000
  H   H475      1.0  0.42634  0.32798  0.97109  1.0000
  H   H476      1.0  0.44985  0.58809  0.49812  1.0000
  H   H477      1.0  0.42074  0.62511  0.60089  1.0000
  C   C262      1.0  0.48808  0.50258  0.86866  1.0000
  H   H478      1.0  0.47100  0.60786  0.92519  1.0000
  H   H479      1.0  0.48062  0.44010  0.71355  1.0000
  H   H480      1.0  0.47956  0.56761  0.93422  1.0000
  H   H481      1.0  0.47447  0.45184  0.80514  1.0000
  H   H482      1.0  0.47568  0.53984  0.96752  1.0000
  H   H483      1.0  0.48948  0.51392  0.74184  1.0000
  H   H484      1.0  0.47372  0.51248  0.94577  1.0000
  S   S64       1.0  0.47551  0.65423  0.77072  1.0000
  H   H485      1.0  0.07182  0.48809  0.50807  1.0000
  H   H486      1.0  0.99320  0.49826  0.93363  1.0000
  C   C263      1.0  0.45714  0.37172  0.97627  1.0000
  H   H487      1.0  0.48642  0.58650  0.88806  1.0000
  C   C264      1.0  0.48736  0.39021  0.98666  1.0000
  C   C265      1.0  0.07518  0.53740  0.49228  1.0000
  C   C266      1.0  0.39573  0.73496  0.33468  1.0000
  Fe  Fe33      1.0  0.40544  0.83075  0.43895  1.0000
  S   S65       1.0  0.36549  0.82989  0.42919  1.0000
  S   S66       1.0  0.43060  0.82151  0.40796  1.0000
  Fe  Fe34      1.0  0.38302  0.82527  0.00128  1.0000
  N   N13       1.0  0.20462  0.66617  0.30461  1.0000
  S   S67       1.0  0.37860  0.81858  0.04852  1.0000
  Fe  Fe35      1.0  0.34874  0.80344  0.46796  1.0000
  S   S68       1.0  0.30985  0.75974  0.47431  1.0000
  C   C267      1.0  0.42528  0.94347  0.48197  1.0000
  C   C268      1.0  0.45698  0.95062  0.04402  1.0000
  H   H488      1.0  0.43510  0.92001  0.41797  1.0000
  H   H489      1.0  0.33477  0.70740  0.42955  1.0000
  H   H490      1.0  0.43000  0.67921  0.18701  1.0000
  S   S69       1.0  0.45131  0.79573  0.21766  1.0000
  H   H491      1.0  0.42080  0.91397  0.38341  1.0000
  C   C269      1.0  0.47282  0.91158  0.08747  1.0000
  Fe  Fe36      1.0  0.44885  0.82506  0.24868  1.0000
  S   S70       1.0  0.41281  0.81705  0.27716  1.0000
  H   H492      1.0  0.35896  0.77941  0.36360  1.0000
  H   H493      1.0  0.33997  0.71935  0.33923  1.0000
  C   C270      1.0  0.33738  0.76137  0.36403  1.0000
  H   H494      1.0  0.29671  0.75626  0.37654  1.0000
  H   H495      1.0  0.24071  0.73104  0.39776  1.0000
  H   H496      1.0  0.20810  0.68135  0.34658  1.0000
  H   H497      1.0  0.31636  0.79286  0.33962  1.0000
  H   H498      1.0  0.26727  0.78353  0.04216  1.0000
  H   H499      1.0  0.44378  0.95534  0.05780  1.0000
  C   C271      1.0  0.42660  0.82241  0.37162  1.0000
  C   C272      1.0  0.44277  0.81594  0.35408  1.0000
  C   C273      1.0  0.43917  0.81494  0.32509  1.0000
  C   C274      1.0  0.41914  0.82013  0.31336  1.0000
  C   C275      1.0  0.40317  0.82695  0.33090  1.0000
  C   C276      1.0  0.40722  0.82854  0.35991  1.0000
  H   H500      1.0  0.45777  0.81112  0.36299  1.0000
  H   H501      1.0  0.45119  0.80910  0.31193  1.0000
  H   H502      1.0  0.38772  0.83111  0.32198  1.0000
  H   H503      1.0  0.39497  0.83394  0.37324  1.0000
  C   C277      1.0  0.40416  0.82379  0.07392  1.0000
  C   C278      1.0  0.43163  0.83179  0.06672  1.0000
  C   C279      1.0  0.45100  0.83512  0.08756  1.0000
  C   C280      1.0  0.44332  0.83070  0.11587  1.0000
  C   C281      1.0  0.41593  0.82307  0.12310  1.0000
  C   C282      1.0  0.39651  0.81961  0.10223  1.0000
  H   H504      1.0  0.43787  0.83500  0.04509  1.0000
  H   H505      1.0  0.27038  0.81855  0.00904  1.0000
  H   H506      1.0  0.40971  0.81968  0.14473  1.0000
  H   H507      1.0  0.37536  0.81349  0.10811  1.0000
  C   C283      1.0  0.23151  0.69627  0.42469  1.0000
  C   C284      1.0  0.24010  0.68821  0.44862  1.0000
  C   C285      1.0  0.26407  0.70784  0.46336  1.0000
  C   C286      1.0  0.27984  0.73588  0.45458  1.0000
  C   C287      1.0  0.27101  0.74400  0.43088  1.0000
  C   C288      1.0  0.24725  0.72433  0.41596  1.0000
  H   H508      1.0  0.44695  0.69476  0.29058  1.0000
  H   H509      1.0  0.45949  0.72879  0.17646  1.0000
  H   H510      1.0  0.34459  0.81518  0.36267  1.0000
  H   H511      1.0  0.33063  0.75878  0.03979  1.0000
  H   H512      1.0  0.39336  0.96331  0.43440  1.0000
  H   H513      1.0  0.27065  0.66813  0.41741  1.0000
  H   H514      1.0  0.15739  0.70584  0.35222  1.0000
  C   C289      1.0  0.26077  0.72239  0.02258  1.0000
  H   H515      1.0  0.38355  0.76554  0.33961  1.0000
  H   H516      1.0  0.43708  0.68516  0.22368  1.0000
  S   S71       1.0  0.38301  0.90782  0.44609  1.0000
  H   H517      1.0  0.39498  0.75663  0.37116  1.0000
  H   H518      1.0  0.36041  0.74427  0.46299  1.0000
  H   H519      1.0  0.26102  0.74802  0.06814  1.0000
  C   C290      1.0  0.29692  0.77365  0.11183  1.0000
  C   C291      1.0  0.34103  0.72612  0.00674  1.0000
  S   S72       1.0  0.46452  0.86080  0.21829  1.0000
  H   H520      1.0  0.45744  0.89011  0.02746  1.0000
  H   H521      1.0  0.48861  0.87093  0.37850  1.0000
  H   H522      1.0  0.29846  0.76967  0.99744  1.0000
  C   C292      1.0  0.47171  0.92421  0.99751  1.0000
  C   C293      1.0  0.44906  0.89912  0.30062  1.0000
  C   C294      1.0  0.40688  0.94083  0.46074  1.0000
  H   H523      1.0  0.24153  0.69177  0.05640  1.0000
  C   C295      1.0  0.18821  0.66346  0.27860  1.0000
  H   H524      1.0  0.42987  0.87980  0.29418  1.0000
  H   H525      1.0  0.23241  0.72604  0.31594  1.0000
  H   H526      1.0  0.28229  0.74132  0.30861  1.0000
  H   H527      1.0  0.47362  0.87942  0.29724  1.0000
  C   C296      1.0  0.23835  0.71930  0.29669  1.0000
  C   C297      1.0  0.26899  0.74065  0.29100  1.0000
  H   H528      1.0  0.29742  0.70946  0.99975  1.0000
  C   C298      1.0  0.44610  0.69186  0.20249  1.0000
  C   C299      1.0  0.19174  0.67043  0.33053  1.0000
  H   H529      1.0  0.29486  0.75485  0.12238  1.0000
  H   H530      1.0  0.48648  0.96599  0.41568  1.0000
  H   H531      1.0  0.39277  0.75604  0.44398  1.0000
  H   H532      1.0  0.45642  0.92252  0.38843  1.0000
  C   C300      1.0  0.31549  0.72978  0.00585  1.0000
  H   H533      1.0  0.27715  0.77396  0.11409  1.0000
  C   C301      1.0  0.35528  0.72483  0.42273  1.0000
  N   N14       1.0  0.28685  0.74556  0.03559  1.0000
  H   H534      1.0  0.45347  0.95635  0.02279  1.0000
  H   H535      1.0  0.43399  0.72357  0.20263  1.0000
  H   H536      1.0  0.35129  0.89041  0.04998  1.0000
  H   H537      1.0  0.36174  0.86523  0.04227  1.0000
  H   H538      1.0  0.38429  0.72680  0.31483  1.0000
  H   H539      1.0  0.31384  0.79240  0.12220  1.0000
  H   H540      1.0  0.22606  0.72014  0.27893  1.0000
  H   H541      1.0  0.45823  0.91250  0.28190  1.0000
  H   H542      1.0  0.33778  0.70962  0.02193  1.0000
  H   H543      1.0  0.45949  0.87770  0.33123  1.0000
  S   S73       1.0  0.42349  0.86978  0.46454  1.0000
  C   C302      1.0  0.42617  0.99158  0.46199  1.0000
  H   H544      1.0  0.18667  0.70528  0.31414  1.0000
  C   C303      1.0  0.46948  0.90548  0.11869  1.0000
  H   H545      1.0  0.32444  0.77446  0.08009  1.0000
  H   H546      1.0  0.24323  0.72657  0.02466  1.0000
  C   C304      1.0  0.29523  0.77221  0.01979  1.0000
  C   C305      1.0  0.17544  0.68634  0.32714  1.0000
  H   H547      1.0  0.44029  0.92228  0.08929  1.0000
  H   H548      1.0  0.48169  0.94725  0.99682  1.0000
  C   C306      1.0  0.46967  0.89151  0.31319  1.0000
  H   H549      1.0  0.33935  0.75272  0.41986  1.0000
  H   H550      1.0  0.30466  0.82705  0.02051  1.0000
  H   H551      1.0  0.35148  0.70804  0.36800  1.0000
  C   C307      1.0  0.45279  0.72194  0.19824  1.0000
  C   C308      1.0  0.29962  0.68341  0.38250  1.0000
  S   S74       1.0  0.46897  0.83545  0.14104  1.0000
  H   H552      1.0  0.15761  0.67689  0.36898  1.0000
  H   H553      1.0  0.25474  0.66764  0.38454  1.0000
  H   H554      1.0  0.27150  0.76172  0.28852  1.0000
  C   C309      1.0  0.27394  0.78265  0.02067  1.0000
  N   N15       1.0  0.33673  0.73668  0.37824  1.0000
  H   H555      1.0  0.29813  0.71813  0.40184  1.0000
  C   C310      1.0  0.35150  0.72654  0.35926  1.0000
  H   H556      1.0  0.46293  0.97285  0.43416  1.0000
  C   C311      1.0  0.40755  0.96508  0.45075  1.0000
  C   C312      1.0  0.46629  0.91316  0.02792  1.0000
  H   H557      1.0  0.18957  0.71000  0.36572  1.0000
  C   C313      1.0  0.47592  0.73397  0.27092  1.0000
  H   H558      1.0  0.18574  0.68189  0.27544  1.0000
  N   N16       1.0  0.44782  0.92002  0.04531  1.0000
  C   C314      1.0  0.37206  0.73775  0.44911  1.0000
  C   C315      1.0  0.44947  0.95759  0.39264  1.0000
  H   H559      1.0  0.24416  0.68529  0.28293  1.0000
  H   H560      1.0  0.31468  0.68012  0.39455  1.0000
  C   C316      1.0  0.35121  0.74637  0.40594  1.0000
  C   C317      1.0  0.28102  0.74812  0.06576  1.0000
  C   C318      1.0  0.38229  0.74809  0.35208  1.0000
  C   C319      1.0  0.31915  0.77226  0.37727  1.0000
  H   H561      1.0  0.36521  0.89055  0.01614  1.0000
  H   H562      1.0  0.30925  0.80513  0.37157  1.0000
  C   C320      1.0  0.23422  0.68978  0.30082  1.0000
  Fe  Fe37      1.0  0.38250  0.86750  0.45771  1.0000
  H   H563      1.0  0.24692  0.69174  0.31943  1.0000
  H   H564      1.0  0.32507  0.77830  0.39920  1.0000
  H   H565      1.0  0.46994  0.88955  0.37400  1.0000
  H   H566      1.0  0.33089  0.75643  0.34186  1.0000
  H   H567      1.0  0.43110  0.96009  0.39661  1.0000
  C   C321      1.0  0.32261  0.79790  0.36172  1.0000
  H   H568      1.0  0.47621  0.89544  0.07754  1.0000
  H   H569      1.0  0.29331  0.71511  0.36533  1.0000
  H   H570      1.0  0.29985  0.67667  0.36080  1.0000
  H   H571      1.0  0.46964  0.73629  0.21237  1.0000
  C   C322      1.0  0.46785  0.70742  0.28242  1.0000
  H   H572      1.0  0.15498  0.67270  0.31717  1.0000
  H   H573      1.0  0.31590  0.78928  0.02692  1.0000
  H   H574      1.0  0.46126  0.74143  0.27027  1.0000
  C   C323      1.0  0.43993  0.92665  0.39587  1.0000
  C   C324      1.0  0.30421  0.77397  0.08113  1.0000
  S   S75       1.0  0.38857  0.80302  0.47657  1.0000
  C   C325      1.0  0.41865  0.90387  0.03354  1.0000
  H   H575      1.0  0.40213  0.98015  0.00901  1.0000
  H   H576      1.0  0.41760  0.75102  0.32963  1.0000
  C   C326      1.0  0.39606  0.90741  0.04921  1.0000
  C   C327      1.0  0.30652  0.71426  0.38234  1.0000
  H   H577      1.0  0.47210  0.84102  0.08170  1.0000
  C   C328      1.0  0.36682  0.88708  0.03865  1.0000
  H   H578      1.0  0.37193  0.76563  0.40340  1.0000
  H   H579      1.0  0.28213  0.76560  0.42440  1.0000
  H   H580      1.0  0.37537  0.72215  0.46039  1.0000
  H   H581      1.0  0.41163  0.88116  0.03300  1.0000
  H   H582      1.0  0.41808  0.90990  0.01163  1.0000
  H   H583      1.0  0.48725  0.92161  0.03723  1.0000
  H   H584      1.0  0.27036  0.70123  0.48181  1.0000
  H   H585      1.0  0.27624  0.73547  0.27157  1.0000
  H   H586      1.0  0.36665  0.71675  0.41056  1.0000
  H   H587      1.0  0.39955  0.92876  0.04596  1.0000
  H   H588      1.0  0.39611  0.90366  0.07186  1.0000
  S   S76       1.0  0.20190  0.67243  0.40447  1.0000
  H   H589      1.0  0.25519  0.76867  0.00825  1.0000
  Fe  Fe38      1.0  0.47116  0.83326  0.18880  1.0000
  C   C329      1.0  0.28621  0.81191  0.00838  1.0000
  H   H590      1.0  0.44321  0.91011  0.31610  1.0000
  H   H591      1.0  0.39605  0.71781  0.34636  1.0000
  H   H592      1.0  0.30708  0.79363  0.07196  1.0000
  H   H593      1.0  0.42972  0.88809  0.07758  1.0000
  C   C330      1.0  0.44641  0.91040  0.07514  1.0000
  H   H594      1.0  0.47059  0.87793  0.42299  1.0000
  H   H595      1.0  0.48339  0.94577  0.18411  1.0000
  H   H596      1.0  0.48615  0.70385  0.18315  1.0000
  H   H597      1.0  0.22829  0.66683  0.45579  1.0000
  C   C331      1.0  0.27069  0.66418  0.39478  1.0000
  C   C332      1.0  0.48739  0.97116  0.05273  1.0000
  H   H598      1.0  0.45580  0.96351  0.37071  1.0000
  H   H599      1.0  0.20904  0.67496  0.01540  1.0000
  C   C333      1.0  0.24994  0.69290  0.03517  1.0000
  C   C334      1.0  0.47317  0.97566  0.41351  1.0000
  H   H600      1.0  0.27781  0.72945  0.07763  1.0000
  C   C335      1.0  0.16971  0.69527  0.35525  1.0000
  N   N17       1.0  0.46853  0.66068  0.19535  1.0000
  H   H601      1.0  0.26361  0.72166  0.99971  1.0000
  H   H602      1.0  0.30808  0.72391  0.05017  1.0000
  C   C336      1.0  0.31065  0.73970  0.03430  1.0000
  H   H603      1.0  0.46440  0.66618  0.15138  1.0000
  H   H604      1.0  0.46830  0.92226  0.13000  1.0000
  S   S77       1.0  0.47470  0.66310  0.29799  1.0000
  H   H605      1.0  0.26655  0.68743  0.03661  1.0000
  H   H606      1.0  0.45028  0.88527  0.12307  1.0000
  C   C337      1.0  0.41639  0.97744  0.99580  1.0000
  C   C338      1.0  0.47271  0.68948  0.20001  1.0000
  H   H607      1.0  0.48419  0.69855  0.21966  1.0000
  H   H608      1.0  0.46162  0.66294  0.37679  1.0000
  H   H609      1.0  0.48755  0.90404  0.12656  1.0000
  H   H610      1.0  0.19991  0.66309  0.25989  1.0000
  H   H611      1.0  0.23430  0.66987  0.99645  1.0000
  H   H612      1.0  0.48926  0.97058  0.07567  1.0000
  C   C339      1.0  0.48644  0.69707  0.28340  1.0000
  H   H613      1.0  0.35996  0.74595  0.01264  1.0000
  C   C340      1.0  0.22645  0.67062  0.01751  1.0000
  C   C341      1.0  0.48932  0.89102  0.38200  1.0000
  C   C342      1.0  0.48972  0.89524  0.41347  1.0000
  H   H614      1.0  0.40790  0.75357  0.77814  1.0000
  Fe  Fe39      1.0  0.40329  0.82346  0.94222  1.0000
  S   S78       1.0  0.37679  0.83877  0.92277  1.0000
  S   S79       1.0  0.43417  0.81830  0.91558  1.0000
  C   C343      1.0  0.21120  0.66354  0.83801  1.0000
  H   H615      1.0  0.43157  0.98447  0.90343  1.0000
  S   S80       1.0  0.42586  0.85678  0.54309  1.0000
  Fe  Fe40      1.0  0.34294  0.80798  0.95153  1.0000
  S   S81       1.0  0.29673  0.78100  0.93883  1.0000
  H   H616      1.0  0.45430  0.92848  0.58668  1.0000
  C   C344      1.0  0.47436  0.68393  0.84692  1.0000
  C   C345      1.0  0.46878  0.75424  0.88717  1.0000
  H   H617      1.0  0.43493  0.90156  0.89305  1.0000
  S   S82       1.0  0.45317  0.84409  0.71597  1.0000
  S   S83       1.0  0.44915  0.78426  0.72737  1.0000
  Fe  Fe41      1.0  0.45913  0.81360  0.69082  1.0000
  S   S84       1.0  0.43821  0.79403  0.64935  1.0000
  Fe  Fe42      1.0  0.44795  0.81736  0.75314  1.0000
  S   S85       1.0  0.41426  0.80855  0.78493  1.0000
  C   C346      1.0  0.46045  0.71957  0.83295  1.0000
  H   H618      1.0  0.47471  0.75165  0.69432  1.0000
  H   H619      1.0  0.27807  0.70602  0.81323  1.0000
  H   H620      1.0  0.21508  0.67713  0.81948  1.0000
  H   H621      1.0  0.20304  0.69864  0.92714  1.0000
  C   C347      1.0  0.44801  0.89169  0.89484  1.0000
  C   C348      1.0  0.42980  0.88440  0.75701  1.0000
  H   H622      1.0  0.44270  0.90106  0.84194  1.0000
  H   H623      1.0  0.23768  0.74942  0.92859  1.0000
  C   C349      1.0  0.42880  0.81632  0.87925  1.0000
  C   C350      1.0  0.45116  0.82290  0.86112  1.0000
  C   C351      1.0  0.44715  0.82089  0.83210  1.0000
  C   C352      1.0  0.42068  0.81213  0.82108  1.0000
  C   C353      1.0  0.39847  0.80590  0.83923  1.0000
  C   C354      1.0  0.40249  0.80803  0.86817  1.0000
  H   H624      1.0  0.47163  0.82962  0.86958  1.0000
  H   H625      1.0  0.46447  0.82612  0.81832  1.0000
  H   H626      1.0  0.37794  0.79919  0.83088  1.0000
  H   H627      1.0  0.38506  0.80273  0.88190  1.0000
  C   C355      1.0  0.42966  0.83892  0.57207  1.0000
  C   C356      1.0  0.42255  0.81091  0.57088  1.0000
  C   C357      1.0  0.42533  0.79752  0.59468  1.0000
  C   C358      1.0  0.43573  0.81207  0.61980  1.0000
  C   C359      1.0  0.44325  0.84019  0.62084  1.0000
  C   C360      1.0  0.44014  0.85346  0.59715  1.0000
  H   H628      1.0  0.41518  0.79968  0.55158  1.0000
  H   H629      1.0  0.41967  0.77584  0.59356  1.0000
  H   H630      1.0  0.45132  0.85168  0.63997  1.0000
  H   H631      1.0  0.44591  0.87518  0.59829  1.0000
  C   C361      1.0  0.23319  0.68597  0.93532  1.0000
  C   C362      1.0  0.26166  0.69569  0.94026  1.0000
  C   C363      1.0  0.28145  0.72453  0.94074  1.0000
  C   C364      1.0  0.27298  0.74422  0.93699  1.0000
  C   C365      1.0  0.24455  0.73448  0.93173  1.0000
  C   C366      1.0  0.22481  0.70563  0.93079  1.0000
  H   H632      1.0  0.26851  0.68078  0.94367  1.0000
  H   H633      1.0  0.30327  0.73150  0.94387  1.0000
  C   C367      1.0  0.35946  0.74695  0.52719  1.0000
  H   H634      1.0  0.26128  0.70448  0.58040  1.0000
  C   C368      1.0  0.46032  0.89696  0.84333  1.0000
  S   S86       1.0  0.41369  0.91658  0.94585  1.0000
  H   H635      1.0  0.48208  0.90695  0.77543  1.0000
  H   H636      1.0  0.31710  0.80920  0.59196  1.0000
  N   N18       1.0  0.33467  0.78332  0.58056  1.0000
  H   H637      1.0  0.30475  0.75204  0.83555  1.0000
  C   C369      1.0  0.35446  0.78887  0.60438  1.0000
  C   C370      1.0  0.33038  0.80778  0.57542  1.0000
  C   C371      1.0  0.34695  0.77834  0.55467  1.0000
  C   C372      1.0  0.44928  0.75205  0.80945  1.0000
  H   H638      1.0  0.44470  0.91975  0.78374  1.0000
  C   C373      1.0  0.35722  0.83669  0.57287  1.0000
  C   C374      1.0  0.34649  0.79669  0.63246  1.0000
  C   C375      1.0  0.36961  0.80465  0.65391  1.0000
  H   H639      1.0  0.29677  0.76329  0.60501  1.0000
  C   C376      1.0  0.35028  0.85974  0.56770  1.0000
  C   C377      1.0  0.48853  0.94215  0.82058  1.0000
  S   S87       1.0  0.35549  0.84106  0.98455  1.0000
  H   H640      1.0  0.48596  0.97627  0.60745  1.0000
  H   H641      1.0  0.37591  0.80549  0.59869  1.0000
  H   H642      1.0  0.44087  0.70502  0.84426  1.0000
  H   H643      1.0  0.31863  0.80474  0.55574  1.0000
  C   C378      1.0  0.48744  0.69064  0.76689  1.0000
  H   H644      1.0  0.36814  0.79632  0.55058  1.0000
  H   H645      1.0  0.45069  0.87393  0.84106  1.0000
  H   H646      1.0  0.34457  0.71996  0.98585  1.0000
  H   H647      1.0  0.43169  0.73805  0.86286  1.0000
  H   H648      1.0  0.45509  0.92393  0.54972  1.0000
  H   H649      1.0  0.36996  0.83681  0.55520  1.0000
  H   H650      1.0  0.37011  0.84226  0.59195  1.0000
  H   H651      1.0  0.46923  0.94358  0.82076  1.0000
  H   H652      1.0  0.41091  0.88540  0.75141  1.0000
  H   H653      1.0  0.38903  0.82363  0.64706  1.0000
  H   H654      1.0  0.36313  0.80913  0.67420  1.0000
  H   H655      1.0  0.37412  0.78743  0.65695  1.0000
  H   H656      1.0  0.43462  0.86891  0.89173  1.0000
  H   H657      1.0  0.48548  0.89537  0.87800  1.0000
  H   H658      1.0  0.45728  0.71168  0.81119  1.0000
  H   H659      1.0  0.36994  0.87999  0.56507  1.0000
  H   H660      1.0  0.33777  0.85559  0.54844  1.0000
  H   H661      1.0  0.33853  0.86141  0.58557  1.0000
  H   H662      1.0  0.46236  0.87549  0.79396  1.0000
  H   H663      1.0  0.45903  0.75160  0.78937  1.0000
  H   H664      1.0  0.46273  0.73283  0.74359  1.0000
  H   H665      1.0  0.31416  0.72807  0.85048  1.0000
  S   S88       1.0  0.36194  0.84101  0.49571  1.0000
  H   H666      1.0  0.45043  0.77264  0.80995  1.0000
  H   H667      1.0  0.35640  0.77022  0.60876  1.0000
  C   C379      1.0  0.42546  0.94752  0.96574  1.0000
  C   C380      1.0  0.45919  0.69683  0.67820  1.0000
  H   H668      1.0  0.34437  0.74446  0.51071  1.0000
  H   H669      1.0  0.28050  0.76279  0.55602  1.0000
  H   H670      1.0  0.46421  0.73278  0.89204  1.0000
  H   H671      1.0  0.25570  0.71500  0.83207  1.0000
  Fe  Fe43      1.0  0.40273  0.84188  0.50158  1.0000
  H   H672      1.0  0.45387  0.77414  0.85846  1.0000
  H   H673      1.0  0.32717  0.77872  0.64095  1.0000
  H   H674      1.0  0.42381  0.88632  0.80064  1.0000
  H   H675      1.0  0.43647  0.68904  0.67616  1.0000
  C   C381      1.0  0.47740  0.72711  0.75158  1.0000
  H   H676      1.0  0.46667  0.67332  0.82663  1.0000
  H   H677      1.0  0.41857  0.92412  0.85901  1.0000
  H   H678      1.0  0.16363  0.66625  0.85096  1.0000
  H   H679      1.0  0.40632  0.73370  0.82522  1.0000
  H   H680      1.0  0.40045  0.94301  0.85356  1.0000
  H   H681      1.0  0.45216  0.91529  0.98552  1.0000
  H   H682      1.0  0.29135  0.73694  0.86926  1.0000
  S   S89       1.0  0.42000  0.85575  0.97601  1.0000
  C   C382      1.0  0.26071  0.68141  0.85153  1.0000
  C   C383      1.0  0.34995  0.75192  0.55528  1.0000
  H   H683      1.0  0.48376  0.92687  0.87715  1.0000
  H   H684      1.0  0.46815  0.76267  0.93117  1.0000
  H   H685      1.0  0.29293  0.73981  0.54581  1.0000
  H   H686      1.0  0.48392  0.92854  0.57074  1.0000
  H   H687      1.0  0.19866  0.66322  0.88145  1.0000
  C   C384      1.0  0.45217  0.97041  0.96046  1.0000
  C   C385      1.0  0.44068  0.89809  0.78525  1.0000
  C   C386      1.0  0.41764  0.73015  0.80813  1.0000
  C   C387      1.0  0.45824  0.76399  0.91161  1.0000
  Fe  Fe44      1.0  0.39205  0.87008  0.95771  1.0000
  H   H688      1.0  0.24842  0.72748  0.59047  1.0000
  C   C388      1.0  0.28523  0.74672  0.56365  1.0000
  H   H689      1.0  0.34306  0.81464  0.63025  1.0000
  C   C389      1.0  0.30680  0.75825  0.58769  1.0000
  C   C390      1.0  0.44287  0.96808  0.86945  1.0000
  H   H690      1.0  0.46367  0.70189  0.70053  1.0000
  H   H691      1.0  0.36569  0.75421  0.57088  1.0000
  N   N19       1.0  0.46519  0.74898  0.83345  1.0000
  H   H692      1.0  0.41477  0.72783  0.76289  1.0000
  H   H693      1.0  0.41355  0.70848  0.80977  1.0000
  H   H694      1.0  0.42406  0.86213  0.75783  1.0000
  H   H695      1.0  0.44583  0.89525  0.74056  1.0000
  H   H696      1.0  0.46519  0.97138  0.55992  1.0000
  C   C391      1.0  0.40496  0.73237  0.78073  1.0000
  H   H697      1.0  0.45187  0.97313  0.84824  1.0000
  H   H698      1.0  0.24374  0.66428  0.79747  1.0000
  H   H699      1.0  0.38225  0.71712  0.78061  1.0000
  C   C392      1.0  0.46875  0.69878  0.75674  1.0000
  H   H700      1.0  0.46601  0.96791  0.94645  1.0000
  H   H701      1.0  0.44738  0.68298  0.75262  1.0000
  H   H702      1.0  0.46372  0.78602  0.90850  1.0000
  C   C393      1.0  0.41511  0.94068  0.86753  1.0000
  H   H703      1.0  0.48772  0.98639  0.79234  1.0000
  H   H704      1.0  0.24286  0.71375  0.55568  1.0000
  N   N20       1.0  0.48120  0.91197  0.82021  1.0000
  H   H705      1.0  0.46584  0.68131  0.62564  1.0000
  H   H706      1.0  0.32996  0.73287  0.56034  1.0000
  C   C394      1.0  0.18351  0.68507  0.85692  1.0000
  H   H707      1.0  0.38041  0.76455  0.52177  1.0000
  H   H708      1.0  0.45743  0.67379  0.86262  1.0000
  C   C395      1.0  0.48205  0.96651  0.56353  1.0000
  C   C396      1.0  0.29702  0.73281  0.84832  1.0000
  C   C397      1.0  0.25782  0.72158  0.57328  1.0000
  H   H709      1.0  0.33472  0.77743  0.53592  1.0000
  S   S90       1.0  0.36895  0.79106  0.96930  1.0000
  C   C398      1.0  0.40776  0.95110  0.98388  1.0000
  H   H710      1.0  0.40541  0.93393  0.88845  1.0000
  H   H711      1.0  0.30946  0.74094  0.59593  1.0000
  H   H712      1.0  0.45655  0.96422  0.88338  1.0000
  C   C399      1.0  0.46807  0.93501  0.56808  1.0000
  H   H713      1.0  0.43525  0.75081  0.91389  1.0000
  C   C400      1.0  0.46758  0.89773  0.79327  1.0000
  C   C401      1.0  0.45398  0.75419  0.85992  1.0000
  H   H714      1.0  0.36075  0.72763  0.52811  1.0000
  H   H715      1.0  0.31888  0.74515  0.98945  1.0000
  H   H716      1.0  0.45664  0.89524  0.91623  1.0000
  C   C402      1.0  0.47172  0.90411  0.87354  1.0000
  C   C403      1.0  0.48408  0.71499  0.84431  1.0000
  C   C404      1.0  0.27165  0.70869  0.83433  1.0000
  C   C405      1.0  0.46710  0.74589  0.67265  1.0000
  C   C406      1.0  0.44362  0.96986  0.49338  1.0000
  H   H717      1.0  0.42037  0.99071  0.87089  1.0000
  H   H718      1.0  0.25849  0.68588  0.87369  1.0000
  H   H719      1.0  0.17960  0.69425  0.87568  1.0000
  H   H720      1.0  0.44424  0.73764  0.67212  1.0000
  H   H721      1.0  0.46793  0.72087  0.63920  1.0000
  H   H722      1.0  0.19045  0.70065  0.83978  1.0000
  C   C407      1.0  0.45412  0.66449  0.64121  1.0000
  H   H723      1.0  0.48245  0.89364  0.98242  1.0000
  C   C408      1.0  0.47428  0.72451  0.66135  1.0000
  H   H724      1.0  0.47737  0.76515  0.65972  1.0000
  H   H725      1.0  0.45745  0.97149  0.50996  1.0000
  H   H726      1.0  0.42506  0.92509  0.48993  1.0000
  H   H727      1.0  0.22491  0.69704  0.86956  1.0000
  N   N21       1.0  0.46575  0.67452  0.66991  1.0000
  H   H728      1.0  0.27798  0.67671  0.85157  1.0000
  C   C409      1.0  0.43849  0.99139  0.88170  1.0000
  C   C410      1.0  0.20591  0.67754  0.86336  1.0000
  H   H729      1.0  0.38688  0.93398  0.98760  1.0000
  H   H730      1.0  0.29232  0.81219  0.98634  1.0000
  N   N22       1.0  0.76856  0.29821  0.25854  1.0000
  S   S91       1.0  0.78870  0.29114  0.14974  1.0000
  Fe  Fe45      1.0  0.62460  0.08130  0.22163  1.0000
  S   S92       1.0  0.58926  0.08629  0.23683  1.0000
  S   S93       1.0  0.61980  0.03964  0.20802  1.0000
  Fe  Fe46      1.0  0.66657  0.14576  0.22263  1.0000
  S   S94       1.0  0.63340  0.15456  0.23823  1.0000
  S   S95       1.0  0.71366  0.17720  0.21776  1.0000
  Fe  Fe47      1.0  0.61977  0.11762  0.26712  1.0000
  S   S96       1.0  0.61473  0.11488  0.31453  1.0000
  Fe  Fe48      1.0  0.60575  0.12233  0.20656  1.0000
  S   S97       1.0  0.57436  0.12479  0.17801  1.0000
  S   S98       1.0  0.65464  0.11054  0.25333  1.0000
  S   S99       1.0  0.63959  0.11562  0.18954  1.0000
  H   H731      1.0  0.54472  0.28650  0.11225  1.0000
  H   H732      1.0  0.56004  0.28170  0.08124  1.0000
  Fe  Fe49      1.0  0.52365  0.11843  0.44478  1.0000
  S   S100      1.0  0.53035  0.12524  0.39780  1.0000
  Fe  Fe50      1.0  0.55128  0.10916  0.01629  1.0000
  S   S101      1.0  0.58318  0.11197  0.04766  1.0000
  H   H733      1.0  0.50382  0.04709  0.08507  1.0000
  C   C411      1.0  0.49870  0.28470  0.44957  1.0000
  C   C412      1.0  0.53245  0.18837  0.12459  1.0000
  H   H734      1.0  0.56023  0.29376  0.42356  1.0000
  C   C413      1.0  0.57748  0.12273  0.14161  1.0000
  C   C414      1.0  0.60246  0.12778  0.12936  1.0000
  C   C415      1.0  0.60394  0.12470  0.10051  1.0000
  C   C416      1.0  0.58061  0.11696  0.08356  1.0000
  C   C417      1.0  0.55578  0.11262  0.09567  1.0000
  C   C418      1.0  0.55425  0.11543  0.12460  1.0000
  H   H735      1.0  0.62066  0.13398  0.14208  1.0000
  H   H736      1.0  0.62326  0.12826  0.09126  1.0000
  H   H737      1.0  0.53765  0.10652  0.08282  1.0000
  H   H738      1.0  0.53476  0.11107  0.13397  1.0000
  C   C419      1.0  0.59087  0.11771  0.33718  1.0000
  C   C420      1.0  0.56994  0.12256  0.32736  1.0000
  C   C421      1.0  0.55155  0.12461  0.34623  1.0000
  C   C422      1.0  0.55369  0.12167  0.37507  1.0000
  C   C423      1.0  0.57433  0.11639  0.38488  1.0000
  C   C424      1.0  0.59285  0.11453  0.36603  1.0000
  H   H739      1.0  0.56808  0.12497  0.30527  1.0000
  H   H740      1.0  0.53565  0.12870  0.33843  1.0000
  H   H741      1.0  0.57631  0.11417  0.40698  1.0000
  H   H742      1.0  0.60892  0.11072  0.37385  1.0000
  C   C425      1.0  0.76833  0.25969  0.16923  1.0000
  C   C426      1.0  0.78032  0.24701  0.18472  1.0000
  C   C427      1.0  0.76325  0.22195  0.19945  1.0000
  C   C428      1.0  0.73394  0.20901  0.19883  1.0000
  C   C429      1.0  0.72193  0.22163  0.18328  1.0000
  C   C430      1.0  0.73901  0.24671  0.16857  1.0000
  H   H743      1.0  0.80276  0.25640  0.18519  1.0000
  H   H744      1.0  0.77286  0.21241  0.21130  1.0000
  H   H745      1.0  0.69946  0.21202  0.18249  1.0000
  H   H746      1.0  0.72937  0.25614  0.15660  1.0000
  H   H747      1.0  0.67101  0.02060  0.15925  1.0000
  H   H748      1.0  0.50012  0.24025  0.43379  1.0000
  C   C431      1.0  0.75065  0.27731  0.08443  1.0000
  C   C432      1.0  0.49690  0.24013  0.02758  1.0000
  S   S102      1.0  0.53086  0.08940  0.47151  1.0000
  H   H749      1.0  0.51677  0.01582  0.05287  1.0000
  C   C433      1.0  0.58576  0.18130  0.05842  1.0000
  H   H750      1.0  0.74373  0.31409  0.27728  1.0000
  H   H751      1.0  0.49175  0.15651  0.05222  1.0000
  H   H752      1.0  0.55821  0.24210  0.01341  1.0000
  C   C434      1.0  0.55079  0.03809  0.35089  1.0000
  C   C435      1.0  0.75601  0.32097  0.33168  1.0000
  C   C436      1.0  0.76392  0.30496  0.31132  1.0000
  H   H753      1.0  0.64253  0.02744  0.15621  1.0000
  C   C437      1.0  0.69805  0.22722  0.26374  1.0000
  H   H754      1.0  0.76429  0.29444  0.21360  1.0000
  H   H755      1.0  0.55207  0.23384  0.07002  1.0000
  H   H756      1.0  0.49560  0.06156  0.11471  1.0000
  H   H757      1.0  0.54033  0.01107  0.43195  1.0000
  H   H758      1.0  0.83906  0.28804  0.26472  1.0000
  C   C438      1.0  0.53594  0.23357  0.01527  1.0000
  H   H759      1.0  0.54374  0.19131  0.05362  1.0000
  H   H760      1.0  0.57647  0.02061  0.25109  1.0000
  H   H761      1.0  0.55106  0.01823  0.48223  1.0000
  N   N23       1.0  0.52444  0.28185  0.45040  1.0000
  H   H762      1.0  0.56387  0.05918  0.34177  1.0000
  H   H763      1.0  0.75724  0.31463  0.35333  1.0000
  H   H764      1.0  0.79422  0.26682  0.23974  1.0000
  C   C439      1.0  0.74802  0.26734  0.26070  1.0000
  H   H765      1.0  0.49405  0.14853  0.13086  1.0000
  C   C440      1.0  0.52562  0.25057  0.02544  1.0000
  H   H766      1.0  0.54782  0.24703  0.47165  1.0000
  C   C441      1.0  0.51657  0.05254  0.21984  1.0000
  C   C442      1.0  0.71680  0.25890  0.26255  1.0000
  S   S103      1.0  0.54013  0.15271  0.47691  1.0000
  H   H767      1.0  0.70017  0.21761  0.24437  1.0000
  H   H768      1.0  0.70342  0.21833  0.28184  1.0000
  H   H769      1.0  0.85171  0.31980  0.24457  1.0000
  H   H770      1.0  0.51179  0.12940  0.16634  1.0000
  C   C443      1.0  0.51240  0.03887  0.19137  1.0000
  C   C444      1.0  0.55480  0.27527  0.10334  1.0000
  C   C445      1.0  0.51691  0.15695  0.13176  1.0000
  C   C446      1.0  0.57428  0.19132  0.08180  1.0000
  C   C447      1.0  0.53491  0.24382  0.10555  1.0000
  H   H771      1.0  0.57156  0.15880  0.05433  1.0000
  H   H772      1.0  0.53848  0.31463  0.48146  1.0000
  N   N24       1.0  0.53802  0.02649  0.15375  1.0000
  H   H773      1.0  0.67590  0.22170  0.26580  1.0000
  H   H774      1.0  0.50812  0.19896  0.46062  1.0000
  C   C448      1.0  0.56686  0.03142  0.14721  1.0000
  C   C449      1.0  0.54001  0.04218  0.18004  1.0000
  C   C450      1.0  0.52879  0.03741  0.12950  1.0000
  H   H775      1.0  0.50133  0.20046  0.06942  1.0000
  C   C451      1.0  0.58872  0.06147  0.13779  1.0000
  H   H776      1.0  0.52267  0.14512  0.11738  1.0000
  H   H777      1.0  0.54287  0.05319  0.38876  1.0000
  H   H778      1.0  0.51796  0.16321  0.17669  1.0000
  H   H779      1.0  0.53762  0.06029  0.13163  1.0000
  C   C452      1.0  0.61694  0.06407  0.13172  1.0000
  H   H780      1.0  0.56885  0.23564  0.10200  1.0000
  H   H781      1.0  0.49613  0.01666  0.19376  1.0000
  H   H782      1.0  0.74441  0.30733  0.22959  1.0000
  H   H783      1.0  0.49646  0.04987  0.22746  1.0000
  H   H784      1.0  0.53180  0.07525  0.21835  1.0000
  H   H785      1.0  0.78847  0.31922  0.05009  1.0000
  H   H786      1.0  0.55023  0.03669  0.19687  1.0000
  H   H787      1.0  0.55394  0.06493  0.17684  1.0000
  H   H788      1.0  0.52316  0.99949  0.38958  1.0000
  H   H789      1.0  0.54628  0.15922  0.16328  1.0000
  C   C453      1.0  0.59362  0.00602  0.21964  1.0000
  H   H790      1.0  0.74483  0.31175  0.09416  1.0000
  H   H791      1.0  0.59198  0.07673  0.15419  1.0000
  H   H792      1.0  0.58219  0.06757  0.11849  1.0000
  Fe  Fe51      1.0  0.50465  0.30701  0.05306  1.0000
  C   C454      1.0  0.79762  0.30290  0.26191  1.0000
  C   C455      1.0  0.49583  0.00103  0.04442  1.0000
  H   H793      1.0  0.51607  0.20633  0.42412  1.0000
  H   H794      1.0  0.57468  0.18072  0.10131  1.0000
  H   H795      1.0  0.60646  0.18435  0.06434  1.0000
  H   H796      1.0  0.50470  0.30711  0.44938  1.0000
  H   H797      1.0  0.58447  0.32124  0.01942  1.0000
  C   C456      1.0  0.51888  0.99543  0.15719  1.0000
  H   H798      1.0  0.53989  0.27187  0.03145  1.0000
  H   H799      1.0  0.57824  0.29253  0.46717  1.0000
  H   H800      1.0  0.63180  0.08558  0.12444  1.0000
  H   H801      1.0  0.62543  0.06003  0.15089  1.0000
  H   H802      1.0  0.61502  0.04918  0.11530  1.0000
  H   H803      1.0  0.52086  0.04378  0.42839  1.0000
  H   H804      1.0  0.52413  0.04281  0.23517  1.0000
  N   N25       1.0  0.71440  0.10585  0.17428  1.0000
  C   C457      1.0  0.71519  0.11664  0.20323  1.0000
  C   C458      1.0  0.70975  0.12380  0.15374  1.0000
  C   C459      1.0  0.68930  0.07680  0.17280  1.0000
  C   C460      1.0  0.74030  0.10459  0.16709  1.0000
  C   C461      1.0  0.76821  0.12710  0.18016  1.0000
  C   C462      1.0  0.71484  0.09780  0.22738  1.0000
  C   C463      1.0  0.68317  0.06233  0.14399  1.0000
  C   C464      1.0  0.73324  0.15462  0.15104  1.0000
  C   C465      1.0  0.72360  0.17155  0.13400  1.0000
  C   C466      1.0  0.79302  0.12614  0.16754  1.0000
  C   C467      1.0  0.72600  0.11427  0.25432  1.0000
  C   C468      1.0  0.66225  0.03110  0.14647  1.0000
  H   H805      1.0  0.69690  0.11948  0.20659  1.0000
  H   H806      1.0  0.73350  0.13774  0.20606  1.0000
  H   H807      1.0  0.70703  0.11534  0.13236  1.0000
  H   H808      1.0  0.68997  0.12346  0.15889  1.0000
  H   H809      1.0  0.67018  0.07709  0.17942  1.0000
  H   H810      1.0  0.69148  0.06263  0.18771  1.0000
  H   H811      1.0  0.73784  0.08413  0.17349  1.0000
  H   H812      1.0  0.74318  0.10556  0.14410  1.0000
  H   H813      1.0  0.76832  0.12350  0.20287  1.0000
  H   H814      1.0  0.77187  0.14845  0.17723  1.0000
  H   H815      1.0  0.69302  0.08086  0.23132  1.0000
  H   H816      1.0  0.72744  0.08794  0.22236  1.0000
  H   H817      1.0  0.70237  0.06473  0.13421  1.0000
  H   H818      1.0  0.67397  0.07135  0.12977  1.0000
  H   H819      1.0  0.74009  0.16493  0.17142  1.0000
  H   H820      1.0  0.75146  0.15581  0.14012  1.0000
  H   H821      1.0  0.71732  0.16284  0.11275  1.0000
  H   H822      1.0  0.70572  0.17159  0.14442  1.0000
  H   H823      1.0  0.74088  0.19350  0.13225  1.0000
  H   H824      1.0  0.79473  0.13092  0.14492  1.0000
  H   H825      1.0  0.81258  0.14194  0.17773  1.0000
  H   H826      1.0  0.79078  0.10526  0.17073  1.0000
  H   H827      1.0  0.71425  0.12495  0.25982  1.0000
  H   H828      1.0  0.72369  0.09989  0.27158  1.0000
  H   H829      1.0  0.74842  0.13016  0.25204  1.0000
  C   C469      1.0  0.54756  0.32429  0.41700  1.0000
  C   C470      1.0  0.54042  0.29405  0.42374  1.0000
  H   H830      1.0  0.73230  0.26657  0.07051  1.0000
  H   H831      1.0  0.57429  0.28150  0.11508  1.0000
  C   C471      1.0  0.51780  0.20552  0.00804  1.0000
  C   C472      1.0  0.76496  0.30840  0.23055  1.0000
  H   H832      1.0  0.79954  0.29415  0.28208  1.0000
  H   H833      1.0  0.71047  0.26645  0.24411  1.0000
  C   C473      1.0  0.54799  0.22742  0.09228  1.0000
  C   C474      1.0  0.52369  0.15202  0.16132  1.0000
  C   C475      1.0  0.80740  0.28984  0.23934  1.0000
  C   C476      1.0  0.83742  0.29687  0.24450  1.0000
  H   H834      1.0  0.74906  0.28243  0.31446  1.0000
  N   N26       1.0  0.53117  0.19595  0.09470  1.0000
  H   H835      1.0  0.58863  0.21402  0.08399  1.0000
  S   S104      1.0  0.49267  0.32119  0.09232  1.0000
  C   C477      1.0  0.53752  0.24269  0.45102  1.0000
  H   H836      1.0  0.49161  0.02028  0.44837  1.0000
  C   C478      1.0  0.57515  0.00251  0.24118  1.0000
  H   H837      1.0  0.53746  0.03468  0.10958  1.0000
  H   H838      1.0  0.54124  0.20566  0.44727  1.0000
  H   H839      1.0  0.53176  0.16115  0.07435  1.0000
  H   H840      1.0  0.51836  0.04678  0.36099  1.0000
  H   H841      1.0  0.57596  0.02679  0.16567  1.0000
  S   S105      1.0  0.51205  0.10946  0.02669  1.0000
  H   H842      1.0  0.49679  0.00327  0.02140  1.0000
  H   H843      1.0  0.58808  0.19311  0.03892  1.0000
  H   H844      1.0  0.78511  0.30930  0.31709  1.0000
  C   C479      1.0  0.49096  0.04185  0.10428  1.0000
  H   H845      1.0  0.52840  0.28090  0.40572  1.0000
  H   H846      1.0  0.55453  0.19756  0.13136  1.0000
  H   H847      1.0  0.52877  0.32416  0.40878  1.0000
  C   C480      1.0  0.76143  0.30866  0.08514  1.0000
  H   H848      1.0  0.74992  0.25631  0.24225  1.0000
  H   H849      1.0  0.71251  0.26748  0.28149  1.0000
  H   H850      1.0  0.75291  0.25800  0.27883  1.0000
  C   C481      1.0  0.52489  0.21153  0.44543  1.0000
  Fe  Fe52      1.0  0.49204  0.07515  0.99445  1.0000
  H   H851      1.0  0.80655  0.29756  0.21828  1.0000
  H   H852      1.0  0.65740  0.02154  0.12548  1.0000
  C   C482      1.0  0.54406  0.18422  0.07522  1.0000
  C   C483      1.0  0.53930  0.02717  0.47210  1.0000
  C   C484      1.0  0.51042  0.00893  0.38330  1.0000
  C   C485      1.0  0.53038  0.03859  0.37199  1.0000
  Fe  Fe53      1.0  0.52363  0.13992  0.99092  1.0000
  H   H853      1.0  0.50359  0.06233  0.39562  1.0000
  H   H854      1.0  0.75349  0.30816  0.04108  1.0000
  H   H855      1.0  0.55428  0.04912  0.46616  1.0000
  C   C486      1.0  0.52427  0.01003  0.44643  1.0000
  H   H856      1.0  0.53945  0.02350  0.33364  1.0000
  H   H857      1.0  0.56481  0.03190  0.36115  1.0000
  C   C487      1.0  0.50149  0.18649  0.08603  1.0000
  C   C488      1.0  0.57297  0.30798  0.47510  1.0000
  H   H858      1.0  0.50492  0.04957  0.17725  1.0000
  H   H859      1.0  0.71853  0.32071  0.06630  1.0000
  C   C489      1.0  0.54105  0.29650  0.47601  1.0000
  H   H860      1.0  0.58519  0.01027  0.32526  1.0000
  H   H861      1.0  0.74417  0.26840  0.10565  1.0000
  H   H862      1.0  0.55349  0.25371  0.43475  1.0000
  H   H863      1.0  0.76733  0.27325  0.07726  1.0000
  H   H864      1.0  0.56575  0.01698  0.13054  1.0000
  C   C490      1.0  0.49702  0.02379  0.12392  1.0000
  C   C491      1.0  0.77039  0.32185  0.05570  1.0000
  H   H865      1.0  0.73440  0.31646  0.32780  1.0000
  H   H866      1.0  0.56359  0.32498  0.37538  1.0000
  H   H867      1.0  0.51536  0.23929  0.09482  1.0000
  C   C492      1.0  0.51471  0.25104  0.45136  1.0000
  H   H868      1.0  0.84412  0.28781  0.22769  1.0000
  H   H869      1.0  0.52343  0.19773  0.13855  1.0000
  H   H870      1.0  0.53012  0.23866  0.12788  1.0000
  H   H871      1.0  0.50261  0.24131  0.47069  1.0000
  C   C493      1.0  0.76367  0.31432  0.28092  1.0000
  S   S106      1.0  0.53244  0.18523  0.99562  1.0000
  H   H872      1.0  0.77965  0.31821  0.09937  1.0000
  H   H873      1.0  0.49842  0.99660  0.36501  1.0000
  H   H874      1.0  0.58330  0.32663  0.46140  1.0000
  N   N27       1.0  0.49090  0.00634  0.40651  1.0000
  C   C494      1.0  0.50663  0.02124  0.43241  1.0000
  H   H875      1.0  0.81298  0.32552  0.26288  1.0000
  H   H876      1.0  0.52406  0.02685  0.48737  1.0000
  H   H877      1.0  0.55218  0.20879  0.92227  1.0000
  S   S107      1.0  0.81528  0.27138  0.66627  1.0000
  Fe  Fe54      1.0  0.61516  0.08118  0.72233  1.0000
  S   S108      1.0  0.57671  0.08335  0.73232  1.0000
  S   S109      1.0  0.61547  0.04004  0.72714  1.0000
  Fe  Fe55      1.0  0.64970  0.14397  0.70498  1.0000
  S   S110      1.0  0.61241  0.14871  0.71393  1.0000
  S   S111      1.0  0.68468  0.18634  0.68773  1.0000
  Fe  Fe56      1.0  0.60605  0.12401  0.75322  1.0000
  S   S112      1.0  0.59843  0.14376  0.79159  1.0000
  Fe  Fe57      1.0  0.58686  0.10805  0.69241  1.0000
  S   S113      1.0  0.55235  0.10060  0.66235  1.0000
  S   S114      1.0  0.64462  0.12108  0.74566  1.0000
  S   S115      1.0  0.62382  0.10394  0.68103  1.0000
  C   C495      1.0  0.78718  0.19885  0.62474  1.0000
  H   H878      1.0  0.49727  0.26456  0.97004  1.0000
  Fe  Fe58      1.0  0.53988  0.10497  0.95274  1.0000
  S   S116      1.0  0.55275  0.09211  0.91253  1.0000
  C   C496      1.0  0.49381  0.06059  0.84650  1.0000
  S   S117      1.0  0.57862  0.13127  0.53428  1.0000
  H   H879      1.0  0.75411  0.29861  0.62159  1.0000
  H   H880      1.0  0.62159  0.19935  0.75718  1.0000
  H   H881      1.0  0.54870  0.25101  0.53811  1.0000
  C   C497      1.0  0.58521  0.05930  0.54384  1.0000
  C   C498      1.0  0.56048  0.10889  0.62691  1.0000
  C   C499      1.0  0.53857  0.10036  0.60794  1.0000
  C   C500      1.0  0.54404  0.10656  0.57955  1.0000
  C   C501      1.0  0.57144  0.12188  0.56978  1.0000
  C   C502      1.0  0.59346  0.13029  0.58874  1.0000
  C   C503      1.0  0.58802  0.12374  0.61724  1.0000
  H   H882      1.0  0.51722  0.08866  0.61522  1.0000
  H   H883      1.0  0.52696  0.09924  0.56529  1.0000
  H   H884      1.0  0.61478  0.14206  0.58141  1.0000
  H   H885      1.0  0.60510  0.13041  0.63174  1.0000
  C   C504      1.0  0.58563  0.12895  0.82506  1.0000
  C   C505      1.0  0.57899  0.14380  0.84435  1.0000
  C   C506      1.0  0.56905  0.13304  0.87125  1.0000
  C   C507      1.0  0.56586  0.10732  0.87925  1.0000
  C   C508      1.0  0.57261  0.09253  0.85999  1.0000
  C   C509      1.0  0.58230  0.10317  0.83303  1.0000
  H   H886      1.0  0.58151  0.16376  0.83842  1.0000
  H   H887      1.0  0.56393  0.14464  0.88577  1.0000
  H   H888      1.0  0.57052  0.07277  0.86600  1.0000
  H   H889      1.0  0.58746  0.09157  0.81852  1.0000
  C   C510      1.0  0.77896  0.24847  0.67323  1.0000
  C   C511      1.0  0.76997  0.22152  0.68384  1.0000
  C   C512      1.0  0.74134  0.20214  0.68817  1.0000
  C   C513      1.0  0.72117  0.20951  0.68216  1.0000
  C   C514      1.0  0.73020  0.23665  0.67209  1.0000
  C   C515      1.0  0.75882  0.25602  0.66781  1.0000
  H   H890      1.0  0.78527  0.21542  0.68841  1.0000
  H   H891      1.0  0.73490  0.18147  0.69604  1.0000
  H   H892      1.0  0.71489  0.24275  0.66757  1.0000
  H   H893      1.0  0.76528  0.27673  0.66013  1.0000
  H   H894      1.0  0.75668  0.28123  0.56131  1.0000
  H   H895      1.0  0.78721  0.28540  0.72334  1.0000
  H   H896      1.0  0.86091  0.28975  0.51134  1.0000
  H   H897      1.0  0.53684  0.32257  0.94486  1.0000
  H   H898      1.0  0.79796  0.19120  0.61095  1.0000
  C   C516      1.0  0.56004  0.05374  0.56153  1.0000
  H   H899      1.0  0.54283  0.01135  0.89627  1.0000
  C   C517      1.0  0.64322  0.21499  0.75088  1.0000
  H   H900      1.0  0.51038  0.04840  0.57449  1.0000
  H   H901      1.0  0.52799  0.24820  0.61414  1.0000
  C   C518      1.0  0.81015  0.27832  0.56141  1.0000
  C   C519      1.0  0.73316  0.22011  0.56129  1.0000
  N   N28       1.0  0.53259  0.17474  0.60151  1.0000
  C   C520      1.0  0.52987  0.16285  0.63043  1.0000
  H   H902      1.0  0.49155  0.01855  0.55386  1.0000
  C   C521      1.0  0.56071  0.18133  0.59019  1.0000
  C   C522      1.0  0.53086  0.20111  0.60085  1.0000
  H   H903      1.0  0.51360  0.13435  0.58197  1.0000
  C   C523      1.0  0.55458  0.18030  0.65034  1.0000
  C   C524      1.0  0.56640  0.19011  0.55915  1.0000
  Fe  Fe59      1.0  0.83917  0.31680  0.65036  1.0000
  H   H904      1.0  0.52198  0.20791  0.64373  1.0000
  H   H905      1.0  0.64436  0.21549  0.72779  1.0000
  C   C525      1.0  0.54716  0.17018  0.68041  1.0000
  C   C526      1.0  0.59724  0.20251  0.55189  1.0000
  H   H906      1.0  0.52771  0.14177  0.62931  1.0000
  H   H907      1.0  0.49335  0.05790  0.80117  1.0000
  C   C527      1.0  0.52650  0.01400  0.90680  1.0000
  S   S118      1.0  0.53071  0.07329  0.98669  1.0000
  H   H908      1.0  0.56382  0.16316  0.59301  1.0000
  H   H909      1.0  0.57775  0.19863  0.60214  1.0000
  H   H910      1.0  0.55189  0.21992  0.60336  1.0000
  H   H911      1.0  0.52373  0.20370  0.58000  1.0000
  S   S119      1.0  0.49929  0.10370  0.52168  1.0000
  C   C528      1.0  0.71565  0.19885  0.53907  1.0000
  H   H912      1.0  0.57278  0.17809  0.64447  1.0000
  H   H913      1.0  0.56101  0.20272  0.64938  1.0000
  H   H914      1.0  0.56058  0.20604  0.55427  1.0000
  H   H915      1.0  0.55438  0.17171  0.54556  1.0000
  H   H916      1.0  0.49878  0.04471  0.90768  1.0000
  H   H917      1.0  0.58872  0.30769  0.91712  1.0000
  C   C529      1.0  0.76459  0.23629  0.55308  1.0000
  H   H918      1.0  0.80257  0.21430  0.63945  1.0000
  H   H919      1.0  0.72505  0.23466  0.56345  1.0000
  H   H920      1.0  0.55205  0.01186  0.57121  1.0000
  H   H921      1.0  0.54101  0.14781  0.68206  1.0000
  H   H922      1.0  0.56560  0.18233  0.69392  1.0000
  H   H923      1.0  0.52981  0.17297  0.68803  1.0000
  H   H924      1.0  0.77791  0.31633  0.83201  1.0000
  H   H925      1.0  0.78509  0.30829  0.58020  1.0000
  H   H926      1.0  0.52101  0.05479  0.81785  1.0000
  H   H927      1.0  0.55442  0.01493  0.72304  1.0000
  H   H928      1.0  0.77106  0.18094  0.63697  1.0000
  H   H929      1.0  0.72525  0.27138  0.60243  1.0000
  H   H930      1.0  0.61004  0.22262  0.56281  1.0000
  N   N29       1.0  0.78509  0.25417  0.57524  1.0000
  C   C530      1.0  0.77309  0.26631  0.59525  1.0000
  H   H931      1.0  0.50977  0.06858  0.86310  1.0000
  C   C531      1.0  0.53814  0.21756  0.92436  1.0000
  H   H932      1.0  0.55592  0.28643  0.98406  1.0000
  H   H933      1.0  0.51026  0.01798  0.63009  1.0000
  C   C532      1.0  0.79548  0.23786  0.59154  1.0000
  S   S120      1.0  0.49988  0.10557  0.95924  1.0000
  C   C533      1.0  0.50857  0.24841  0.53822  1.0000
  H   H934      1.0  0.72193  0.18281  0.53697  1.0000
  H   H935      1.0  0.53136  0.20369  0.51831  1.0000
  H   H936      1.0  0.55823  0.29220  0.89635  1.0000
  H   H937      1.0  0.57007  0.25927  0.91443  1.0000
  H   H938      1.0  0.56726  0.25011  0.95076  1.0000
  C   C534      1.0  0.76582  0.28761  0.58235  1.0000
  H   H939      1.0  0.52371  0.24970  0.95595  1.0000
  H   H940      1.0  0.52702  0.21469  0.90436  1.0000
  H   H941      1.0  0.81419  0.25397  0.52727  1.0000
  H   H942      1.0  0.57525  0.02910  0.66395  1.0000
  H   H943      1.0  0.83813  0.30417  0.51198  1.0000
  H   H944      1.0  0.75424  0.24972  0.60585  1.0000
  H   H945      1.0  0.69328  0.18819  0.54511  1.0000
  H   H946      1.0  0.80571  0.22977  0.57757  1.0000
  H   H947      1.0  0.60462  0.18793  0.55781  1.0000
  H   H948      1.0  0.72927  0.20885  0.58130  1.0000
  H   H949      1.0  0.65689  0.18543  0.75540  1.0000
  H   H950      1.0  0.71808  0.20933  0.51868  1.0000
  C   C535      1.0  0.84884  0.29588  0.52512  1.0000
  H   H951      1.0  0.83983  0.26352  0.55446  1.0000
  H   H952      1.0  0.51230  0.16037  0.56142  1.0000
  H   H953      1.0  0.76105  0.21697  0.62204  1.0000
  C   C536      1.0  0.55902  0.03334  0.65567  1.0000
  H   H954      1.0  0.56810  0.06465  0.58156  1.0000
  C   C537      1.0  0.51701  0.21105  0.52250  1.0000
  H   H955      1.0  0.82456  0.29305  0.57737  1.0000
  H   H956      1.0  0.52216  0.03483  0.87117  1.0000
  C   C538      1.0  0.52679  0.23803  0.53345  1.0000
  C   C539      1.0  0.55914  0.99828  0.72459  1.0000
  H   H957      1.0  0.54936  0.06335  0.55049  1.0000
  H   H958      1.0  0.64791  0.23570  0.75870  1.0000
  C   C540      1.0  0.51048  0.15265  0.58316  1.0000
  S   S121      1.0  0.52250  0.28286  0.55209  1.0000
  C   C541      1.0  0.53973  0.02199  0.56561  1.0000
  H   H959      1.0  0.58514  0.29441  0.96310  1.0000
  H   H960      1.0  0.59755  0.05124  0.55441  1.0000
  C   C542      1.0  0.50824  0.01727  0.88506  1.0000
  H   H961      1.0  0.59879  0.08216  0.54073  1.0000
  H   H962      1.0  0.86366  0.31263  0.53919  1.0000
  H   H963      1.0  0.78611  0.31446  0.73847  1.0000
  C   C543      1.0  0.52777  0.29969  0.94358  1.0000
  N   N30       1.0  0.55024  0.29206  0.94068  1.0000
  H   H964      1.0  0.51054  0.15927  0.64087  1.0000
  N   N31       1.0  0.51636  0.01413  0.58620  1.0000
  H   H965      1.0  0.77022  0.22093  0.54505  1.0000
  C   C544      1.0  0.77337  0.21185  0.60759  1.0000
  H   H966      1.0  0.53570  0.04924  0.61451  1.0000
  Fe  Fe60      1.0  0.54263  0.12138  0.50513  1.0000
  N   N32       1.0  0.71647  0.22437  0.76840  1.0000
  C   C545      1.0  0.74377  0.24328  0.75382  1.0000
  C   C546      1.0  0.70943  0.19446  0.76494  1.0000
  C   C547      1.0  0.69396  0.22740  0.75382  1.0000
  C   C548      1.0  0.71663  0.23137  0.79882  1.0000
  C   C549      1.0  0.74494  0.24390  0.81434  1.0000
  C   C550      1.0  0.75107  0.27402  0.74993  1.0000
  C   C551      1.0  0.66352  0.20673  0.76303  1.0000
  C   C552      1.0  0.73083  0.18668  0.77607  1.0000
  C   C553      1.0  0.72227  0.15671  0.76834  1.0000
  C   C554      1.0  0.74110  0.24580  0.84558  1.0000
  C   C555      1.0  0.78183  0.29294  0.74245  1.0000
  H   H967      1.0  0.52320  0.08819  0.81541  1.0000
  H   H968      1.0  0.74370  0.23518  0.73270  1.0000
  H   H969      1.0  0.76150  0.24330  0.76443  1.0000
  H   H970      1.0  0.68951  0.17996  0.77571  1.0000
  H   H971      1.0  0.70593  0.18868  0.74254  1.0000
  H   H972      1.0  0.69509  0.22509  0.73092  1.0000
  H   H973      1.0  0.69725  0.24870  0.75689  1.0000
  H   H974      1.0  0.70948  0.24673  0.80157  1.0000
  H   H975      1.0  0.70109  0.21252  0.81056  1.0000
  H   H976      1.0  0.75947  0.26534  0.80674  1.0000
  H   H977      1.0  0.75526  0.23147  0.81133  1.0000
  H   H978      1.0  0.73855  0.27535  0.73257  1.0000
  H   H979      1.0  0.74641  0.28217  0.76898  1.0000
  H   H980      1.0  0.66134  0.20588  0.78601  1.0000
  C   C556      1.0  0.51205  0.20400  0.62294  1.0000
  H   H981      1.0  0.75193  0.20030  0.76730  1.0000
  H   H982      1.0  0.73160  0.18781  0.79908  1.0000
  H   H983      1.0  0.73788  0.15152  0.77641  1.0000
  H   H984      1.0  0.70164  0.14181  0.77757  1.0000
  H   H985      1.0  0.72111  0.15412  0.74538  1.0000
  H   H986      1.0  0.72760  0.22468  0.85460  1.0000
  H   H987      1.0  0.76169  0.25538  0.85607  1.0000
  H   H988      1.0  0.73158  0.25891  0.84974  1.0000
  H   H989      1.0  0.49526  0.23096  0.63268  1.0000
  S   S122      1.0  0.56417  0.14079  0.98190  1.0000
  H   H990      1.0  0.79540  0.29360  0.75975  1.0000
  H   H991      1.0  0.53699  0.03282  0.92014  1.0000
  C   C557      1.0  0.50823  0.28761  0.96926  1.0000
  C   C558      1.0  0.82769  0.27065  0.54203  1.0000
  C   C559      1.0  0.55520  0.24848  0.93173  1.0000
  Fe  Fe61      1.0  0.51470  0.32015  0.55589  1.0000
  H   H992      1.0  0.81174  0.25188  0.60666  1.0000
  H   H993      1.0  0.74120  0.30717  0.59099  1.0000
  H   H994      1.0  0.57844  0.04942  0.52313  1.0000
  H   H995      1.0  0.52266  0.20573  0.94097  1.0000
  H   H996      1.0  0.76602  0.24917  0.53461  1.0000
  C   C560      1.0  0.53588  0.26078  0.93707  1.0000
  C   C561      1.0  0.50863  0.06550  0.81847  1.0000
  C   C562      1.0  0.50768  0.22847  0.61600  1.0000
  C   C563      1.0  0.52747  0.02638  0.61451  1.0000
  H   H997      1.0  0.80357  0.29071  0.54849  1.0000
  C   C564      1.0  0.56831  0.29948  0.96619  1.0000
  H   H998      1.0  0.75914  0.19566  0.59280  1.0000
  H   H999      1.0  0.56940  0.03097  0.61335  1.0000
  H   H1000     1.0  0.78809  0.27723  0.61246  1.0000
  H   H1001     1.0  0.56783  0.05627  0.65505  1.0000
  C   C565      1.0  0.56778  0.30567  0.91492  1.0000
  H   H1002     1.0  0.60023  0.20631  0.52911  1.0000
  C   C566      1.0  0.74532  0.29133  0.60054  1.0000
  H   H1003     1.0  0.73456  0.31949  0.72962  1.0000
  H   H1004     1.0  0.52053  0.25416  0.91972  1.0000
  C   C567      1.0  0.55038  0.02107  0.62652  1.0000
  H   H1005     1.0  0.54092  0.02390  0.67014  1.0000
  C   C568      1.0  0.49825  0.02531  0.57567  1.0000
  H   H1006     1.0  0.49849  0.99819  0.87231  1.0000
  H   H1007     1.0  0.49615  0.22466  0.59610  1.0000
  C   C569      1.0  0.58697  0.00482  0.72676  1.0000
  H   H1008     1.0  0.51454  0.29321  0.92455  1.0000
  Fe  Fe62      1.0  0.49583  0.13322  0.49187  1.0000
  H   H1009     1.0  0.52022  0.29590  0.98879  1.0000
  H   H1010     1.0  0.51640  0.00014  0.81688  1.0000
  C   C570      1.0  0.58569  0.31672  0.50407  1.0000
  H   H1011     1.0  0.57707  0.29841  0.51827  1.0000
  H   H1012     1.0  0.53117  0.01383  0.54463  1.0000
  H   H1013     1.0  0.52319  0.00276  0.78002  1.0000
  H   H1014     1.0  0.54283  0.99842  0.62807  1.0000
  H   H1015     1.0  0.49504  0.31861  0.96774  1.0000
  H   H1016     1.0  0.49126  0.18507  0.62461  1.0000
  H   H1017     1.0  0.53257  0.28229  0.49417  1.0000
  H   H1018     1.0  0.51375  0.99545  0.92014  1.0000
  H   H1019     1.0  0.60863  0.32578  0.50288  1.0000
  H   H1020     1.0  0.73538  0.35413  0.08361  1.0000
  Fe  Fe63      1.0  0.51195  0.59101  0.29263  1.0000
  S   S123      1.0  0.54732  0.58490  0.27644  1.0000
  H   H1021     1.0  0.61524  0.32833  0.99981  1.0000
  S   S124      1.0  0.50845  0.61509  0.32882  1.0000
  Fe  Fe64      1.0  0.60279  0.44872  0.27459  1.0000
  S   S125      1.0  0.64135  0.48790  0.28864  1.0000
  S   S126      1.0  0.59274  0.44667  0.22837  1.0000
  Fe  Fe65      1.0  0.58581  0.42846  0.33506  1.0000
  S   S127      1.0  0.62302  0.46612  0.35234  1.0000
  S   S128      1.0  0.55266  0.39503  0.36290  1.0000
  Fe  Fe66      1.0  0.61269  0.49003  0.32095  1.0000
  S   S129      1.0  0.60532  0.52441  0.33755  1.0000
  Fe  Fe67      1.0  0.64762  0.45988  0.31867  1.0000
  S   S130      1.0  0.68325  0.45056  0.32641  1.0000
  S   S131      1.0  0.57439  0.45246  0.30542  1.0000
  S   S132      1.0  0.61027  0.42064  0.30260  1.0000
  Fe  Fe68      1.0  0.89137  0.47659  0.38316  1.0000
  S   S133      1.0  0.87148  0.43306  0.40046  1.0000
  S   S134      1.0  0.93781  0.49357  0.37421  1.0000
  Fe  Fe69      1.0  0.83279  0.47119  0.37436  1.0000
  S   S135      1.0  0.81003  0.42726  0.39082  1.0000
  S   S136      1.0  0.81048  0.49494  0.36104  1.0000
  Fe  Fe70      1.0  0.84296  0.44310  0.42431  1.0000
  S   S137      1.0  0.83388  0.43745  0.47093  1.0000
  Fe  Fe71      1.0  0.84102  0.42160  0.36528  1.0000
  S   S138      1.0  0.83308  0.38471  0.33853  1.0000
  S   S139      1.0  0.86455  0.48770  0.40921  1.0000
  S   S140      1.0  0.86190  0.46448  0.34672  1.0000
  Fe  Fe72      1.0  0.89812  0.36211  0.15189  1.0000
  S   S141      1.0  0.90006  0.40336  0.14852  1.0000
  S   S142      1.0  0.93774  0.35889  0.15312  1.0000
  C   C571      1.0  0.52819  0.45335  0.37004  1.0000
  Fe  Fe73      1.0  0.86837  0.38332  0.11449  1.0000
  S   S143      1.0  0.87127  0.41234  0.07894  1.0000
  Fe  Fe74      1.0  0.86404  0.38497  0.17852  1.0000
  S   S144      1.0  0.85754  0.41160  0.20986  1.0000
  H   H1022     1.0  0.66665  0.40534  0.47031  1.0000
  S   S145      1.0  0.86424  0.34497  0.18508  1.0000
  H   H1023     1.0  0.54016  0.51297  0.22935  1.0000
  S   S146      1.0  0.54349  0.38397  0.07741  1.0000
  Fe  Fe75      1.0  0.55044  0.36568  0.03886  1.0000
  S   S147      1.0  0.58493  0.39397  0.00907  1.0000
  Fe  Fe76      1.0  0.53885  0.34662  0.09991  1.0000
  H   H1024     1.0  0.77416  0.32936  0.00119  1.0000
  C   C572      1.0  0.83917  0.39159  0.30261  1.0000
  C   C573      1.0  0.84814  0.37648  0.28651  1.0000
  C   C574      1.0  0.85340  0.38198  0.25784  1.0000
  C   C575      1.0  0.84916  0.40225  0.24510  1.0000
  C   C576      1.0  0.83946  0.41676  0.26110  1.0000
  C   C577      1.0  0.83477  0.41169  0.28977  1.0000
  H   H1025     1.0  0.85149  0.36084  0.29636  1.0000
  H   H1026     1.0  0.86104  0.37082  0.24568  1.0000
  H   H1027     1.0  0.83585  0.43226  0.25134  1.0000
  H   H1028     1.0  0.82738  0.42309  0.30188  1.0000
  C   C578      1.0  0.56443  0.44967  0.03274  1.0000
  H   H1029     1.0  0.61403  0.52095  0.39901  1.0000
  C   C579      1.0  0.86832  0.42865  0.02571  1.0000
  C   C580      1.0  0.87180  0.40962  0.04224  1.0000
  C   C581      1.0  0.87435  0.38852  0.02920  1.0000
  C   C582      1.0  0.89530  0.51382  0.48255  1.0000
  H   H1030     1.0  0.60275  0.43824  0.44930  1.0000
  H   H1031     1.0  0.86634  0.44506  0.03562  1.0000
  H   H1032     1.0  0.87706  0.37375  0.04163  1.0000
  H   H1033     1.0  0.63959  0.36310  0.37301  1.0000
  C   C583      1.0  0.71869  0.46359  0.33639  1.0000
  C   C584      1.0  0.72864  0.44477  0.33868  1.0000
  C   C585      1.0  0.75640  0.45386  0.34671  1.0000
  C   C586      1.0  0.77485  0.48207  0.35205  1.0000
  C   C587      1.0  0.76495  0.50094  0.34952  1.0000
  C   C588      1.0  0.73703  0.49178  0.34199  1.0000
  H   H1034     1.0  0.71473  0.42292  0.33437  1.0000
  H   H1035     1.0  0.76365  0.43908  0.34846  1.0000
  H   H1036     1.0  0.77901  0.52283  0.35358  1.0000
  H   H1037     1.0  0.72980  0.50656  0.34042  1.0000
  C   C589      1.0  0.55659  0.39821  0.39941  1.0000
  C   C590      1.0  0.58109  0.41922  0.41131  1.0000
  C   C591      1.0  0.58393  0.42149  0.44028  1.0000
  C   C592      1.0  0.56273  0.40224  0.45776  1.0000
  C   C593      1.0  0.53816  0.38096  0.44604  1.0000
  C   C594      1.0  0.53501  0.37916  0.41689  1.0000
  H   H1038     1.0  0.59793  0.43379  0.39829  1.0000
  H   H1039     1.0  0.70867  0.45997  0.45110  1.0000
  H   H1040     1.0  0.52159  0.36612  0.45941  1.0000
  H   H1041     1.0  0.51590  0.36288  0.40785  1.0000
  C   C595      1.0  0.58302  0.41847  0.20523  1.0000
  C   C596      1.0  0.57775  0.39226  0.21426  1.0000
  C   C597      1.0  0.56952  0.37039  0.19500  1.0000
  C   C598      1.0  0.56611  0.37440  0.16668  1.0000
  C   C599      1.0  0.57136  0.40061  0.15773  1.0000
  C   C600      1.0  0.57992  0.42254  0.17690  1.0000
  H   H1042     1.0  0.57996  0.38881  0.23603  1.0000
  H   H1043     1.0  0.56555  0.35019  0.20211  1.0000
  H   H1044     1.0  0.56911  0.40407  0.13599  1.0000
  H   H1045     1.0  0.58413  0.44280  0.16970  1.0000
  H   H1046     1.0  0.76078  0.48313  0.44671  1.0000
  C   C601      1.0  0.84298  0.39371  0.48354  1.0000
  H   H1047     1.0  0.70367  0.42676  0.44280  1.0000
  H   H1048     1.0  0.96312  0.53014  0.48316  1.0000
  H   H1049     1.0  0.96323  0.41865  0.16407  1.0000
  C   C602      1.0  0.56074  0.56564  0.29383  1.0000
  C   C603      1.0  0.57364  0.55387  0.27812  1.0000
  C   C604      1.0  0.58595  0.53980  0.29108  1.0000
  C   C605      1.0  0.58679  0.53857  0.32012  1.0000
  C   C606      1.0  0.57422  0.55067  0.33587  1.0000
  C   C607      1.0  0.56062  0.56345  0.32286  1.0000
  H   H1050     1.0  0.57477  0.55627  0.25582  1.0000
  H   H1051     1.0  0.59603  0.53116  0.27865  1.0000
  H   H1052     1.0  0.57554  0.55068  0.35828  1.0000
  H   H1053     1.0  0.55123  0.57280  0.33528  1.0000
  H   H1054     1.0  0.77558  0.35862  0.09645  1.0000
  C   C608      1.0  0.97078  0.51778  0.38859  1.0000
  H   H1055     1.0  0.92937  0.45870  0.99398  1.0000
  H   H1056     1.0  0.54760  0.60157  0.21248  1.0000
  H   H1057     1.0  0.95743  0.54322  0.40965  1.0000
  H   H1058     1.0  0.71159  0.49753  0.42896  1.0000
  H   H1059     1.0  0.67385  0.39861  0.40737  1.0000
  H   H1060     1.0  0.62516  0.39176  0.40016  1.0000
  H   H1061     1.0  0.52751  0.40982  0.02930  1.0000
  H   H1062     1.0  0.50544  0.39580  0.13144  1.0000
  H   H1063     1.0  0.54359  0.61157  0.17781  1.0000
  H   H1064     1.0  0.52043  0.55174  0.22700  1.0000
  H   H1065     1.0  0.56700  0.44622  0.05505  1.0000
  C   C609      1.0  0.51635  0.60519  0.42904  1.0000
  H   H1066     1.0  0.80911  0.36742  0.08434  1.0000
  H   H1067     1.0  0.57760  0.44385  0.02025  1.0000
  H   H1068     1.0  0.58101  0.47046  0.39084  1.0000
  C   C610      1.0  0.97972  0.41398  0.16082  1.0000
  C   C611      1.0  0.79800  0.39940  0.07828  1.0000
  S   S148      1.0  0.55537  0.34629  0.14318  1.0000
  S   S149      1.0  0.86757  0.34235  0.11626  1.0000
  C   C612      1.0  0.79261  0.35060  0.00082  1.0000
  C   C613      1.0  0.89450  0.48807  0.25711  1.0000
  H   H1069     1.0  0.55531  0.54523  0.21017  1.0000
  H   H1070     1.0  0.52134  0.41811  0.46933  1.0000
  C   C614      1.0  0.77928  0.34765  0.19555  1.0000
  H   H1071     1.0  0.52138  0.56592  0.39643  1.0000
  C   C615      1.0  0.70594  0.34935  0.05228  1.0000
  S   S150      1.0  0.83254  0.36809  0.14442  1.0000
  C   C616      1.0  0.51364  0.49927  0.37454  1.0000
  C   C617      1.0  0.50638  0.54547  0.20862  1.0000
  H   H1072     1.0  0.58995  0.33914  0.40233  1.0000
  H   H1073     1.0  0.53748  0.43975  0.19618  1.0000
  C   C618      1.0  0.64864  0.40150  0.45716  1.0000
  H   H1074     1.0  0.58490  0.52390  0.20849  1.0000
  H   H1075     1.0  0.80685  0.38733  0.02665  1.0000
  H   H1076     1.0  0.51409  0.43939  0.31406  1.0000
  C   C619      1.0  0.54499  0.52226  0.20819  1.0000
  H   H1077     1.0  0.95079  0.42502  0.42896  1.0000
  H   H1078     1.0  0.55859  0.62762  0.41165  1.0000
  C   C620      1.0  0.79002  0.36823  0.07862  1.0000
  H   H1079     1.0  0.94828  0.44405  0.39967  1.0000
  H   H1080     1.0  0.90808  0.42957  0.46548  1.0000
  C   C621      1.0  0.95034  0.41706  0.09512  1.0000
  C   C622      1.0  0.92092  0.48787  0.26565  1.0000
  H   H1081     1.0  0.53291  0.51891  0.37991  1.0000
  C   C623      1.0  0.91246  0.47922  0.47715  1.0000
  C   C624      1.0  0.55602  0.48897  0.40452  1.0000
  H   H1082     1.0  0.84481  0.39166  0.46138  1.0000
  C   C625      1.0  0.91654  0.43003  0.33532  1.0000
  H   H1083     1.0  0.89941  0.43486  0.33580  1.0000
  H   H1084     1.0  0.95258  0.44541  0.20416  1.0000
  C   C626      1.0  0.90574  0.40172  0.34952  1.0000
  Fe  Fe77      1.0  0.49774  0.35817  0.06752  1.0000
  C   C627      1.0  0.53379  0.43179  0.02462  1.0000
  C   C628      1.0  0.79998  0.36496  0.02989  1.0000
  C   C629      1.0  0.52207  0.44401  0.23571  1.0000
  S   S151      1.0  0.50523  0.34178  0.02744  1.0000
  H   H1085     1.0  0.82636  0.41205  0.11363  1.0000
  H   H1086     1.0  0.52431  0.51966  0.16898  1.0000
  H   H1087     1.0  0.54789  0.57932  0.42319  1.0000
  H   H1088     1.0  0.57173  0.47213  0.02952  1.0000
  N   N33       1.0  0.52714  0.46545  0.39781  1.0000
  H   H1089     1.0  0.79066  0.40130  0.12271  1.0000
  H   H1090     1.0  0.60529  0.51594  0.43570  1.0000
  H   H1091     1.0  0.92919  0.46813  0.04436  1.0000
  C   C630      1.0  0.54131  0.58425  0.40317  1.0000
  H   H1092     1.0  0.52869  0.43124  0.41822  1.0000
  H   H1093     1.0  0.55345  0.45887  0.12803  1.0000
  H   H1094     1.0  0.61751  0.37186  0.35295  1.0000
  C   C631      1.0  0.50913  0.43555  0.13845  1.0000
  H   H1095     1.0  0.97101  0.47167  0.31890  1.0000
  H   H1096     1.0  0.81898  0.36491  0.03716  1.0000
  C   C632      1.0  0.53175  0.65464  0.44044  1.0000
  H   H1097     1.0  0.64377  0.38393  0.44300  1.0000
  H   H1098     1.0  0.66060  0.44473  0.45702  1.0000
  C   C633      1.0  0.49188  0.41134  0.19744  1.0000
  H   H1099     1.0  0.77574  0.47585  0.41691  1.0000
  H   H1100     1.0  0.81554  0.41177  0.06377  1.0000
  N   N34       1.0  0.50755  0.62684  0.43157  1.0000
  N   N35       1.0  0.92993  0.46775  0.48894  1.0000
  C   C634      1.0  0.50731  0.42694  0.47006  1.0000
  C   C635      1.0  0.97491  0.54042  0.40478  1.0000
  Fe  Fe78      1.0  0.83380  0.32837  0.14942  1.0000
  H   H1101     1.0  0.50233  0.53027  0.00281  1.0000
  C   C636      1.0  0.87241  0.38595  0.00001  1.0000
  C   C637      1.0  0.53268  0.59660  0.19506  1.0000
  H   H1102     1.0  0.90018  0.50837  0.24722  1.0000
  H   H1103     1.0  0.51693  0.46000  0.22884  1.0000
  C   C638      1.0  0.78727  0.33869  0.22245  1.0000
  C   C639      1.0  0.53298  0.45129  0.11771  1.0000
  H   H1104     1.0  0.92272  0.39677  0.35169  1.0000
  H   H1105     1.0  0.57243  0.46566  0.42735  1.0000
  H   H1106     1.0  0.95932  0.47135  0.24893  1.0000
  H   H1107     1.0  0.65445  0.39001  0.34646  1.0000
  H   H1108     1.0  0.88262  0.47134  0.24174  1.0000
  H   H1109     1.0  0.53989  0.44195  0.37188  1.0000
  C   C640      1.0  0.60663  0.50567  0.41645  1.0000
  H   H1110     1.0  0.52594  0.60351  0.44870  1.0000
  H   H1111     1.0  0.51178  0.45026  0.15527  1.0000
  H   H1112     1.0  0.75929  0.37545  0.03578  1.0000
  C   C641      1.0  0.75742  0.46701  0.43113  1.0000
  H   H1113     1.0  0.89228  0.46188  0.46939  1.0000
  H   H1114     1.0  0.54032  0.47018  0.35453  1.0000
  C   C642      1.0  0.53787  0.60981  0.40608  1.0000
  C   C643      1.0  0.80741  0.41250  0.10702  1.0000
  H   H1115     1.0  0.96128  0.49302  0.06087  1.0000
  H   H1116     1.0  0.80791  0.34050  0.21908  1.0000
  C   C644      1.0  0.70479  0.44564  0.43336  1.0000
  H   H1117     1.0  0.87604  0.50015  0.47067  1.0000
  H   H1118     1.0  0.92915  0.40825  0.20415  1.0000
  H   H1119     1.0  0.91712  0.41934  0.41793  1.0000
  C   C645      1.0  0.57027  0.33750  0.39475  1.0000
  H   H1120     1.0  0.73385  0.47739  0.40333  1.0000
  C   C646      1.0  0.93949  0.43520  0.42047  1.0000
  H   H1121     1.0  0.94170  0.42249  0.30617  1.0000
  H   H1122     1.0  0.96545  0.47346  0.44145  1.0000
  C   C647      1.0  0.72842  0.34357  0.06325  1.0000
  H   H1123     1.0  0.93244  0.48932  0.24633  1.0000
  H   H1124     1.0  0.50016  0.50740  0.24493  1.0000
  H   H1125     1.0  0.53117  0.43756  0.10009  1.0000
  H   H1126     1.0  0.50724  0.43087  0.25226  1.0000
  H   H1127     1.0  0.53156  0.61359  0.38545  1.0000
  H   H1128     1.0  0.91969  0.40777  0.25332  1.0000
  C   C648      1.0  0.92926  0.42831  0.24271  1.0000
  C   C649      1.0  0.97296  0.38663  0.15494  1.0000
  H   H1129     1.0  0.81265  0.43462  0.10626  1.0000
  H   H1130     1.0  0.54340  0.45485  0.24469  1.0000
  H   H1131     1.0  0.75615  0.44863  0.44188  1.0000
  H   H1132     1.0  0.89639  0.44318  0.27262  1.0000
  H   H1133     1.0  0.52158  0.43795  0.03811  1.0000
  H   H1134     1.0  0.51511  0.59923  0.20225  1.0000
  C   C650      1.0  0.97637  0.41845  0.08269  1.0000
  H   H1135     1.0  0.95697  0.50938  0.01422  1.0000
  N   N36       1.0  0.93758  0.45623  0.28848  1.0000
  C   C651      1.0  0.52956  0.43529  0.99324  1.0000
  H   H1136     1.0  0.72924  0.44312  0.39877  1.0000
  C   C652      1.0  0.50905  0.40941  0.14977  1.0000
  C   C653      1.0  0.73097  0.45855  0.41436  1.0000
  H   H1137     1.0  0.57259  0.52547  0.17422  1.0000
  C   C654      1.0  0.56610  0.51561  0.19510  1.0000
  H   H1138     1.0  0.51633  0.49268  0.35360  1.0000
  H   H1139     1.0  0.77759  0.33375  0.17818  1.0000
  C   C655      1.0  0.52191  0.56683  0.18491  1.0000
  C   C656      1.0  0.62358  0.39216  0.47645  1.0000
  H   H1140     1.0  0.90488  0.46375  0.30266  1.0000
  N   N37       1.0  0.49544  0.51521  0.20172  1.0000
  C   C657      1.0  0.52111  0.42599  0.21125  1.0000
  N   N38       1.0  0.73224  0.48287  0.24485  1.0000
  C   C658      1.0  0.70433  0.46683  0.23050  1.0000
  C   C659      1.0  0.75495  0.50053  0.22403  1.0000
  C   C660      1.0  0.73895  0.46180  0.25720  1.0000
  C   C661      1.0  0.73162  0.50055  0.26824  1.0000
  C   C662      1.0  0.72295  0.52223  0.26071  1.0000
  C   C663      1.0  0.67892  0.44771  0.24920  1.0000
  C   C664      1.0  0.76818  0.47385  0.27083  1.0000
  C   C665      1.0  0.74677  0.51250  0.19880  1.0000
  C   C666      1.0  0.77253  0.53357  0.18249  1.0000
  C   C667      1.0  0.72027  0.53629  0.28690  1.0000
  C   C668      1.0  0.65220  0.43318  0.23200  1.0000
  H   H1141     1.0  0.70558  0.45362  0.21378  1.0000
  H   H1142     1.0  0.69868  0.48103  0.21980  1.0000
  H   H1143     1.0  0.77283  0.51829  0.23475  1.0000
  H   H1144     1.0  0.76368  0.48821  0.21452  1.0000
  H   H1145     1.0  0.73693  0.44656  0.24099  1.0000
  H   H1146     1.0  0.72380  0.44937  0.27390  1.0000
  H   H1147     1.0  0.71756  0.48708  0.28500  1.0000
  H   H1148     1.0  0.75248  0.51240  0.27817  1.0000
  H   H1149     1.0  0.70256  0.51251  0.24994  1.0000
  H   H1150     1.0  0.73914  0.53889  0.24744  1.0000
  H   H1151     1.0  0.68139  0.43112  0.25939  1.0000
  H   H1152     1.0  0.67578  0.46001  0.26545  1.0000
  H   H1153     1.0  0.76905  0.48474  0.29043  1.0000
  H   H1154     1.0  0.78522  0.48884  0.25706  1.0000
  H   H1155     1.0  0.73335  0.49535  0.18433  1.0000
  H   H1156     1.0  0.73514  0.52297  0.20511  1.0000
  H   H1157     1.0  0.76601  0.54119  0.16419  1.0000
  H   H1158     1.0  0.78620  0.55176  0.19572  1.0000
  S   S152      1.0  0.55041  0.33043  0.06225  1.0000
  H   H1159     1.0  0.71374  0.55157  0.28113  1.0000
  H   H1160     1.0  0.70434  0.52060  0.30122  1.0000
  H   H1161     1.0  0.74055  0.54749  0.29794  1.0000
  H   H1162     1.0  0.63427  0.41968  0.24570  1.0000
  H   H1163     1.0  0.64796  0.44875  0.22198  1.0000
  H   H1164     1.0  0.65377  0.41989  0.21570  1.0000
  N   N39       1.0  0.67763  0.43811  0.41923  1.0000
  C   C669      1.0  0.65506  0.42836  0.44102  1.0000
  C   C670      1.0  0.67120  0.41557  0.39817  1.0000
  C   C671      1.0  0.67928  0.46284  0.40420  1.0000
  C   C672      1.0  0.69011  0.48996  0.42133  1.0000
  C   C673      1.0  0.64196  0.40227  0.38447  1.0000
  C   C674      1.0  0.94978  0.45224  0.26196  1.0000
  C   C675      1.0  0.92602  0.42943  0.30506  1.0000
  C   C676      1.0  0.69084  0.51322  0.40354  1.0000
  C   C677      1.0  0.94277  0.45857  0.43963  1.0000
  H   H1165     1.0  0.50810  0.48696  0.41727  1.0000
  H   H1166     1.0  0.90736  0.41241  0.29464  1.0000
  H   H1167     1.0  0.78957  0.35383  0.23865  1.0000
  H   H1168     1.0  0.68655  0.42400  0.38084  1.0000
  H   H1169     1.0  0.69247  0.46798  0.38525  1.0000
  H   H1170     1.0  0.65835  0.45764  0.39639  1.0000
  H   H1171     1.0  0.67637  0.48664  0.43944  1.0000
  H   H1172     1.0  0.63894  0.41819  0.37353  1.0000
  H   H1173     1.0  0.51503  0.37864  0.18911  1.0000
  H   H1174     1.0  0.69877  0.53249  0.41609  1.0000
  H   H1175     1.0  0.50786  0.56332  0.16711  1.0000
  C   C678      1.0  0.96338  0.49344  0.01573  1.0000
  H   H1176     1.0  0.53889  0.46747  0.45654  1.0000
  C   C679      1.0  0.51686  0.44255  0.41945  1.0000
  H   H1177     1.0  0.70486  0.51782  0.38531  1.0000
  H   H1178     1.0  0.66959  0.50719  0.39607  1.0000
  C   C680      1.0  0.51821  0.51069  0.19032  1.0000
  H   H1179     1.0  0.78008  0.33673  0.28012  1.0000
  H   H1180     1.0  0.63537  0.42520  0.43168  1.0000
  H   H1181     1.0  0.55742  0.58836  0.38719  1.0000
  H   H1182     1.0  0.53215  0.46950  0.10921  1.0000
  H   H1183     1.0  0.54010  0.56559  0.17724  1.0000
  H   H1184     1.0  0.93403  0.44563  0.34804  1.0000
  C   C681      1.0  0.95229  0.47809  0.04338  1.0000
  H   H1185     1.0  0.75754  0.43435  0.29107  1.0000
  C   C682      1.0  0.77443  0.45066  0.27803  1.0000
  C   C683      1.0  0.94419  0.42614  0.21698  1.0000
  C   C684      1.0  0.57830  0.48040  0.40963  1.0000
  H   H1186     1.0  0.78452  0.52376  0.17494  1.0000
  H   H1187     1.0  0.51040  0.48803  0.18788  1.0000
  H   H1188     1.0  0.91251  0.43211  0.23543  1.0000
  C   C685      1.0  0.91386  0.46151  0.28283  1.0000
  H   H1189     1.0  0.77063  0.34378  0.32969  1.0000
  C   C686      1.0  0.59893  0.33415  0.00256  1.0000
  C   C687      1.0  0.96008  0.47961  0.30551  1.0000
  H   H1190     1.0  0.92226  0.49227  0.45843  1.0000
  C   C688      1.0  0.63826  0.38046  0.36297  1.0000
  C   C689      1.0  0.50751  0.47685  0.39716  1.0000
  H   H1191     1.0  0.55718  0.49275  0.19316  1.0000
  H   H1192     1.0  0.89771  0.40215  0.37054  1.0000
  H   H1193     1.0  0.93366  0.39492  0.09753  1.0000
  H   H1194     1.0  0.98645  0.50388  0.01646  1.0000
  H   H1195     1.0  0.88833  0.38500  0.33748  1.0000
  H   H1196     1.0  0.93254  0.46894  0.42932  1.0000
  H   H1197     1.0  0.94236  0.42760  0.08141  1.0000
  H   H1198     1.0  0.52648  0.41068  0.21972  1.0000
  H   H1199     1.0  0.49826  0.45303  0.00847  1.0000
  H   H1200     1.0  0.74399  0.34113  0.02325  1.0000
  H   H1201     1.0  0.88108  0.48504  0.27550  1.0000
  H   H1202     1.0  0.79554  0.36934  0.19024  1.0000
  H   H1203     1.0  0.68841  0.34145  0.06740  1.0000
  H   H1204     1.0  0.56412  0.50442  0.38716  1.0000
  H   H1205     1.0  0.78003  0.40180  0.07226  1.0000
  H   H1206     1.0  0.60926  0.35636  0.00894  1.0000
  C   C690      1.0  0.51751  0.45170  0.45008  1.0000
  H   H1207     1.0  0.95812  0.46179  0.04591  1.0000
  H   H1208     1.0  0.62211  0.49883  0.41976  1.0000
  H   H1209     1.0  0.95486  0.42700  0.11588  1.0000
  H   H1210     1.0  0.50596  0.35711  0.14449  1.0000
  H   H1211     1.0  0.96127  0.45899  0.99395  1.0000
  H   H1212     1.0  0.55553  0.50084  0.42291  1.0000
  H   H1213     1.0  0.93344  0.50669  0.27853  1.0000
  H   H1214     1.0  0.95046  0.48791  0.32008  1.0000
  H   H1215     1.0  0.77667  0.44091  0.25880  1.0000
  H   H1216     1.0  0.79425  0.45950  0.28990  1.0000
  H   H1217     1.0  0.53594  0.65131  0.21795  1.0000
  H   H1218     1.0  0.53045  0.41571  0.15673  1.0000
  H   H1219     1.0  0.81033  0.34812  0.99368  1.0000
  C   C691      1.0  0.49318  0.37022  0.18201  1.0000
  H   H1220     1.0  0.50368  0.46056  0.45299  1.0000
  C   C692      1.0  0.86630  0.42602  0.99653  1.0000
  H   H1221     1.0  0.97121  0.41040  0.06117  1.0000
  H   H1222     1.0  0.96917  0.51270  0.45529  1.0000
  H   H1223     1.0  0.69765  0.33868  0.03210  1.0000
  H   H1224     1.0  0.51043  0.63724  0.38755  1.0000
  H   H1225     1.0  0.97581  0.51270  0.27289  1.0000
  H   H1226     1.0  0.55468  0.33768  0.43575  1.0000
  N   N40       1.0  0.77776  0.35203  0.05211  1.0000
  C   C693      1.0  0.49955  0.43254  0.35706  1.0000
  H   H1227     1.0  0.60418  0.38459  0.46414  1.0000
  H   H1228     1.0  0.94177  0.43741  0.47699  1.0000
  H   H1229     1.0  0.57432  0.35876  0.38976  1.0000
  H   H1230     1.0  0.96716  0.44840  0.26714  1.0000
  H   H1231     1.0  0.51521  0.41093  0.33150  1.0000
  H   H1232     1.0  0.54576  0.65134  0.45456  1.0000
  C   C694      1.0  0.50315  0.42184  0.32903  1.0000
  H   H1233     1.0  0.75911  0.34711  0.19806  1.0000
  H   H1234     1.0  0.50760  0.32937  0.18534  1.0000
  C   C695      1.0  0.92988  0.44704  0.46861  1.0000
  H   H1235     1.0  0.49764  0.58427  0.42579  1.0000
  C   C696      1.0  0.97249  0.51717  0.47774  1.0000
  H   H1236     1.0  0.49488  0.42639  0.41517  1.0000
  H   H1237     1.0  0.49513  0.64272  0.19074  1.0000
  C   C697      1.0  0.49254  0.60934  0.48240  1.0000
  H   H1238     1.0  0.91161  0.52885  0.46808  1.0000
  C   C698      1.0  0.98381  0.50476  0.28946  1.0000
  H   H1239     1.0  0.49551  0.52282  0.35728  1.0000
  C   C699      1.0  0.49474  0.62853  0.40445  1.0000
  C   C700      1.0  0.75287  0.35377  0.04237  1.0000
  H   H1240     1.0  0.96146  0.42248  0.22292  1.0000
  H   H1241     1.0  0.98832  0.53632  0.31935  1.0000
  H   H1242     1.0  0.98069  0.40402  0.09496  1.0000
  H   H1243     1.0  0.71448  0.37212  0.04947  1.0000
  H   H1244     1.0  0.49287  0.58950  0.48105  1.0000
  H   H1245     1.0  0.98984  0.35994  0.14605  1.0000
  C   C701      1.0  0.49004  0.50587  0.37274  1.0000
  H   H1246     1.0  0.87371  0.36914  0.99014  1.0000
  C   C702      1.0  0.95227  0.47278  0.99119  1.0000
  H   H1247     1.0  0.62036  0.42585  0.96343  1.0000
  Fe  Fe79      1.0  0.50614  0.58280  0.81281  1.0000
  S   S153      1.0  0.54154  0.57643  0.82942  1.0000
  H   H1248     1.0  0.52573  0.42357  0.88846  1.0000
  H   H1249     1.0  0.83121  0.43243  0.53029  1.0000
  Fe  Fe80      1.0  0.59965  0.41533  0.78529  1.0000
  S   S154      1.0  0.63151  0.46040  0.78064  1.0000
  S   S155      1.0  0.58736  0.38307  0.75104  1.0000
  Fe  Fe81      1.0  0.59131  0.42266  0.84707  1.0000
  S   S156      1.0  0.62321  0.46871  0.84638  1.0000
  S   S157      1.0  0.56010  0.39609  0.88049  1.0000
  Fe  Fe82      1.0  0.60259  0.46948  0.80589  1.0000
  S   S158      1.0  0.58701  0.49704  0.78580  1.0000
  Fe  Fe83      1.0  0.64939  0.45533  0.82113  1.0000
  S   S159      1.0  0.69693  0.47165  0.82006  1.0000
  S   S160      1.0  0.56978  0.42419  0.80806  1.0000
  S   S161      1.0  0.61835  0.40955  0.82446  1.0000
  Fe  Fe84      1.0  0.89230  0.47870  0.87886  1.0000
  S   S162      1.0  0.89541  0.44023  0.88074  1.0000
  S   S163      1.0  0.93215  0.52130  0.88016  1.0000
  Fe  Fe85      1.0  0.82747  0.44578  0.87599  1.0000
  S   S164      1.0  0.82759  0.40518  0.87881  1.0000
  S   S165      1.0  0.78188  0.43703  0.87434  1.0000
  Fe  Fe86      1.0  0.86046  0.42482  0.91187  1.0000
  S   S166      1.0  0.86362  0.39875  0.94718  1.0000
  Fe  Fe87      1.0  0.86243  0.42408  0.84781  1.0000
  S   S167      1.0  0.86372  0.39619  0.81440  1.0000
  S   S168      1.0  0.85834  0.46428  0.91171  1.0000
  S   S169      1.0  0.86146  0.46385  0.84315  1.0000
  Fe  Fe88      1.0  0.89819  0.37095  0.64251  1.0000
  S   S170      1.0  0.87777  0.39405  0.62518  1.0000
  S   S171      1.0  0.94476  0.40288  0.64976  1.0000
  H   H1250     1.0  0.75483  0.33027  0.79692  1.0000
  Fe  Fe89      1.0  0.85041  0.35567  0.60063  1.0000
  S   S172      1.0  0.84431  0.35295  0.55360  1.0000
  Fe  Fe90      1.0  0.84643  0.37397  0.65968  1.0000
  S   S173      1.0  0.83500  0.39969  0.68750  1.0000
  H   H1251     1.0  0.92401  0.43243  0.68246  1.0000
  C   C703      1.0  0.96560  0.46232  0.71613  1.0000
  S   S174      1.0  0.55639  0.36006  0.55844  1.0000
  S   S175      1.0  0.52368  0.39484  0.56018  1.0000
  Fe  Fe91      1.0  0.53893  0.37724  0.52720  1.0000
  H   H1252     1.0  0.50621  0.39772  0.93220  1.0000
  Fe  Fe92      1.0  0.53768  0.37423  0.59149  1.0000
  S   S176      1.0  0.56140  0.40396  0.62719  1.0000
  C   C704      1.0  0.85475  0.39754  0.77960  1.0000
  C   C705      1.0  0.85475  0.42089  0.76850  1.0000
  C   C706      1.0  0.84833  0.42131  0.74024  1.0000
  C   C707      1.0  0.84187  0.39843  0.72308  1.0000
  C   C708      1.0  0.84128  0.37494  0.73445  1.0000
  C   C709      1.0  0.84783  0.37455  0.76254  1.0000
  H   H1253     1.0  0.86019  0.43875  0.78153  1.0000
  H   H1254     1.0  0.84879  0.43955  0.73152  1.0000
  H   H1255     1.0  0.83554  0.35689  0.72167  1.0000
  H   H1256     1.0  0.84762  0.35636  0.77107  1.0000
  H   H1257     1.0  0.52431  0.45313  0.90169  1.0000
  C   C710      1.0  0.83529  0.41658  0.52239  1.0000
  C   C711      1.0  0.83790  0.39842  0.54114  1.0000
  C   C712      1.0  0.84251  0.37744  0.53112  1.0000
  C   C713      1.0  0.84518  0.37528  0.50226  1.0000
  H   H1258     1.0  0.58115  0.33250  0.51295  1.0000
  H   H1259     1.0  0.73288  0.34485  0.77063  1.0000
  H   H1260     1.0  0.83575  0.40028  0.56327  1.0000
  H   H1261     1.0  0.52661  0.53770  0.94477  1.0000
  S   S177      1.0  0.49821  0.33723  0.52272  1.0000
  C   C714      1.0  0.72004  0.46145  0.83538  1.0000
  C   C715      1.0  0.74866  0.47649  0.82848  1.0000
  C   C716      1.0  0.76787  0.46957  0.84018  1.0000
  C   C717      1.0  0.75880  0.44733  0.85904  1.0000
  C   C718      1.0  0.73017  0.43223  0.86584  1.0000
  C   C719      1.0  0.71094  0.43911  0.85409  1.0000
  H   H1262     1.0  0.75613  0.49395  0.81424  1.0000
  H   H1263     1.0  0.78975  0.48169  0.83485  1.0000
  H   H1264     1.0  0.72279  0.41517  0.88055  1.0000
  H   H1265     1.0  0.68914  0.42736  0.85984  1.0000
  C   C720      1.0  0.56775  0.39644  0.91611  1.0000
  C   C721      1.0  0.59452  0.41350  0.92671  1.0000
  C   C722      1.0  0.59957  0.41271  0.95532  1.0000
  H   H1266     1.0  0.90310  0.47619  0.95114  1.0000
  C   C723      1.0  0.55119  0.37804  0.96274  1.0000
  C   C724      1.0  0.54616  0.37866  0.93421  1.0000
  H   H1267     1.0  0.61133  0.42720  0.91290  1.0000
  H   H1268     1.0  0.61473  0.35168  0.89051  1.0000
  H   H1269     1.0  0.69252  0.40310  0.75684  1.0000
  H   H1270     1.0  0.52547  0.36520  0.92605  1.0000
  C   C725      1.0  0.57885  0.38874  0.71711  1.0000
  C   C726      1.0  0.58652  0.41550  0.70770  1.0000
  C   C727      1.0  0.58090  0.41961  0.68010  1.0000
  C   C728      1.0  0.56702  0.39703  0.66182  1.0000
  C   C729      1.0  0.55885  0.37015  0.67139  1.0000
  C   C730      1.0  0.56505  0.36610  0.69886  1.0000
  H   H1271     1.0  0.59738  0.43309  0.72149  1.0000
  H   H1272     1.0  0.58770  0.44049  0.67266  1.0000
  H   H1273     1.0  0.54825  0.35261  0.65748  1.0000
  H   H1274     1.0  0.55909  0.34531  0.70599  1.0000
  C   C731      1.0  0.94784  0.50545  0.95834  1.0000
  C   C732      1.0  0.97885  0.40860  0.64251  1.0000
  H   H1275     1.0  0.66970  0.43904  0.66217  1.0000
  C   C733      1.0  0.67061  0.39855  0.75673  1.0000
  H   H1276     1.0  0.96590  0.36843  0.62467  1.0000
  C   C734      1.0  0.55239  0.55285  0.81731  1.0000
  C   C735      1.0  0.54923  0.54422  0.78958  1.0000
  C   C736      1.0  0.56029  0.52756  0.78034  1.0000
  C   C737      1.0  0.57343  0.51803  0.79888  1.0000
  C   C738      1.0  0.57603  0.52613  0.82674  1.0000
  C   C739      1.0  0.56617  0.54390  0.83568  1.0000
  H   H1277     1.0  0.53930  0.55137  0.77499  1.0000
  H   H1278     1.0  0.55894  0.52237  0.75858  1.0000
  H   H1279     1.0  0.58652  0.51950  0.84119  1.0000
  H   H1280     1.0  0.56963  0.55101  0.85691  1.0000
  C   C740      1.0  0.69952  0.36506  0.83540  1.0000
  C   C741      1.0  0.96919  0.53733  0.88313  1.0000
  H   H1281     1.0  0.95311  0.46906  0.77980  1.0000
  H   H1282     1.0  0.50629  0.50960  0.90920  1.0000
  H   H1283     1.0  0.97313  0.57788  0.88492  1.0000
  N   N41       1.0  0.67740  0.43686  0.72110  1.0000
  C   C742      1.0  0.67366  0.46199  0.71898  1.0000
  C   C743      1.0  0.65779  0.41418  0.70136  1.0000
  C   C744      1.0  0.66956  0.42552  0.75040  1.0000
  C   C745      1.0  0.70720  0.44430  0.71611  1.0000
  C   C746      1.0  0.72034  0.45882  0.68813  1.0000
  C   C747      1.0  0.69310  0.48737  0.73739  1.0000
  H   H1284     1.0  0.76111  0.33771  0.70359  1.0000
  C   C748      1.0  0.65084  0.42341  0.67338  1.0000
  C   C749      1.0  0.74833  0.36599  0.76312  1.0000
  C   C750      1.0  0.75157  0.46894  0.68751  1.0000
  C   C751      1.0  0.68802  0.51169  0.73231  1.0000
  H   H1285     1.0  0.77029  0.37075  0.98418  1.0000
  H   H1286     1.0  0.65165  0.45574  0.72403  1.0000
  H   H1287     1.0  0.67693  0.47014  0.69742  1.0000
  H   H1288     1.0  0.97289  0.50047  0.88165  1.0000
  H   H1289     1.0  0.63707  0.40078  0.71145  1.0000
  H   H1290     1.0  0.64816  0.42130  0.75545  1.0000
  H   H1291     1.0  0.68354  0.44104  0.76592  1.0000
  H   H1292     1.0  0.72073  0.45747  0.73338  1.0000
  H   H1293     1.0  0.75531  0.45122  0.69059  1.0000
  H   H1294     1.0  0.71792  0.47720  0.68433  1.0000
  H   H1295     1.0  0.71067  0.44381  0.67083  1.0000
  H   H1296     1.0  0.68948  0.48215  0.75980  1.0000
  H   H1297     1.0  0.71536  0.49494  0.73270  1.0000
  H   H1298     1.0  0.54150  0.42706  0.98209  1.0000
  H   H1299     1.0  0.89413  0.36355  0.74325  1.0000
  H   H1300     1.0  0.63758  0.43280  0.67731  1.0000
  H   H1301     1.0  0.53826  0.43019  0.93766  1.0000
  C   C752      1.0  0.76762  0.34563  0.81299  1.0000
  H   H1302     1.0  0.92064  0.53423  0.97442  1.0000
  H   H1303     1.0  0.51031  0.48411  0.75455  1.0000
  S   S178      1.0  0.49614  0.59197  0.76967  1.0000
  N   N42       1.0  0.95858  0.48546  0.96244  1.0000
  H   H1304     1.0  0.97632  0.45019  0.93763  1.0000
  H   H1305     1.0  0.69300  0.51911  0.71044  1.0000
  H   H1306     1.0  0.66596  0.50538  0.73681  1.0000
  H   H1307     1.0  0.70156  0.52923  0.74628  1.0000
  H   H1308     1.0  0.75429  0.34372  0.83104  1.0000
  C   C753      1.0  0.97851  0.45508  0.83707  1.0000
  C   C754      1.0  0.90536  0.49626  0.49774  1.0000
  C   C755      1.0  0.78888  0.33775  0.82315  1.0000
  H   H1309     1.0  0.62786  0.40538  0.63528  1.0000
  H   H1310     1.0  0.66578  0.39984  0.69648  1.0000
  H   H1311     1.0  0.50631  0.45264  0.58862  1.0000
  H   H1312     1.0  0.89603  0.43061  0.70188  1.0000
  H   H1313     1.0  0.57893  0.34947  0.92352  1.0000
  H   H1314     1.0  0.62128  0.37493  0.48999  1.0000
  H   H1315     1.0  0.50089  0.38326  0.97658  1.0000
  H   H1316     1.0  0.56787  0.33736  0.97907  1.0000
  H   H1317     1.0  0.50723  0.43387  0.49169  1.0000
  H   H1318     1.0  0.84870  0.35908  0.49432  1.0000
  N   N43       1.0  0.51276  0.43670  0.73561  1.0000
  H   H1319     1.0  0.94477  0.48545  0.67767  1.0000
  C   C756      1.0  0.58304  0.33026  0.97544  1.0000
  H   H1320     1.0  0.55305  0.60533  0.92140  1.0000
  C   C757      1.0  0.98415  0.56638  0.88537  1.0000
  C   C758      1.0  0.92253  0.47048  0.68212  1.0000
  S   S179      1.0  0.86762  0.35250  0.67826  1.0000
  C   C759      1.0  0.51579  0.54970  0.94797  1.0000
  C   C760      1.0  0.83765  0.41423  0.49352  1.0000
  H   H1321     1.0  0.80236  0.35234  0.83957  1.0000
  H   H1322     1.0  0.97163  0.41877  0.54330  1.0000
  C   C761      1.0  0.52352  0.41674  0.73994  1.0000
  C   C762      1.0  0.53549  0.46421  0.72387  1.0000
  C   C763      1.0  0.51585  0.42072  0.93245  1.0000
  C   C764      1.0  0.91652  0.49386  0.96487  1.0000
  H   H1323     1.0  0.49415  0.55309  0.63001  1.0000
  H   H1324     1.0  0.89496  0.41414  0.55932  1.0000
  H   H1325     1.0  0.49905  0.52986  0.66676  1.0000
  C   C765      1.0  0.55730  0.46350  0.70423  1.0000
  C   C766      1.0  0.57577  0.49186  0.69047  1.0000
  H   H1326     1.0  0.91233  0.52365  0.93849  1.0000
  H   H1327     1.0  0.90831  0.46434  0.73925  1.0000
  H   H1328     1.0  0.54221  0.42651  0.75369  1.0000
  H   H1329     1.0  0.53109  0.41255  0.72021  1.0000
  H   H1330     1.0  0.52628  0.47542  0.71296  1.0000
  H   H1331     1.0  0.54824  0.47829  0.74098  1.0000
  H   H1332     1.0  0.88597  0.50739  0.96501  1.0000
  C   C767      1.0  0.50345  0.45701  0.61053  1.0000
  H   H1333     1.0  0.94658  0.40414  0.91695  1.0000
  H   H1334     1.0  0.80230  0.33835  0.80568  1.0000
  H   H1335     1.0  0.97332  0.48327  0.70676  1.0000
  H   H1336     1.0  0.94792  0.51117  0.78246  1.0000
  H   H1337     1.0  0.97118  0.45536  0.81571  1.0000
  H   H1338     1.0  0.97506  0.43393  0.84164  1.0000
  H   H1339     1.0  0.71624  0.34214  0.81541  1.0000
  C   C768      1.0  0.78807  0.36782  0.97866  1.0000
  H   H1340     1.0  0.57116  0.45845  0.71653  1.0000
  H   H1341     1.0  0.54754  0.44779  0.68761  1.0000
  H   H1342     1.0  0.59167  0.49087  0.67721  1.0000
  H   H1343     1.0  0.56312  0.49767  0.67714  1.0000
  H   H1344     1.0  0.58675  0.50815  0.70652  1.0000
  C   C769      1.0  0.51450  0.36843  0.75301  1.0000
  H   H1345     1.0  0.70259  0.35778  0.79218  1.0000
  C   C770      1.0  0.50249  0.38787  0.75265  1.0000
  H   H1346     1.0  0.52264  0.44949  0.77853  1.0000
  H   H1347     1.0  0.73415  0.34641  0.70848  1.0000
  N   N44       1.0  0.76422  0.38502  0.78700  1.0000
  H   H1348     1.0  0.51926  0.36469  0.73156  1.0000
  C   C771      1.0  0.78293  0.41368  0.77479  1.0000
  C   C772      1.0  0.78234  0.37589  0.80174  1.0000
  C   C773      1.0  0.74772  0.34001  0.71935  1.0000
  C   C774      1.0  0.80054  0.43696  0.79594  1.0000
  C   C775      1.0  0.91684  0.37248  0.73962  1.0000
  C   C776      1.0  0.81599  0.46552  0.78180  1.0000
  H   H1349     1.0  0.75443  0.39353  0.82832  1.0000
  H   H1350     1.0  0.74050  0.40432  0.80117  1.0000
  H   H1351     1.0  0.77035  0.42047  0.76243  1.0000
  H   H1352     1.0  0.79825  0.41348  0.76011  1.0000
  H   H1353     1.0  0.79977  0.37896  0.78805  1.0000
  H   H1354     1.0  0.79270  0.38939  0.82006  1.0000
  S   S180      1.0  0.56848  0.40594  0.49390  1.0000
  C   C777      1.0  0.91874  0.44414  0.69767  1.0000
  H   H1355     1.0  0.81637  0.43303  0.80558  1.0000
  H   H1356     1.0  0.78745  0.43806  0.81264  1.0000
  C   C778      1.0  0.50472  0.44241  0.76386  1.0000
  C   C779      1.0  0.56784  0.57675  0.91806  1.0000
  H   H1357     1.0  0.76042  0.47875  0.66702  1.0000
  H   H1358     1.0  0.82880  0.48160  0.79743  1.0000
  H   H1359     1.0  0.83006  0.46573  0.76522  1.0000
  H   H1360     1.0  0.80094  0.47100  0.77271  1.0000
  C   C780      1.0  0.50125  0.59988  0.90429  1.0000
  H   H1361     1.0  0.63568  0.37984  0.78560  1.0000
  H   H1362     1.0  0.52195  0.61279  0.89439  1.0000
  H   H1363     1.0  0.91166  0.48682  0.98682  1.0000
  N   N45       1.0  0.51553  0.56439  0.92156  1.0000
  H   H1364     1.0  0.91989  0.35707  0.72773  1.0000
  H   H1365     1.0  0.59640  0.36827  0.87701  1.0000
  H   H1366     1.0  0.52434  0.46904  0.62028  1.0000
  H   H1367     1.0  0.97303  0.39655  0.56985  1.0000
  H   H1368     1.0  0.70902  0.42524  0.71662  1.0000
  H   H1369     1.0  0.66050  0.36835  0.78997  1.0000
  H   H1370     1.0  0.49862  0.40016  0.68911  1.0000
  H   H1371     1.0  0.92491  0.44540  0.57227  1.0000
  C   C781      1.0  0.95941  0.49021  0.49579  1.0000
  C   C782      1.0  0.59416  0.34789  0.88308  1.0000
  H   H1372     1.0  0.92646  0.41398  0.56774  1.0000
  H   H1373     1.0  0.95167  0.51327  0.93650  1.0000
  C   C783      1.0  0.51438  0.43008  0.90285  1.0000
  H   H1374     1.0  0.50019  0.55559  0.87927  1.0000
  H   H1375     1.0  0.56166  0.55535  0.91150  1.0000
  H   H1376     1.0  0.94494  0.43067  0.89668  1.0000
  H   H1377     1.0  0.71100  0.36811  0.85522  1.0000
  C   C784      1.0  0.50732  0.52241  0.89102  1.0000
  H   H1378     1.0  0.67850  0.34630  0.83755  1.0000
  H   H1379     1.0  0.61109  0.59072  0.90787  1.0000
  C   C785      1.0  0.92862  0.43550  0.52908  1.0000
  H   H1380     1.0  0.49749  0.39002  0.77452  1.0000
  H   H1381     1.0  0.49115  0.43670  0.62144  1.0000
  H   H1382     1.0  0.92252  0.41610  0.51725  1.0000
  C   C786      1.0  0.54504  0.58443  0.91176  1.0000
  C   C787      1.0  0.95348  0.44023  0.94078  1.0000
  C   C788      1.0  0.63462  0.39859  0.65404  1.0000
  H   H1383     1.0  0.88828  0.48181  0.51192  1.0000
  C   C789      1.0  0.92460  0.42162  0.73872  1.0000
  H   H1384     1.0  0.88474  0.44765  0.65737  1.0000
  C   C790      1.0  0.71519  0.36121  0.81127  1.0000
  C   C791      1.0  0.59522  0.59679  0.90333  1.0000
  H   H1385     1.0  0.95109  0.40720  0.71905  1.0000
  H   H1386     1.0  0.53378  0.37749  0.76570  1.0000
  H   H1387     1.0  0.51065  0.47924  0.80637  1.0000
  H   H1388     1.0  0.95935  0.52433  0.97130  1.0000
  H   H1389     1.0  0.90195  0.41231  0.74317  1.0000
  H   H1390     1.0  0.91039  0.48877  0.78451  1.0000
  H   H1391     1.0  0.57212  0.57832  0.94075  1.0000
  C   C792      1.0  0.98348  0.38841  0.63031  1.0000
  H   H1392     1.0  0.91645  0.40820  0.91965  1.0000
  H   H1393     1.0  0.65869  0.38199  0.74127  1.0000
  S   S181      1.0  0.81656  0.33765  0.63338  1.0000
  H   H1394     1.0  0.96585  0.45951  0.85188  1.0000
  H   H1395     1.0  0.92095  0.44984  0.94630  1.0000
  H   H1396     1.0  0.96077  0.49741  0.51764  1.0000
  C   C793      1.0  0.98645  0.46655  0.73958  1.0000
  C   C794      1.0  0.90850  0.51624  0.96043  1.0000
  H   H1397     1.0  0.50023  0.50246  0.98134  1.0000
  C   C795      1.0  0.74455  0.38727  0.80740  1.0000
  H   H1398     1.0  0.64787  0.38989  0.64735  1.0000
  C   C796      1.0  0.94369  0.46203  0.94181  1.0000
  H   H1399     1.0  0.93443  0.42397  0.75933  1.0000
  H   H1400     1.0  0.59218  0.59615  0.88044  1.0000
  H   H1401     1.0  0.80714  0.38857  0.97613  1.0000
  H   H1402     1.0  0.89347  0.43672  0.51133  1.0000
  H   H1403     1.0  0.96803  0.44988  0.69933  1.0000
  H   H1404     1.0  0.77926  0.38158  0.72883  1.0000
  H   H1405     1.0  0.91646  0.45369  0.64023  1.0000
  H   H1406     1.0  0.66911  0.40263  0.80175  1.0000
  S   S182      1.0  0.87196  0.33288  0.61614  1.0000
  H   H1407     1.0  0.50946  0.56747  0.58119  1.0000
  H   H1408     1.0  0.91601  0.46636  0.53138  1.0000
  H   H1409     1.0  0.51002  0.45274  0.95167  1.0000
  C   C797      1.0  0.91585  0.45191  0.51531  1.0000
  H   H1410     1.0  0.90934  0.48179  0.64417  1.0000
  H   H1411     1.0  0.50700  0.63494  0.92960  1.0000
  H   H1412     1.0  0.52806  0.56544  0.96420  1.0000
  H   H1413     1.0  0.52855  0.53298  0.88218  1.0000
  H   H1414     1.0  0.94387  0.49080  0.73536  1.0000
  H   H1415     1.0  0.49916  0.34805  0.76235  1.0000
  H   H1416     1.0  0.86263  0.44019  0.98417  1.0000
  C   C798      1.0  0.92868  0.39962  0.72297  1.0000
  C   C799      1.0  0.90728  0.46282  0.65429  1.0000
  H   H1417     1.0  0.69693  0.38339  0.83160  1.0000
  S   S183      1.0  0.49698  0.33356  0.59150  1.0000
  H   H1418     1.0  0.76259  0.48473  0.70397  1.0000
  C   C800      1.0  0.93077  0.49031  0.78900  1.0000
  H   H1419     1.0  0.61570  0.38199  0.66461  1.0000
  H   H1420     1.0  0.92364  0.51032  0.51061  1.0000
  H   H1421     1.0  0.51548  0.53377  0.71577  1.0000
  H   H1422     1.0  0.59860  0.34380  0.95969  1.0000
  H   H1423     1.0  0.94560  0.47074  0.92047  1.0000
  C   C801      1.0  0.93948  0.41963  0.91702  1.0000
  N   N46       1.0  0.93527  0.44935  0.72422  1.0000
  H   H1424     1.0  0.58781  0.33435  0.86442  1.0000
  H   H1425     1.0  0.60323  0.61848  0.91063  1.0000
  C   C802      1.0  0.93301  0.46722  0.77410  1.0000
  C   C803      1.0  0.65826  0.38673  0.78532  1.0000
  H   H1426     1.0  0.54533  0.58815  0.88893  1.0000
  H   H1427     1.0  0.92761  0.37611  0.75994  1.0000
  C   C804      1.0  0.49497  0.46424  0.76458  1.0000
  H   H1428     1.0  0.50760  0.49798  0.64729  1.0000
  H   H1429     1.0  0.51211  0.59493  0.94656  1.0000
  H   H1430     1.0  0.91768  0.39450  0.70286  1.0000
  C   C805      1.0  0.91807  0.42681  0.55889  1.0000
  C   C806      1.0  0.49888  0.54417  0.89883  1.0000
  C   C807      1.0  0.50180  0.58133  0.92826  1.0000
  C   C808      1.0  0.57791  0.39497  0.97341  1.0000
  H   H1431     1.0  0.91394  0.48129  0.69455  1.0000
  C   C809      1.0  0.93012  0.46876  0.74212  1.0000
  H   H1432     1.0  0.95169  0.44816  0.52975  1.0000
  H   H1433     1.0  0.78364  0.35698  0.95833  1.0000
  H   H1434     1.0  0.53450  0.36424  0.97642  1.0000
  H   H1435     1.0  0.97365  0.48151  0.49490  1.0000
  C   C810      1.0  0.48998  0.51465  0.98664  1.0000
  H   H1436     1.0  0.55242  0.33230  0.89780  1.0000
  C   C811      1.0  0.86803  0.40443  0.98356  1.0000
  H   H1437     1.0  0.73581  0.37388  0.75241  1.0000
  C   C812      1.0  0.98408  0.52288  0.88369  1.0000
  H   H1438     1.0  0.50979  0.53458  0.61493  1.0000
  C   C813      1.0  0.76617  0.36199  0.74061  1.0000
  H   H1439     1.0  0.77993  0.35505  0.74998  1.0000
  S   S184      1.0  0.49568  0.61364  0.83272  1.0000
  H   H1440     1.0  0.91600  0.44704  0.78236  1.0000
  H   H1441     1.0  0.94783  0.42789  0.96036  1.0000
  C   C814      1.0  0.49287  0.52327  0.72073  1.0000
  H   H1442     1.0  0.93224  0.48822  0.81185  1.0000
  C   C815      1.0  0.50034  0.42964  0.95318  1.0000
  H   H1443     1.0  0.49444  0.48704  0.86359  1.0000
  H   H1444     1.0  0.89042  0.52568  0.49788  1.0000
  H   H1445     1.0  0.49240  0.42035  0.89580  1.0000
  H   H1446     1.0  0.97934  0.44761  0.75253  1.0000
  H   H1447     1.0  0.50447  0.43295  0.67498  1.0000
  C   C816      1.0  0.57221  0.33462  0.90605  1.0000
  H   H1448     1.0  0.49973  0.49205  0.59777  1.0000
  N   N47       1.0  0.49970  0.42125  0.98325  1.0000
  H   H1449     1.0  0.62631  0.40952  0.49005  1.0000
  C   C817      1.0  0.98502  0.41147  0.55287  1.0000
  C   C818      1.0  0.49089  0.47084  0.79448  1.0000
  C   C819      1.0  0.49163  0.61967  0.91477  1.0000
  H   H1450     1.0  0.98971  0.48418  0.75295  1.0000
  C   C820      1.0  0.98959  0.49976  0.95620  1.0000
  H   H1451     1.0  0.51319  0.62608  0.48964  1.0000
  C   C821      1.0  0.49114  0.53700  0.61451  1.0000
  C   C822      1.0  0.49042  0.41470  0.68806  1.0000
  H   H1452     1.0  0.54028  0.45806  0.98852  1.0000
  Fe  Fe93      1.0  0.50686  0.87364  0.23552  1.0000
  S   S185      1.0  0.52990  0.91831  0.25264  1.0000
  H   H1453     1.0  0.53394  0.91838  0.37948  1.0000
  H   H1454     1.0  0.58575  0.98553  0.30156  1.0000
  S   S186      1.0  0.51478  0.84781  0.20473  1.0000
  H   H1455     1.0  0.51204  0.92674  0.99243  1.0000
  H   H1456     1.0  0.54248  0.75327  0.25342  1.0000
  C   C823      1.0  0.55354  0.95161  0.23816  1.0000
  C   C824      1.0  0.55539  0.97548  0.25045  1.0000
  C   C825      1.0  0.57141  0.95510  0.21602  1.0000
  H   H1457     1.0  0.54157  0.97306  0.26744  1.0000
  H   H1458     1.0  0.57034  0.93697  0.20643  1.0000
  C   C826      1.0  0.52581  0.98151  0.18157  1.0000
  H   H1459     1.0  0.55639  0.66495  0.40122  1.0000
  H   H1460     1.0  0.54733  0.84649  0.34603  1.0000
  C   C827      1.0  0.49710  0.66360  0.19302  1.0000
  H   H1461     1.0  0.50777  0.93979  0.16426  1.0000
  C   C828      1.0  0.57634  0.69981  0.42878  1.0000
  C   C829      1.0  0.51694  0.88679  0.32917  1.0000
  H   H1462     1.0  0.53449  0.84961  0.31262  1.0000
  H   H1463     1.0  0.50808  0.67570  0.17397  1.0000
  H   H1464     1.0  0.50636  0.92846  0.30091  1.0000
  H   H1465     1.0  0.58851  0.71442  0.41166  1.0000
  Fe  Fe94      1.0  0.49438  0.81155  0.23526  1.0000
  C   C830      1.0  0.51698  0.67756  0.21798  1.0000
  H   H1466     1.0  0.53822  0.68357  0.40599  1.0000
  H   H1467     1.0  0.50251  0.96632  0.04289  1.0000
  H   H1468     1.0  0.53791  0.97083  0.32033  1.0000
  H   H1469     1.0  0.60562  0.98458  0.19031  1.0000
  H   H1470     1.0  0.52487  0.70034  0.21794  1.0000
  C   C831      1.0  0.54744  0.93726  0.32931  1.0000
  S   S187      1.0  0.51424  0.78424  0.24449  1.0000
  H   H1471     1.0  0.51868  0.98460  0.13763  1.0000
  H   H1472     1.0  0.56377  0.93622  0.34178  1.0000
  C   C832      1.0  0.52153  0.74051  0.26143  1.0000
  C   C833      1.0  0.55269  0.96738  0.33289  1.0000
  H   H1473     1.0  0.51086  0.98818  0.45358  1.0000
  C   C834      1.0  0.51521  0.91568  0.36821  1.0000
  C   C835      1.0  0.59149  0.98216  0.20700  1.0000
  H   H1474     1.0  0.53684  0.88079  0.36628  1.0000
  H   H1475     1.0  0.52427  0.66639  0.45312  1.0000
  C   C836      1.0  0.53222  0.85098  0.33543  1.0000
  H   H1476     1.0  0.59795  0.98776  0.33682  1.0000
  H   H1477     1.0  0.55968  0.89507  0.33652  1.0000
  C   C837      1.0  0.49746  0.91797  0.32122  1.0000
  H   H1478     1.0  0.49589  0.86875  0.33345  1.0000
  H   H1479     1.0  0.52832  0.70680  0.27407  1.0000
  H   H1480     1.0  0.57092  0.71124  0.44416  1.0000
  C   C838      1.0  0.51347  0.71399  0.27299  1.0000
  H   H1481     1.0  0.49176  0.93214  0.08421  1.0000
  H   H1482     1.0  0.50938  0.94102  0.20150  1.0000
  C   C839      1.0  0.53806  0.88012  0.34331  1.0000
  H   H1483     1.0  0.51993  0.88659  0.30626  1.0000
  H   H1484     1.0  0.55052  0.97167  0.35497  1.0000
  H   H1485     1.0  0.49230  0.93228  0.33255  1.0000
  C   C840      1.0  0.54239  0.67374  0.21641  1.0000
  C   C841      1.0  0.58219  0.98896  0.32357  1.0000
  H   H1486     1.0  0.51081  0.83488  0.34186  1.0000
  H   H1487     1.0  0.54688  0.98421  0.17914  1.0000
  N   N48       1.0  0.51869  0.91389  0.33729  1.0000
  H   H1488     1.0  0.51406  0.93464  0.37317  1.0000
  H   H1489     1.0  0.55205  0.93498  0.30721  1.0000
  H   H1490     1.0  0.55658  0.68480  0.23405  1.0000
  H   H1491     1.0  0.58964  0.69261  0.43889  1.0000
  H   H1492     1.0  0.50626  0.66852  0.23802  1.0000
  H   H1493     1.0  0.55399  0.68252  0.19666  1.0000
  C   C842      1.0  0.50288  0.75078  0.26021  1.0000
  H   H1494     1.0  0.50799  0.89530  0.42297  1.0000
  C   C843      1.0  0.54996  0.67507  0.41698  1.0000
  H   H1495     1.0  0.49698  0.99010  0.16047  1.0000
  S   S188      1.0  0.49065  0.83897  0.26743  1.0000
  C   C844      1.0  0.50523  0.95015  0.18280  1.0000
  H   H1496     1.0  0.52467  0.99041  0.20183  1.0000
  H   H1497     1.0  0.49322  0.66500  0.36431  1.0000
  H   H1498     1.0  0.49147  0.66525  0.41647  1.0000
  H   H1499     1.0  0.49034  0.91508  0.41843  1.0000
  Fe  Fe95      1.0  0.49926  0.86566  0.72528  1.0000
  S   S189      1.0  0.51433  0.91287  0.72575  1.0000
  H   H1500     1.0  0.54026  0.84209  0.82339  1.0000
  H   H1501     1.0  0.54621  0.81785  0.84315  1.0000
  S   S190      1.0  0.49323  0.83957  0.76372  1.0000
  H   H1502     1.0  0.51440  0.97461  0.59313  1.0000
  C   C845      1.0  0.54427  0.71265  0.69229  1.0000
  C   C846      1.0  0.54294  0.94801  0.72613  1.0000
  C   C847      1.0  0.53736  0.97013  0.72431  1.0000
  C   C848      1.0  0.50003  0.98275  0.58899  1.0000
  H   H1503     1.0  0.51602  0.96547  0.72246  1.0000
  H   H1504     1.0  0.57549  0.93790  0.72996  1.0000
  C   C849      1.0  0.57073  0.95453  0.72849  1.0000
  C   C850      1.0  0.55200  0.91284  0.80937  1.0000
  H   H1505     1.0  0.54505  0.75559  0.77095  1.0000
  H   H1506     1.0  0.51352  0.89267  0.78714  1.0000
  H   H1507     1.0  0.52025  0.92478  0.84144  1.0000
  H   H1508     1.0  0.61388  0.98738  0.73056  1.0000
  S   S191      1.0  0.50562  0.83596  0.69779  1.0000
  H   H1509     1.0  0.56494  0.93201  0.82166  1.0000
  H   H1510     1.0  0.54285  0.81496  0.80565  1.0000
  C   C851      1.0  0.51494  0.71145  0.77228  1.0000
  H   H1511     1.0  0.53041  0.92964  0.78696  1.0000
  H   H1512     1.0  0.54753  0.89421  0.82196  1.0000
  H   H1513     1.0  0.56407  0.91347  0.79065  1.0000
  H   H1514     1.0  0.54935  0.69633  0.68652  1.0000
  C   C852      1.0  0.52364  0.73980  0.76698  1.0000
  H   H1515     1.0  0.52937  0.96589  0.80042  1.0000
  H   H1516     1.0  0.52967  0.70568  0.77999  1.0000
  H   H1517     1.0  0.55506  0.72234  0.71209  1.0000
  C   C853      1.0  0.52491  0.91138  0.80031  1.0000
  H   H1518     1.0  0.49409  0.80499  0.80957  1.0000
  H   H1519     1.0  0.50116  0.66849  0.66509  1.0000
  S   S192      1.0  0.51727  0.78413  0.75029  1.0000
  C   C854      1.0  0.50369  0.80100  0.82786  1.0000
  C   C855      1.0  0.53521  0.82005  0.82488  1.0000
  H   H1520     1.0  0.50211  0.72433  0.82973  1.0000
  C   C856      1.0  0.50768  0.96123  0.79695  1.0000
  H   H1521     1.0  0.50923  0.71697  0.70287  1.0000
  H   H1522     1.0  0.50666  0.70047  0.65151  1.0000
  H   H1523     1.0  0.50884  0.76829  0.84548  1.0000
  C   C857      1.0  0.50504  0.74789  0.75642  1.0000
  H   H1524     1.0  0.50648  0.68450  0.71339  1.0000
  H   H1525     1.0  0.55213  0.72908  0.67593  1.0000
  H   H1526     1.0  0.50304  0.76526  0.80939  1.0000
  C   C858      1.0  0.50658  0.90921  0.82571  1.0000
  C   C859      1.0  0.59251  0.98269  0.72884  1.0000
  H   H1527     1.0  0.49940  0.95231  0.84017  1.0000
  C   C860      1.0  0.51287  0.69994  0.69623  1.0000
  C   C861      1.0  0.50869  0.98930  0.79668  1.0000
  C   C862      1.0  0.49572  0.76994  0.82910  1.0000
  H   H1528     1.0  0.49726  0.73418  0.66245  1.0000
  H   H1529     1.0  0.49705  0.80716  0.84700  1.0000
  H   H1530     1.0  0.49486  0.97168  0.54437  1.0000
  H   H1531     1.0  0.50058  0.95184  0.77614  1.0000
  H   H1532     1.0  0.50006  0.88831  0.83493  1.0000
  C   C863      1.0  0.49121  0.91658  0.98239  1.0000
  Fe  Fe96      1.0  0.49500  0.80768  0.73576  1.0000
  H   H1533     1.0  0.49382  0.92382  0.96044  1.0000
  C   C864      1.0  0.49679  0.68566  0.66918  1.0000
  H   H1534     1.0  0.49205  0.68122  0.85353  1.0000
  H   H1535     1.0  0.49154  0.72458  0.86495  1.0000
  H   H1536     1.0  0.49163  0.76839  0.88593  1.0000
