data_image0
_chemical_formula_structural       FeS2FeS2Fe2S3FeCSCH2C2H2C2HCH3CHCH2C7H5CSH4CSHCH3CH5CH4CNC2H3C3HSH3CH3CHCHCH4CHNHNH3CHCHC2H5C2H6C3H2CH2CH4CH6CH9C2HC2FeS2FeS2Fe2CS2FeHSHC2H9SCHCH4C6H4NHCHC2H2CHC2HCH10CHCH8CSHCH5C2H5CHNHC2H2CHCHC2H6CNHC3H2C5H2CHC2H4CHC2H3CSH4CH6C2HCHSH4SCH2CFeCSH3CHSFeS2FeSHFeSFeS3C3H2C2H3C6H5NC6H6C4H4CH2C2HCHNH5CH6CH2C2HCSH2SCH3CH6CH7FeHCH4CHSNC10H3CH15CH2C2HCH5C3HC6H6CH8CH4CH8CH2Fe2CSCHCH2SFeS2FeSHFeSFeS3C4HC2H3C6H4CH2C5H5CHC3H5CH5CH2CH2SCHC3HNC11H25C2H2NH5CHCHCH7CH3CNH3CH4NHSC3SH2FeS2FeSHFeS2FeSFeS3FeS2FeS2FeSFeS3C6H4C6H5C5H4CHCHCH2SC2NHCH5FeC2H3CHC5H4CH2CHCHCH2CHC5HCNC11H21CH2CH3SCHCH3C2H9SH2CH5CH2CHCHCH3C2H3CH5CH4CNC4H2C2H3CHCH7CH11C2H6CH4CH3CHSCH2C10HCH3CNCH2C3H3CHCH2FeHCHCHFeHC2HC2H6CH10CH2CHCH2SFeHFeS2FeSCFeS2FeSFeS3FeS2FeS2FeSFeS3C6H4C6H4C5H3CH3C3HCHC2HCHSNCH2C4H5CH6CH2C2H3CH3CH2CH2CSC2H2C3HCH7C3H3CH2CHNC10H5CH6CH7CH6CHCHNCH2CNHC2H3C3H3CH4SH3CH2SCHCH7CHSC2NCHC6FeC3H13CH2C2H10CH3CH2CHCH3CH2CH7CHFeC3H4C2H3C2H2C2H3CHC2H4CH4CSH2CH4CH2SHSC2SH2CFeSHSFeS2FeS2FeSFeHS3FeSCSH9CHC8H4C3H3CHCH2CHFeC6H3C2HC3HCH3C3H9CH3C3HCH3CH5CH3NC5HC3H3FeCH3C2H2CH4C2H2CHCHFeH3FeHCHCHC3H2C2H3SH5C2H5CH2SCHCHNH7SCH3CH4SNCH2C2H4CSH4CHSH2CH2CH3CH2C3H2CH5CSFeCHNH3CHC3H2FeNSH3CH5SH2C2H2SHCSH3FeSHSFeS2FeS2FeSFeHS3FeSCSC2HSNHC2H5C6H4C3HSH4FeCNC7H3SC4HNH2FeH4CHC2H7CH9CHCHC2H3CHCH2NH3FeH2CSH3SH4CHCH3C2H5CH2CHFeH3CNHCH2CHCHCHCHCH3CHC5H5CH6CH2CH3CHC2H8CHC2H2CHC2H3CH8C2HC3HCH3CSHCHC3HC2H2CH2NFeHCH2CHCHCHCH2CHFeHCHCNH4CHSHSC2H4C2H5CH3SCH3FeSH2SHFeSCFeSFeHSHC2H2C2H5C3H3CFeHCH3C2HNCNCH2CH2CHC2HCHSH3CHCHCHC5H4SH2CHSFeHCFeHSHSNC8HC3H16C2SH11C2HCH2CHCH5CH4SH4C2H4CHSH2CH3SHC2SFeSH2SCFeS2FeSFeS2C3HC3HSH3C5H2NHCH2C2HFeH3CFeH2CH6NH2C2SC2H3CH3CHSFeH5C2NHSH7CHCH3CH3CH11CH5CHCHCH5CH5C2NC5HC4HCH3CH3C4HCH2FeS2HS2Fe2CHSHCSHFeSH3C6H6NH2NH4CH4CHC2H2CH2CHSH3CHCH2CHCSCH3CHC2H2SH3CH5C2HCNHFeSHCH7C2NH2CH3CHC2HC3HC3H5CH10CHCH3C4HC2HC2H5CH2SCH6C2H3SHCHFeS2CS2Fe2HCS2HSHFeSH2C7H4CHCH2FeH3CHSFeCH8CHSCHCNCH2C2H3CH2SH2CSHC2H9CH2NH6C2H2SHSC3H3CH11NC10HCH16CH3CHCH6CHCH2C3HCH2C3H5CH2CHC2H4CHCHCH4CHCHCH3CFe
_chemical_formula_sum              "Fe96 S192 C864 H1536 N48"
_cell_length_a       51.3259
_cell_length_b       51.1619
_cell_length_c       41.4235
_cell_angle_alpha    90.1781
_cell_angle_beta     89.9543
_cell_angle_gamma    120.122

_space_group_name_H-M_alt    "P 1"
_space_group_IT_number       1

loop_
  _space_group_symop_operation_xyz
  'x, y, z'

loop_
  _atom_site_type_symbol
  _atom_site_label
  _atom_site_symmetry_multiplicity
  _atom_site_fract_x
  _atom_site_fract_y
  _atom_site_fract_z
  _atom_site_occupancy
  Fe  Fe1       1.0  0.13884  0.43713  0.30480  1.0000
  S   S1        1.0  0.10805  0.43820  0.34275  1.0000
  S   S2        1.0  0.18963  0.45608  0.31471  1.0000
  Fe  Fe2       1.0  0.08805  0.41433  0.25245  1.0000
  S   S3        1.0  0.05415  0.41322  0.28742  1.0000
  S   S4        1.0  0.07860  0.40416  0.19828  1.0000
  Fe  Fe3       1.0  0.09159  0.45795  0.30492  1.0000
  Fe  Fe4       1.0  0.07312  0.39357  0.32230  1.0000
  S   S5        1.0  0.04313  0.35625  0.35675  1.0000
  S   S6        1.0  0.12486  0.46072  0.26807  1.0000
  S   S7        1.0  0.10459  0.39086  0.28612  1.0000
  Fe  Fe5       1.0  0.31398  0.43735  0.42580  1.0000
  C   C1        1.0  0.08421  0.48145  0.19298  1.0000
  S   S8        1.0  0.26435  0.41912  0.41117  1.0000
  C   C2        1.0  0.25858  0.40130  0.30317  1.0000
  H   H1        1.0  0.21120  0.38544  0.25791  1.0000
  H   H2        1.0  0.25585  0.36811  0.24798  1.0000
  C   C3        1.0  0.30720  0.31774  0.11640  1.0000
  C   C4        1.0  0.26731  0.33370  0.02935  1.0000
  H   H3        1.0  0.00869  0.32860  0.41438  1.0000
  H   H4        1.0  0.21052  0.40969  0.28939  1.0000
  C   C5        1.0  0.22259  0.40891  0.26746  1.0000
  C   C6        1.0  0.01041  0.45117  0.26114  1.0000
  H   H5        1.0  0.26243  0.35895  0.39526  1.0000
  C   C7        1.0  0.04436  0.39282  0.17684  1.0000
  H   H6        1.0  0.22119  0.42384  0.24897  1.0000
  H   H7        1.0  0.28708  0.40264  0.35849  1.0000
  H   H8        1.0  0.30772  0.40560  0.25889  1.0000
  C   C8        1.0  0.02614  0.36866  0.38510  1.0000
  H   H9        1.0  0.31290  0.38243  0.28666  1.0000
  C   C9        1.0  0.29101  0.33287  0.05095  1.0000
  H   H10       1.0  0.27664  0.35672  0.01901  1.0000
  H   H11       1.0  0.31282  0.44823  0.28513  1.0000
  C   C10       1.0  0.29625  0.38902  0.27872  1.0000
  C   C11       1.0  0.24417  0.43065  0.38493  1.0000
  C   C12       1.0  0.21259  0.41243  0.38266  1.0000
  C   C13       1.0  0.19555  0.41996  0.36175  1.0000
  C   C14       1.0  0.20985  0.44584  0.34245  1.0000
  C   C15       1.0  0.24149  0.46398  0.34453  1.0000
  C   C16       1.0  0.25852  0.45660  0.36568  1.0000
  H   H12       1.0  0.20113  0.39225  0.39724  1.0000
  H   H13       1.0  0.17134  0.40560  0.36043  1.0000
  H   H14       1.0  0.25292  0.48400  0.32972  1.0000
  H   H15       1.0  0.28272  0.47095  0.36702  1.0000
  H   H16       1.0  0.26632  0.44394  0.28238  1.0000
  C   C17       1.0  0.10733  0.48412  0.16701  1.0000
  S   S9        1.0  0.33349  0.46162  0.47294  1.0000
  H   H17       1.0  0.31922  0.34179  0.10891  1.0000
  H   H18       1.0  0.11640  0.49087  0.37705  1.0000
  H   H19       1.0  0.03185  0.47135  0.08356  1.0000
  H   H20       1.0  0.28574  0.31367  0.12768  1.0000
  C   C18       1.0  0.01851  0.46680  0.13430  1.0000
  S   S10       1.0  0.07882  0.49293  0.31914  1.0000
  H   H21       1.0  0.09655  0.49868  0.21200  1.0000
  C   C19       1.0  0.08607  0.49362  0.41043  1.0000
  H   H22       1.0  0.02323  0.44077  0.20118  1.0000
  H   H23       1.0  0.27307  0.26235  0.12242  1.0000
  H   H24       1.0  0.25803  0.29535  0.07968  1.0000
  C   C20       1.0  0.32701  0.31543  0.14340  1.0000
  H   H25       1.0  0.33230  0.02305  0.24724  1.0000
  H   H26       1.0  0.25209  0.32178  0.38070  1.0000
  H   H27       1.0  0.26677  0.41821  0.25294  1.0000
  H   H28       1.0  0.07674  0.45922  0.20475  1.0000
  H   H29       1.0  0.04425  0.44609  0.14875  1.0000
  C   C21       1.0  0.06483  0.32694  0.48006  1.0000
  H   H30       1.0  0.06795  0.33840  0.02749  1.0000
  H   H31       1.0  0.24031  0.37750  0.30052  1.0000
  H   H32       1.0  0.15235  0.49053  0.16328  1.0000
  H   H33       1.0  0.27139  0.28513  0.04533  1.0000
  C   C22       1.0  0.28613  0.26497  0.09991  1.0000
  N   N1        1.0  0.30050  0.29711  0.08756  1.0000
  C   C23       1.0  0.25559  0.41974  0.27522  1.0000
  C   C24       1.0  0.26952  0.36108  0.26237  1.0000
  H   H34       1.0  0.24507  0.20504  0.11508  1.0000
  H   H35       1.0  0.24685  0.32843  0.04348  1.0000
  H   H36       1.0  0.29709  0.35048  0.06973  1.0000
  C   C25       1.0  0.03131  0.46525  0.20427  1.0000
  C   C26       1.0  0.01440  0.40655  0.40383  1.0000
  C   C27       1.0  0.26715  0.35590  0.34321  1.0000
  H   H37       1.0  0.23826  0.19033  0.07445  1.0000
  S   S11       1.0  0.33055  0.40424  0.43446  1.0000
  H   H38       1.0  0.26109  0.31739  0.00905  1.0000
  H   H39       1.0  0.29131  0.35033  0.38356  1.0000
  H   H40       1.0  0.27287  0.34217  0.32707  1.0000
  C   C28       1.0  0.26843  0.34626  0.37780  1.0000
  H   H41       1.0  0.01177  0.46816  0.19843  1.0000
  H   H42       1.0  0.30737  0.44827  0.32758  1.0000
  H   H43       1.0  0.10186  0.37351  0.03624  1.0000
  C   C29       1.0  0.27894  0.30105  0.06600  1.0000
  H   H44       1.0  0.29563  0.36156  0.22053  1.0000
  C   C30       1.0  0.28090  0.34555  0.23940  1.0000
  H   H45       1.0  0.31227  0.39210  0.34214  1.0000
  C   C31       1.0  0.13613  0.48808  0.18243  1.0000
  H   H46       1.0  0.33292  0.24686  0.32565  1.0000
  H   H47       1.0  0.01856  0.49849  0.46824  1.0000
  H   H48       1.0  0.26149  0.32610  0.22738  1.0000
  H   H49       1.0  0.24237  0.24031  0.07540  1.0000
  C   C32       1.0  0.01774  0.38663  0.19256  1.0000
  H   H50       1.0  0.29383  0.33699  0.25286  1.0000
  N   N2        1.0  0.05723  0.48344  0.18150  1.0000
  H   H51       1.0  0.04271  0.49593  0.24622  1.0000
  N   N3        1.0  0.28896  0.40357  0.30646  1.0000
  H   H52       1.0  0.31821  0.29186  0.15159  1.0000
  H   H53       1.0  0.01605  0.42829  0.40065  1.0000
  H   H54       1.0  0.30389  0.25962  0.10700  1.0000
  C   C33       1.0  0.04412  0.39065  0.14291  1.0000
  H   H55       1.0  0.06448  0.39517  0.13044  1.0000
  C   C34       1.0  0.04773  0.46941  0.14833  1.0000
  H   H56       1.0  0.01802  0.38129  0.09885  1.0000
  C   C35       1.0  0.31369  0.06457  0.16916  1.0000
  C   C36       1.0  0.32851  0.33407  0.17298  1.0000
  H   H57       1.0  0.06042  0.32791  0.45393  1.0000
  H   H58       1.0  0.25430  0.34411  0.28002  1.0000
  H   H59       1.0  0.24367  0.35045  0.33872  1.0000
  H   H60       1.0  0.05960  0.30361  0.48583  1.0000
  H   H61       1.0  0.32732  0.34034  0.31910  1.0000
  C   C37       1.0  0.26348  0.23932  0.07731  1.0000
  C   C38       1.0  0.28996  0.38988  0.33832  1.0000
  H   H62       1.0  0.13107  0.46790  0.19701  1.0000
  H   H63       1.0  0.08909  0.34297  0.48473  1.0000
  H   H64       1.0  0.04060  0.41117  0.36137  1.0000
  H   H65       1.0  0.07085  0.49375  0.39146  1.0000
  H   H66       1.0  0.25283  0.40908  0.32579  1.0000
  H   H67       1.0  0.32210  0.26494  0.04607  1.0000
  C   C39       1.0  0.02835  0.39686  0.38153  1.0000
  C   C40       1.0  0.31270  0.43672  0.30791  1.0000
  C   C41       1.0  0.25508  0.20822  0.09060  1.0000
  H   H68       1.0  0.27250  0.24104  0.05266  1.0000
  H   H69       1.0  0.27527  0.20559  0.09183  1.0000
  C   C42       1.0  0.01778  0.38280  0.12489  1.0000
  H   H70       1.0  0.29638  0.04020  0.17069  1.0000
  H   H71       1.0  0.02682  0.49999  0.37201  1.0000
  C   C43       1.0  0.08973  0.35615  0.01728  1.0000
  H   H72       1.0  0.06569  0.48168  0.13024  1.0000
  H   H73       1.0  0.01561  0.45676  0.28714  1.0000
  H   H74       1.0  0.32620  0.11260  0.30449  1.0000
  H   H75       1.0  0.12475  0.41337  0.99217  1.0000
  C   C44       1.0  0.03772  0.47262  0.24084  1.0000
  H   H76       1.0  0.07698  0.46989  0.41842  1.0000
  H   H77       1.0  0.01740  0.38789  0.21862  1.0000
  H   H78       1.0  0.06914  0.37925  0.99614  1.0000
  H   H79       1.0  0.09747  0.46312  0.15219  1.0000
  H   H80       1.0  0.30594  0.32457  0.18427  1.0000
  H   H81       1.0  0.05696  0.47027  0.24920  1.0000
  C   C45       1.0  0.01019  0.35031  0.41141  1.0000
  H   H82       1.0  0.01966  0.48901  0.13427  1.0000
  H   H83       1.0  0.10323  0.34552  0.01042  1.0000
  H   H84       1.0  0.32640  0.07857  0.29330  1.0000
  H   H85       1.0  0.30250  0.07811  0.17297  1.0000
  H   H86       1.0  0.32374  0.06897  0.14461  1.0000
  H   H87       1.0  0.31104  0.33914  0.03564  1.0000
  H   H88       1.0  0.32636  0.06626  0.21862  1.0000
  H   H89       1.0  0.00479  0.42739  0.25733  1.0000
  H   H90       1.0  0.01191  0.43284  0.09814  1.0000
  C   C46       1.0  0.01334  0.45522  0.09946  1.0000
  C   C47       1.0  0.32785  0.28829  0.03968  1.0000
  H   H91       1.0  0.31095  0.28748  0.02249  1.0000
  C   C48       1.0  0.00247  0.48397  0.36782  1.0000
  C   C49       1.0  0.32984  0.30606  0.07072  1.0000
  Fe  Fe6       1.0  0.13331  0.43439  0.79630  1.0000
  S   S12       1.0  0.10114  0.43148  0.83513  1.0000
  S   S13       1.0  0.18275  0.44824  0.80861  1.0000
  Fe  Fe7       1.0  0.08587  0.42231  0.74156  1.0000
  S   S14       1.0  0.05156  0.41817  0.77755  1.0000
  S   S15       1.0  0.07490  0.42261  0.68761  1.0000
  Fe  Fe8       1.0  0.08914  0.45868  0.80199  1.0000
  Fe  Fe9       1.0  0.06651  0.39161  0.80701  1.0000
  C   C50       1.0  0.02319  0.34705  0.86985  1.0000
  S   S16       1.0  0.12341  0.46476  0.76469  1.0000
  S   S17       1.0  0.09884  0.39256  0.76950  1.0000
  Fe  Fe10      1.0  0.30550  0.42662  0.92169  1.0000
  H   H92       1.0  0.07091  0.35180  0.97018  1.0000
  S   S18       1.0  0.25642  0.40836  0.90372  1.0000
  H   H93       1.0  0.01349  0.47551  0.65084  1.0000
  C   C51       1.0  0.04425  0.39330  0.54135  1.0000
  C   C52       1.0  0.16951  0.43281  0.94014  1.0000
  H   H94       1.0  0.01176  0.40659  0.52703  1.0000
  H   H95       1.0  0.04957  0.40532  0.56494  1.0000
  H   H96       1.0  0.06895  0.36389  0.65389  1.0000
  H   H97       1.0  0.30069  0.42914  0.60189  1.0000
  H   H98       1.0  0.19577  0.40447  0.76176  1.0000
  H   H99       1.0  0.24098  0.34649  0.76436  1.0000
  H   H100      1.0  0.02893  0.48028  0.97937  1.0000
  H   H101      1.0  0.02789  0.39133  0.87061  1.0000
  H   H102      1.0  0.24037  0.35565  0.81864  1.0000
  S   S19       1.0  0.03197  0.34738  0.82885  1.0000
  C   C53       1.0  0.31025  0.40555  0.78676  1.0000
  H   H103      1.0  0.05135  0.43308  0.62895  1.0000
  C   C54       1.0  0.00730  0.39407  0.62063  1.0000
  H   H104      1.0  0.02690  0.49478  0.92364  1.0000
  H   H105      1.0  0.21987  0.37292  0.75626  1.0000
  H   H106      1.0  0.00920  0.46793  0.74248  1.0000
  H   H107      1.0  0.00379  0.40238  0.59802  1.0000
  C   C55       1.0  0.23649  0.42015  0.87727  1.0000
  C   C56       1.0  0.20535  0.40067  0.87211  1.0000
  C   C57       1.0  0.18858  0.40878  0.85139  1.0000
  C   C58       1.0  0.20258  0.43671  0.83557  1.0000
  C   C59       1.0  0.23379  0.45603  0.84047  1.0000
  C   C60       1.0  0.25060  0.44787  0.86103  1.0000
  H   H108      1.0  0.19409  0.37904  0.88418  1.0000
  H   H109      1.0  0.16489  0.39326  0.84729  1.0000
  H   H110      1.0  0.03361  0.35939  0.60683  1.0000
  H   H111      1.0  0.27445  0.46319  0.86453  1.0000
  N   N4        1.0  0.11083  0.41005  0.94249  1.0000
  H   H112      1.0  0.07516  0.35360  0.54048  1.0000
  C   C61       1.0  0.14142  0.43571  0.93224  1.0000
  H   H113      1.0  0.00873  0.41868  0.73163  1.0000
  C   C62       1.0  0.09645  0.38716  0.91568  1.0000
  C   C63       1.0  0.11352  0.37097  0.90471  1.0000
  H   H114      1.0  0.08717  0.34168  0.65179  1.0000
  H   H115      1.0  0.10063  0.37494  0.62712  1.0000
  C   C64       1.0  0.01165  0.46119  0.71760  1.0000
  H   H116      1.0  0.06751  0.47012  0.91388  1.0000
  C   C65       1.0  0.09566  0.34675  0.87935  1.0000
  C   C66       1.0  0.26943  0.31797  0.73832  1.0000
  H   H117      1.0  0.25106  0.35312  0.88328  1.0000
  C   C67       1.0  0.04770  0.35425  0.59051  1.0000
  H   H118      1.0  0.32067  0.39272  0.79631  1.0000
  H   H119      1.0  0.14154  0.43984  0.90578  1.0000
  H   H120      1.0  0.03062  0.39993  0.49378  1.0000
  H   H121      1.0  0.06816  0.37634  0.58523  1.0000
  H   H122      1.0  0.04783  0.44079  0.94335  1.0000
  H   H123      1.0  0.07302  0.36984  0.92203  1.0000
  H   H124      1.0  0.09402  0.39807  0.89370  1.0000
  H   H125      1.0  0.17363  0.43479  0.96661  1.0000
  H   H126      1.0  0.13503  0.38749  0.89324  1.0000
  H   H127      1.0  0.32146  0.45283  0.79154  1.0000
  C   C68       1.0  0.00899  0.32000  0.92067  1.0000
  H   H128      1.0  0.07486  0.42757  0.90173  1.0000
  C   C69       1.0  0.01703  0.37303  0.67944  1.0000
  H   H129      1.0  0.10977  0.46013  0.91332  1.0000
  H   H130      1.0  0.01262  0.47950  0.84638  1.0000
  H   H131      1.0  0.30206  0.46223  0.58485  1.0000
  H   H132      1.0  0.20292  0.48046  0.93336  1.0000
  H   H133      1.0  0.02061  0.36456  0.70192  1.0000
  H   H134      1.0  0.09053  0.35674  0.85821  1.0000
  H   H135      1.0  0.10911  0.33656  0.87082  1.0000
  H   H136      1.0  0.07432  0.32858  0.88980  1.0000
  C   C70       1.0  0.02252  0.37141  0.88457  1.0000
  S   S20       1.0  0.32107  0.39380  0.93679  1.0000
  H   H137      1.0  0.21733  0.45488  0.92926  1.0000
  C   C71       1.0  0.01437  0.36966  0.91735  1.0000
  H   H138      1.0  0.24588  0.32205  0.85799  1.0000
  H   H139      1.0  0.26122  0.39240  0.83478  1.0000
  H   H140      1.0  0.32032  0.32778  0.81414  1.0000
  H   H141      1.0  0.24452  0.30407  0.73648  1.0000
  H   H142      1.0  0.03006  0.48104  0.52309  1.0000
  C   C72       1.0  0.03941  0.40103  0.66773  1.0000
  C   C73       1.0  0.19781  0.45798  0.92407  1.0000
  H   H143      1.0  0.01590  0.30216  0.87645  1.0000
  H   H144      1.0  0.10131  0.48471  0.70707  1.0000
  H   H145      1.0  0.27871  0.33049  0.71540  1.0000
  H   H146      1.0  0.27111  0.37081  0.73831  1.0000
  H   H147      1.0  0.19485  0.45744  0.89748  1.0000
  C   C74       1.0  0.03426  0.41148  0.63830  1.0000
  H   H148      1.0  0.27099  0.42630  0.79345  1.0000
  N   N5        1.0  0.03069  0.33960  0.55971  1.0000
  H   H149      1.0  0.04877  0.46261  0.69033  1.0000
  C   C75       1.0  0.02725  0.50045  0.64858  1.0000
  C   C76       1.0  0.27867  0.33990  0.76684  1.0000
  H   H150      1.0  0.22812  0.42091  0.73545  1.0000
  H   H151      1.0  0.16690  0.41097  0.93221  1.0000
  C   C77       1.0  0.11354  0.39568  0.97317  1.0000
  H   H152      1.0  0.29273  0.35518  0.82915  1.0000
  C   C78       1.0  0.28229  0.36606  0.84267  1.0000
  H   H153      1.0  0.07031  0.32731  0.59522  1.0000
  C   C79       1.0  0.04571  0.47651  0.70907  1.0000
  C   C80       1.0  0.22065  0.41469  0.76083  1.0000
  H   H154      1.0  0.27432  0.41750  0.75251  1.0000
  H   H155      1.0  0.14619  0.45727  0.94412  1.0000
  H   H156      1.0  0.30073  0.38650  0.85456  1.0000
  H   H157      1.0  0.03918  0.31657  0.62267  1.0000
  H   H158      1.0  0.21874  0.38403  0.79740  1.0000
  H   H159      1.0  0.23088  0.43556  0.77576  1.0000
  C   C81       1.0  0.01969  0.35969  0.54605  1.0000
  N   N6        1.0  0.27624  0.38702  0.78744  1.0000
  H   H160      1.0  0.11797  0.35979  0.92510  1.0000
  C   C82       1.0  0.26582  0.36145  0.76329  1.0000
  C   C83       1.0  0.26427  0.40716  0.77628  1.0000
  C   C84       1.0  0.26372  0.37520  0.82067  1.0000
  H   H161      1.0  0.27734  0.33964  0.88548  1.0000
  H   H162      1.0  0.01083  0.29485  0.58085  1.0000
  C   C85       1.0  0.22949  0.39215  0.77343  1.0000
  C   C86       1.0  0.26286  0.34388  0.86893  1.0000
  C   C87       1.0  0.31179  0.44715  0.58345  1.0000
  C   C88       1.0  0.07046  0.45767  0.93419  1.0000
  C   C89       1.0  0.00373  0.30963  0.56882  1.0000
  H   H163      1.0  0.05647  0.47389  0.73131  1.0000
  H   H164      1.0  0.24506  0.47763  0.82831  1.0000
  C   C90       1.0  0.09075  0.42312  0.94968  1.0000
  H   H165      1.0  0.06538  0.39552  0.53154  1.0000
  C   C91       1.0  0.05131  0.33542  0.53682  1.0000
  C   C92       1.0  0.01569  0.32114  0.88780  1.0000
  H   H166      1.0  0.26950  0.32593  0.78884  1.0000
  H   H167      1.0  0.05103  0.31400  0.54245  1.0000
  H   H168      1.0  0.06738  0.40486  0.95507  1.0000
  H   H169      1.0  0.30359  0.35226  0.76756  1.0000
  C   C93       1.0  0.08762  0.44220  0.92238  1.0000
  H   H170      1.0  0.12834  0.38590  0.96968  1.0000
  C   C94       1.0  0.04517  0.33550  0.50002  1.0000
  C   C95       1.0  0.08015  0.35539  0.63741  1.0000
  H   H171      1.0  0.32951  0.27031  0.80308  1.0000
  H   H172      1.0  0.05042  0.43385  0.51766  1.0000
  H   H173      1.0  0.06763  0.49834  0.64997  1.0000
  C   C96       1.0  0.05855  0.33594  0.61061  1.0000
  S   S21       1.0  0.32571  0.45548  0.96631  1.0000
  H   H174      1.0  0.31790  0.08888  0.78611  1.0000
  H   H175      1.0  0.31395  0.43319  0.82938  1.0000
  H   H176      1.0  0.30696  0.43620  0.55926  1.0000
  H   H177      1.0  0.00797  0.35097  0.52268  1.0000
  C   C97       1.0  0.03353  0.40936  0.51856  1.0000
  H   H178      1.0  0.05043  0.35834  0.49208  1.0000
  H   H179      1.0  0.33280  0.00987  0.85739  1.0000
  H   H180      1.0  0.09887  0.43751  0.97181  1.0000
  H   H181      1.0  0.27867  0.30262  0.74177  1.0000
  H   H182      1.0  0.31833  0.41085  0.76133  1.0000
  H   H183      1.0  0.08321  0.47405  0.95374  1.0000
  C   C98       1.0  0.32455  0.43599  0.80534  1.0000
  C   C99       1.0  0.00805  0.34407  0.93551  1.0000
  H   H184      1.0  0.01368  0.38832  0.92881  1.0000
  C   C100      1.0  0.00528  0.46668  0.52583  1.0000
  H   H185      1.0  0.02143  0.31961  0.49359  1.0000
  S   S22       1.0  0.07456  0.49155  0.81910  1.0000
  H   H186      1.0  0.00265  0.50158  0.94968  1.0000
  H   H187      1.0  0.33283  0.02785  0.74144  1.0000
  H   H188      1.0  0.00436  0.30029  0.93465  1.0000
  H   H189      1.0  0.03960  0.49692  0.59896  1.0000
  S   S23       1.0  0.00219  0.34254  0.97734  1.0000
  C   C101      1.0  0.08366  0.37023  0.98783  1.0000
  H   H190      1.0  0.00560  0.49879  0.60301  1.0000
  H   H191      1.0  0.00215  0.35950  0.56205  1.0000
  C   C102      1.0  0.01609  0.64486  0.37030  1.0000
  Fe  Fe11      1.0  0.30716  0.89206  0.13801  1.0000
  C   C103      1.0  0.18422  0.55187  0.39525  1.0000
  S   S24       1.0  0.27022  0.84219  0.14689  1.0000
  H   H192      1.0  0.07876  0.75374  0.24215  1.0000
  H   H193      1.0  0.07359  0.78354  0.35313  1.0000
  H   H194      1.0  0.28515  0.89659  0.22980  1.0000
  C   C104      1.0  0.00869  0.71441  0.46125  1.0000
  H   H195      1.0  0.17968  0.52823  0.39738  1.0000
  S   S25       1.0  0.30026  0.92917  0.11769  1.0000
  Fe  Fe12      1.0  0.10857  0.64923  0.26112  1.0000
  S   S26       1.0  0.13485  0.68712  0.29652  1.0000
  S   S27       1.0  0.12248  0.61585  0.24384  1.0000
  Fe  Fe13      1.0  0.06265  0.66863  0.24943  1.0000
  S   S28       1.0  0.08533  0.70774  0.28370  1.0000
  H   H196      1.0  0.03560  0.76941  0.36374  1.0000
  Fe  Fe14      1.0  0.12904  0.71692  0.26032  1.0000
  S   S29       1.0  0.16242  0.76707  0.24813  1.0000
  Fe  Fe15      1.0  0.08894  0.67481  0.31649  1.0000
  S   S30       1.0  0.07868  0.67065  0.37071  1.0000
  S   S31       1.0  0.10546  0.67957  0.22380  1.0000
  S   S32       1.0  0.06364  0.63516  0.28348  1.0000
  C   C105      1.0  0.01235  0.56694  0.18634  1.0000
  C   C106      1.0  0.03995  0.65493  0.42263  1.0000
  C   C107      1.0  0.04232  0.65524  0.38875  1.0000
  H   H197      1.0  0.13203  0.58337  0.34515  1.0000
  H   H198      1.0  0.06002  0.66284  0.43720  1.0000
  C   C108      1.0  0.19232  0.55178  0.32136  1.0000
  C   C109      1.0  0.03764  0.66197  0.16584  1.0000
  H   H199      1.0  0.04726  0.78582  0.41929  1.0000
  H   H200      1.0  0.05856  0.66562  0.17593  1.0000
  H   H201      1.0  0.09878  0.75152  0.03928  1.0000
  C   C110      1.0  0.24121  0.82198  0.17631  1.0000
  C   C111      1.0  0.23133  0.83640  0.19779  1.0000
  C   C112      1.0  0.20738  0.81927  0.21949  1.0000
  C   C113      1.0  0.19296  0.78745  0.22038  1.0000
  C   C114      1.0  0.20299  0.77305  0.19911  1.0000
  C   C115      1.0  0.22671  0.79014  0.17716  1.0000
  H   H202      1.0  0.24170  0.86072  0.19716  1.0000
  H   H203      1.0  0.19992  0.83082  0.23567  1.0000
  H   H204      1.0  0.19263  0.74874  0.19974  1.0000
  H   H205      1.0  0.23402  0.77860  0.16076  1.0000
  H   H206      1.0  0.17123  0.53182  0.27516  1.0000
  N   N7        1.0  0.16281  0.55351  0.37151  1.0000
  C   C116      1.0  0.09004  0.52618  0.29679  1.0000
  C   C117      1.0  0.10982  0.53404  0.27068  1.0000
  C   C118      1.0  0.11931  0.56143  0.25432  1.0000
  C   C119      1.0  0.10923  0.58117  0.26411  1.0000
  C   C120      1.0  0.08920  0.57311  0.29002  1.0000
  C   C121      1.0  0.07959  0.54566  0.30623  1.0000
  H   H207      1.0  0.07034  0.52510  0.20718  1.0000
  H   H208      1.0  0.13492  0.56762  0.23437  1.0000
  H   H209      1.0  0.08140  0.58818  0.29784  1.0000
  H   H210      1.0  0.06433  0.53974  0.32646  1.0000
  H   H211      1.0  0.09288  0.57781  0.18510  1.0000
  H   H212      1.0  0.20776  0.56501  0.38619  1.0000
  C   C122      1.0  0.11790  0.50592  0.39707  1.0000
  C   C123      1.0  0.08083  0.75071  0.05499  1.0000
  C   C124      1.0  0.01401  0.65732  0.18626  1.0000
  C   C125      1.0  0.13120  0.53883  0.38482  1.0000
  H   H213      1.0  0.07420  0.76147  0.10294  1.0000
  H   H214      1.0  0.11143  0.54245  0.16987  1.0000
  H   H215      1.0  0.05353  0.72607  0.21343  1.0000
  H   H216      1.0  0.11157  0.78569  0.08702  1.0000
  C   C126      1.0  0.31732  0.91781  0.28771  1.0000
  H   H217      1.0  0.15627  0.62967  0.31282  1.0000
  H   H218      1.0  0.15753  0.51367  0.34692  1.0000
  C   C127      1.0  0.03342  0.59178  0.20967  1.0000
  C   C128      1.0  0.09289  0.76197  0.08901  1.0000
  H   H219      1.0  0.21116  0.55319  0.33581  1.0000
  C   C129      1.0  0.00913  0.69752  0.30187  1.0000
  H   H220      1.0  0.08626  0.50730  0.43138  1.0000
  N   N8        1.0  0.05366  0.74148  0.37966  1.0000
  H   H221      1.0  0.11824  0.51930  0.26356  1.0000
  H   H222      1.0  0.08661  0.53040  0.13509  1.0000
  H   H223      1.0  0.01850  0.69914  0.39927  1.0000
  H   H224      1.0  0.17127  0.59756  0.38689  1.0000
  H   H225      1.0  0.12960  0.55270  0.40463  1.0000
  C   C130      1.0  0.00628  0.57211  0.10612  1.0000
  H   H226      1.0  0.07039  0.56686  0.14856  1.0000
  H   H227      1.0  0.16868  0.63790  0.35415  1.0000
  H   H228      1.0  0.01328  0.67823  0.30333  1.0000
  H   H229      1.0  0.02480  0.71398  0.28387  1.0000
  H   H230      1.0  0.19854  0.57482  0.31326  1.0000
  H   H231      1.0  0.18403  0.51013  0.29786  1.0000
  C   C131      1.0  0.08947  0.53841  0.16040  1.0000
  H   H232      1.0  0.19214  0.58856  0.42901  1.0000
  H   H233      1.0  0.07854  0.84064  0.41194  1.0000
  C   C132      1.0  0.05711  0.77203  0.37296  1.0000
  C   C133      1.0  0.16261  0.53701  0.34115  1.0000
  H   H234      1.0  0.04919  0.71566  0.44578  1.0000
  C   C134      1.0  0.08263  0.74404  0.39169  1.0000
  S   S33       1.0  0.01776  0.65765  0.22839  1.0000
  H   H235      1.0  0.01742  0.64464  0.34425  1.0000
  H   H236      1.0  0.10522  0.74542  0.34579  1.0000
  S   S34       1.0  0.00356  0.65859  0.07703  1.0000
  C   C135      1.0  0.10991  0.75881  0.36832  1.0000
  H   H237      1.0  0.31187  0.95533  0.26947  1.0000
  H   H238      1.0  0.26440  0.90723  0.25710  1.0000
  H   H239      1.0  0.19920  0.53583  0.45397  1.0000
  C   C136      1.0  0.13774  0.76030  0.38355  1.0000
  H   H240      1.0  0.05235  0.66531  0.11647  1.0000
  H   H241      1.0  0.07868  0.72114  0.39768  1.0000
  H   H242      1.0  0.09012  0.75678  0.41469  1.0000
  H   H243      1.0  0.08682  0.76661  0.15350  1.0000
  H   H244      1.0  0.19310  0.63627  0.32348  1.0000
  H   H245      1.0  0.19771  0.59888  0.35869  1.0000
  C   C137      1.0  0.06615  0.79415  0.40182  1.0000
  H   H246      1.0  0.29822  0.91112  0.30480  1.0000
  H   H247      1.0  0.08664  0.79720  0.41415  1.0000
  H   H248      1.0  0.16203  0.55202  0.44110  1.0000
  H   H249      1.0  0.20634  0.56919  0.47608  1.0000
  H   H250      1.0  0.11569  0.78218  0.36211  1.0000
  H   H251      1.0  0.11083  0.58553  0.14621  1.0000
  H   H252      1.0  0.02420  0.59054  0.12081  1.0000
  Fe  Fe16      1.0  0.33355  0.95833  0.15594  1.0000
  H   H253      1.0  0.05273  0.82388  0.37864  1.0000
  C   C138      1.0  0.16943  0.62614  0.33188  1.0000
  H   H254      1.0  0.05188  0.58780  0.21738  1.0000
  H   H255      1.0  0.14441  0.77425  0.40588  1.0000
  H   H256      1.0  0.13323  0.73719  0.38942  1.0000
  H   H257      1.0  0.15681  0.77060  0.36622  1.0000
  C   C139      1.0  0.15583  0.59232  0.33797  1.0000
  H   H258      1.0  0.01058  0.64533  0.46394  1.0000
  S   S35       1.0  0.32682  0.98943  0.18935  1.0000
  N   N9        1.0  0.11712  0.75082  0.13838  1.0000
  C   C140      1.0  0.10391  0.74181  0.10486  1.0000
  C   C141      1.0  0.12614  0.72868  0.15088  1.0000
  C   C142      1.0  0.09263  0.74911  0.16015  1.0000
  C   C143      1.0  0.14336  0.78276  0.13965  1.0000
  C   C144      1.0  0.17027  0.79024  0.11712  1.0000
  C   C145      1.0  0.09990  0.75362  0.19684  1.0000
  C   C146      1.0  0.13843  0.71473  0.12600  1.0000
  C   C147      1.0  0.15054  0.69638  0.14269  1.0000
  C   C148      1.0  0.19206  0.82432  0.11567  1.0000
  C   C149      1.0  0.04568  0.72423  0.34804  1.0000
  H   H259      1.0  0.12016  0.74115  0.08771  1.0000
  H   H260      1.0  0.14296  0.73915  0.17074  1.0000
  H   H261      1.0  0.10635  0.70880  0.16186  1.0000
  C   C150      1.0  0.06375  0.51566  0.18238  1.0000
  H   H262      1.0  0.13561  0.79918  0.13493  1.0000
  H   H263      1.0  0.15310  0.78832  0.16441  1.0000
  H   H264      1.0  0.16312  0.78242  0.09204  1.0000
  H   H265      1.0  0.18304  0.77973  0.12668  1.0000
  H   H266      1.0  0.03446  0.58745  0.06332  1.0000
  H   H267      1.0  0.11885  0.77669  0.20194  1.0000
  H   H268      1.0  0.10592  0.73708  0.20620  1.0000
  H   H269      1.0  0.11997  0.69901  0.10964  1.0000
  H   H270      1.0  0.15671  0.73211  0.11101  1.0000
  H   H271      1.0  0.15842  0.68610  0.12427  1.0000
  H   H272      1.0  0.16988  0.71113  0.15853  1.0000
  H   H273      1.0  0.13266  0.67794  0.15734  1.0000
  H   H274      1.0  0.21249  0.82895  0.10182  1.0000
  H   H275      1.0  0.18134  0.83587  0.10353  1.0000
  H   H276      1.0  0.19926  0.83389  0.14028  1.0000
  C   C151      1.0  0.20628  0.56014  0.45165  1.0000
  H   H277      1.0  0.15624  0.58177  0.31473  1.0000
  H   H278      1.0  0.28194  0.92934  0.22148  1.0000
  C   C152      1.0  0.28438  0.91593  0.24106  1.0000
  C   C153      1.0  0.09084  0.56895  0.16014  1.0000
  H   H279      1.0  0.09215  0.83537  0.37376  1.0000
  C   C154      1.0  0.18459  0.56410  0.42969  1.0000
  H   H280      1.0  0.00976  0.72856  0.39974  1.0000
  H   H281      1.0  0.07284  0.76527  0.04416  1.0000
  H   H282      1.0  0.04306  0.51668  0.17704  1.0000
  H   H283      1.0  0.08442  0.71827  0.10526  1.0000
  H   H284      1.0  0.07154  0.72688  0.15704  1.0000
  C   C155      1.0  0.03409  0.66184  0.13225  1.0000
  C   C156      1.0  0.31334  0.93582  0.25995  1.0000
  C   C157      1.0  0.07272  0.74952  0.21617  1.0000
  H   H285      1.0  0.06568  0.76572  0.20802  1.0000
  C   C158      1.0  0.17329  0.58631  0.36479  1.0000
  C   C159      1.0  0.03684  0.72776  0.44003  1.0000
  C   C160      1.0  0.01327  0.71252  0.33494  1.0000
  C   C161      1.0  0.07276  0.82537  0.39072  1.0000
  C   C162      1.0  0.18927  0.53327  0.29115  1.0000
  C   C163      1.0  0.00685  0.65687  0.11899  1.0000
  H   H286      1.0  0.01065  0.60367  0.06837  1.0000
  H   H287      1.0  0.13182  0.50431  0.41654  1.0000
  H   H288      1.0  0.04367  0.61421  0.19785  1.0000
  H   H289      1.0  0.05140  0.75163  0.44718  1.0000
  H   H290      1.0  0.03986  0.51763  0.99376  1.0000
  H   H291      1.0  0.31358  0.89635  0.27686  1.0000
  C   C164      1.0  0.02850  0.72383  0.40354  1.0000
  H   H292      1.0  0.06132  0.73843  0.32858  1.0000
  H   H293      1.0  0.04877  0.70428  0.35004  1.0000
  H   H294      1.0  0.06156  0.72712  0.05579  1.0000
  H   H295      1.0  0.30499  0.87063  0.32750  1.0000
  H   H296      1.0  0.11538  0.53804  0.36602  1.0000
  H   H297      1.0  0.22958  0.57260  0.44189  1.0000
  H   H298      1.0  0.14407  0.53377  0.32485  1.0000
  H   H299      1.0  0.32855  0.95611  0.33490  1.0000
  C   C165      1.0  0.01190  0.64497  0.43789  1.0000
  H   H300      1.0  0.02094  0.59204  0.23148  1.0000
  H   H301      1.0  0.33226  0.94420  0.24262  1.0000
  H   H302      1.0  0.01520  0.71605  0.48707  1.0000
  H   H303      1.0  0.01174  0.51899  0.41910  1.0000
  C   C166      1.0  0.01175  0.58264  0.07103  1.0000
  H   H304      1.0  0.00836  0.73114  0.33216  1.0000
  H   H305      1.0  0.00707  0.53966  0.47115  1.0000
  H   H306      1.0  0.00851  0.55170  0.10744  1.0000
  H   H307      1.0  0.02567  0.56767  0.16509  1.0000
  H   H308      1.0  0.21080  0.54415  0.27754  1.0000
  H   H309      1.0  0.14683  0.50852  0.19806  1.0000
  H   H310      1.0  0.33018  0.86792  0.37797  1.0000
  H   H311      1.0  0.32290  0.83807  0.34981  1.0000
  C   C167      1.0  0.32966  0.87927  0.32729  1.0000
  H   H312      1.0  0.00445  0.54495  0.19867  1.0000
  H   H313      1.0  0.11381  0.50333  0.15049  1.0000
  Fe  Fe17      1.0  0.33281  0.96017  0.65236  1.0000
  Fe  Fe18      1.0  0.30868  0.89373  0.63669  1.0000
  C   C168      1.0  0.19905  0.81430  0.59654  1.0000
  S   S36       1.0  0.27526  0.84377  0.64995  1.0000
  C   C169      1.0  0.08166  0.59440  0.88856  1.0000
  H   H314      1.0  0.20207  0.80050  0.57776  1.0000
  C   C170      1.0  0.04111  0.50464  0.97286  1.0000
  H   H315      1.0  0.05000  0.52278  0.74361  1.0000
  H   H316      1.0  0.06643  0.56605  0.68520  1.0000
  S   S37       1.0  0.29879  0.92869  0.61586  1.0000
  Fe  Fe19      1.0  0.11627  0.65535  0.77246  1.0000
  S   S38       1.0  0.13241  0.69796  0.80167  1.0000
  S   S39       1.0  0.13979  0.62778  0.77119  1.0000
  Fe  Fe20      1.0  0.06549  0.66074  0.74243  1.0000
  S   S40       1.0  0.07730  0.70361  0.76923  1.0000
  H   H317      1.0  0.26117  0.89156  0.75114  1.0000
  Fe  Fe21      1.0  0.12593  0.71835  0.75616  1.0000
  S   S41       1.0  0.15731  0.76756  0.73857  1.0000
  Fe  Fe22      1.0  0.08298  0.68001  0.81242  1.0000
  S   S42       1.0  0.06823  0.67927  0.86497  1.0000
  S   S43       1.0  0.11287  0.67664  0.72639  1.0000
  S   S44       1.0  0.06797  0.63640  0.78624  1.0000
  C   C171      1.0  0.27474  0.91408  0.73982  1.0000
  C   C172      1.0  0.03014  0.65840  0.91739  1.0000
  C   C173      1.0  0.03204  0.65900  0.88345  1.0000
  C   C174      1.0  0.09427  0.52377  0.70742  1.0000
  H   H318      1.0  0.05062  0.66972  0.93152  1.0000
  C   C175      1.0  0.29553  0.93817  0.76489  1.0000
  C   C176      1.0  0.02452  0.67538  0.67475  1.0000
  H   H319      1.0  0.06504  0.51178  0.96791  1.0000
  H   H320      1.0  0.03574  0.69034  0.69490  1.0000
  H   H321      1.0  0.10715  0.54718  0.69774  1.0000
  C   C177      1.0  0.24373  0.82368  0.67665  1.0000
  C   C178      1.0  0.22830  0.83700  0.69053  1.0000
  C   C179      1.0  0.20238  0.81966  0.70977  1.0000
  C   C180      1.0  0.19146  0.78872  0.71574  1.0000
  C   C181      1.0  0.20729  0.77556  0.70244  1.0000
  C   C182      1.0  0.23299  0.79282  0.68289  1.0000
  H   H322      1.0  0.23593  0.86049  0.68574  1.0000
  H   H323      1.0  0.19048  0.83024  0.71981  1.0000
  H   H324      1.0  0.19956  0.75197  0.70697  1.0000
  H   H325      1.0  0.24462  0.78212  0.67241  1.0000
  C   C183      1.0  0.04348  0.54290  0.93225  1.0000
  H   H326      1.0  0.28054  0.94144  0.78160  1.0000
  H   H327      1.0  0.06569  0.54677  0.92375  1.0000
  C   C184      1.0  0.07817  0.54579  0.80725  1.0000
  C   C185      1.0  0.09234  0.57605  0.79721  1.0000
  C   C186      1.0  0.12157  0.58998  0.78478  1.0000
  C   C187      1.0  0.13656  0.57339  0.78270  1.0000
  C   C188      1.0  0.12247  0.54314  0.79311  1.0000
  H   H328      1.0  0.08752  0.57223  0.72203  1.0000
  H   H329      1.0  0.08066  0.58860  0.79910  1.0000
  H   H330      1.0  0.15925  0.58406  0.77321  1.0000
  H   H331      1.0  0.18991  0.82771  0.58530  1.0000
  H   H332      1.0  0.04277  0.52913  0.87282  1.0000
  C   C189      1.0  0.09789  0.62634  0.87461  1.0000
  H   H333      1.0  0.24326  0.86471  0.85719  1.0000
  C   C190      1.0  0.01843  0.64553  0.67586  1.0000
  C   C191      1.0  0.27724  0.89874  0.82589  1.0000
  C   C192      1.0  0.25282  0.92268  0.72491  1.0000
  H   H334      1.0  0.12112  0.63253  0.86731  1.0000
  H   H335      1.0  0.22153  0.83025  0.60690  1.0000
  H   H336      1.0  0.23850  0.90554  0.70665  1.0000
  H   H337      1.0  0.04367  0.56890  0.75309  1.0000
  H   H338      1.0  0.04820  0.55754  0.95400  1.0000
  C   C193      1.0  0.09315  0.52925  0.80537  1.0000
  H   H339      1.0  0.09922  0.64300  0.89277  1.0000
  H   H340      1.0  0.29046  0.88281  0.78377  1.0000
  H   H341      1.0  0.26534  0.94493  0.71268  1.0000
  H   H342      1.0  0.15551  0.51231  0.69696  1.0000
  H   H343      1.0  0.23792  0.92370  0.74373  1.0000
  C   C194      1.0  0.04719  0.57435  0.72697  1.0000
  H   H344      1.0  0.28803  0.91225  0.71972  1.0000
  H   H345      1.0  0.26050  0.90384  0.81525  1.0000
  C   C195      1.0  0.00532  0.64434  0.86552  1.0000
  H   H346      1.0  0.13434  0.53068  0.79183  1.0000
  H   H347      1.0  0.30834  0.96004  0.75182  1.0000
  S   S45       1.0  0.02567  0.63087  0.71070  1.0000
  C   C196      1.0  0.06458  0.56069  0.71128  1.0000
  H   H348      1.0  0.32459  0.90849  0.74314  1.0000
  C   C197      1.0  0.01428  0.68517  0.64848  1.0000
  C   C198      1.0  0.05908  0.51172  0.66263  1.0000
  C   C199      1.0  0.11092  0.50721  0.69565  1.0000
  H   H349      1.0  0.04160  0.53249  0.60866  1.0000
  N   N10       1.0  0.12394  0.74991  0.63407  1.0000
  C   C200      1.0  0.14629  0.77189  0.61000  1.0000
  C   C201      1.0  0.09386  0.72962  0.61793  1.0000
  C   C202      1.0  0.11938  0.76841  0.65967  1.0000
  C   C203      1.0  0.13544  0.73140  0.65059  1.0000
  C   C204      1.0  0.14467  0.71296  0.62847  1.0000
  C   C205      1.0  0.17820  0.79414  0.62331  1.0000
  C   C206      1.0  0.09370  0.75048  0.68432  1.0000
  C   C207      1.0  0.09430  0.71987  0.58246  1.0000
  C   C208      1.0  0.06295  0.69549  0.57147  1.0000
  C   C209      1.0  0.16233  0.70118  0.64715  1.0000
  C   C210      1.0  0.09099  0.77170  0.70838  1.0000
  H   H350      1.0  0.13719  0.78558  0.59908  1.0000
  H   H351      1.0  0.14961  0.76005  0.58938  1.0000
  H   H352      1.0  0.08037  0.70877  0.63253  1.0000
  H   H353      1.0  0.08017  0.74101  0.61707  1.0000
  H   H354      1.0  0.11483  0.78540  0.64817  1.0000
  H   H355      1.0  0.14019  0.78154  0.67431  1.0000
  H   H356      1.0  0.15475  0.74599  0.66656  1.0000
  H   H357      1.0  0.11813  0.71474  0.66724  1.0000
  H   H358      1.0  0.15919  0.72654  0.60822  1.0000
  H   H359      1.0  0.12416  0.69297  0.61881  1.0000
  H   H360      1.0  0.17741  0.80931  0.64197  1.0000
  H   H361      1.0  0.18866  0.78171  0.63384  1.0000
  H   H362      1.0  0.09785  0.73448  0.69831  1.0000
  H   H363      1.0  0.07169  0.73768  0.67199  1.0000
  H   H364      1.0  0.10163  0.73955  0.56615  1.0000
  H   H365      1.0  0.10978  0.71100  0.57898  1.0000
  H   H366      1.0  0.04695  0.70409  0.57280  1.0000
  H   H367      1.0  0.06382  0.68897  0.54607  1.0000
  H   H368      1.0  0.05446  0.67500  0.58677  1.0000
  H   H369      1.0  0.16801  0.68747  0.63088  1.0000
  H   H370      1.0  0.18368  0.72028  0.65665  1.0000
  H   H371      1.0  0.14879  0.68668  0.66753  1.0000
  H   H372      1.0  0.08514  0.78718  0.69573  1.0000
  H   H373      1.0  0.07298  0.75821  0.72614  1.0000
  H   H374      1.0  0.11243  0.78528  0.72179  1.0000
  C   C211      1.0  0.14430  0.52507  0.70468  1.0000
  C   C212      1.0  0.30121  0.90215  0.80100  1.0000
  H   H375      1.0  0.09518  0.59435  0.90945  1.0000
  H   H376      1.0  0.00637  0.64463  0.83943  1.0000
  N   N11       1.0  0.02853  0.55183  0.90659  1.0000
  H   H377      1.0  0.10952  0.50414  0.66911  1.0000
  H   H378      1.0  0.15556  0.54743  0.69257  1.0000
  H   H379      1.0  0.08160  0.57885  0.86981  1.0000
  H   H380      1.0  0.24739  0.85022  0.81903  1.0000
  H   H381      1.0  0.02546  0.54770  0.85430  1.0000
  C   C213      1.0  0.04875  0.52610  0.71716  1.0000
  H   H382      1.0  0.06031  0.59930  0.72436  1.0000
  C   C214      1.0  0.02402  0.53400  0.87583  1.0000
  H   H383      1.0  0.01568  0.51115  0.66066  1.0000
  C   C215      1.0  0.02635  0.50942  0.94318  1.0000
  H   H384      1.0  0.14708  0.52853  0.73122  1.0000
  H   H385      1.0  0.27542  0.86011  0.85042  1.0000
  H   H386      1.0  0.03947  0.59256  0.87997  1.0000
  H   H387      1.0  0.31769  0.89842  0.81466  1.0000
  H   H388      1.0  0.30031  0.95972  0.83252  1.0000
  H   H389      1.0  0.05539  0.53506  0.81616  1.0000
  H   H390      1.0  0.00359  0.55910  0.94434  1.0000
  C   C216      1.0  0.04915  0.58506  0.89949  1.0000
  H   H391      1.0  0.08593  0.62764  0.85290  1.0000
  H   H392      1.0  0.05106  0.59911  0.92101  1.0000
  H   H393      1.0  0.09699  0.52594  0.73411  1.0000
  C   C217      1.0  0.25986  0.86645  0.83885  1.0000
  N   N12       1.0  0.31721  0.93168  0.78297  1.0000
  H   H394      1.0  0.28836  0.91385  0.84684  1.0000
  H   H395      1.0  0.07410  0.53537  0.65450  1.0000
  H   H396      1.0  0.01799  0.70793  0.64814  1.0000
  C   C218      1.0  0.00296  0.62581  0.65030  1.0000
  H   H397      1.0  0.01231  0.70659  0.94638  1.0000
  H   H398      1.0  0.02452  0.51687  0.71212  1.0000
  H   H399      1.0  0.02501  0.56591  0.71502  1.0000
  H   H400      1.0  0.00569  0.73333  0.92493  1.0000
  N   N13       1.0  0.06128  0.50930  0.69874  1.0000
  H   H401      1.0  0.31893  0.98866  0.80279  1.0000
  S   S46       1.0  0.32653  0.99163  0.68566  1.0000
  C   C219      1.0  0.32238  0.97502  0.82134  1.0000
  C   C220      1.0  0.02877  0.50766  0.61259  1.0000
  C   C221      1.0  0.00202  0.64356  0.93327  1.0000
  S   S47       1.0  0.39643  0.46294  0.45467  1.0000
  H   H402      1.0  0.49782  0.00889  0.33826  1.0000
  H   H403      1.0  0.41591  0.35616  0.32241  1.0000
  Fe  Fe23      1.0  0.64469  0.09649  0.37884  1.0000
  S   S48       1.0  0.59853  0.08536  0.39679  1.0000
  S   S49       1.0  0.64670  0.05639  0.35985  1.0000
  Fe  Fe24      1.0  0.39554  0.34223  0.23009  1.0000
  S   S50       1.0  0.39140  0.30853  0.19227  1.0000
  H   H404      1.0  0.36703  0.14273  0.26658  1.0000
  Fe  Fe25      1.0  0.46209  0.38408  0.21781  1.0000
  S   S51       1.0  0.46334  0.35367  0.17955  1.0000
  S   S52       1.0  0.49970  0.42799  0.23829  1.0000
  Fe  Fe26      1.0  0.41987  0.35005  0.16172  1.0000
  S   S53       1.0  0.41357  0.35444  0.10738  1.0000
  Fe  Fe27      1.0  0.43480  0.31483  0.21348  1.0000
  S   S54       1.0  0.44924  0.27959  0.22453  1.0000
  S   S55       1.0  0.42062  0.38284  0.19834  1.0000
  S   S56       1.0  0.43693  0.34607  0.25279  1.0000
  Fe  Fe28      1.0  0.42376  0.09623  0.39906  1.0000
  S   S57       1.0  0.45697  0.08622  0.37498  1.0000
  S   S58       1.0  0.40678  0.07943  0.45074  1.0000
  Fe  Fe29      1.0  0.42861  0.13999  0.34336  1.0000
  S   S59       1.0  0.46196  0.13220  0.31613  1.0000
  S   S60       1.0  0.40979  0.17008  0.32499  1.0000
  Fe  Fe30      1.0  0.43266  0.08335  0.32899  1.0000
  S   S61       1.0  0.43029  0.04839  0.29381  1.0000
  Fe  Fe31      1.0  0.48386  0.13560  0.36413  1.0000
  S   S62       1.0  0.53488  0.16158  0.36556  1.0000
  S   S63       1.0  0.39708  0.08995  0.35323  1.0000
  S   S64       1.0  0.45263  0.14683  0.39110  1.0000
  C   C222      1.0  0.42165  0.20095  0.29741  1.0000
  C   C223      1.0  0.44811  0.21230  0.27920  1.0000
  C   C224      1.0  0.45607  0.23629  0.25725  1.0000
  C   C225      1.0  0.43791  0.24951  0.25311  1.0000
  C   C226      1.0  0.41163  0.23841  0.27158  1.0000
  C   C227      1.0  0.40355  0.21428  0.29341  1.0000
  H   H405      1.0  0.46243  0.20256  0.28202  1.0000
  H   H406      1.0  0.47666  0.24486  0.24349  1.0000
  H   H407      1.0  0.39736  0.24816  0.26872  1.0000
  H   H408      1.0  0.38300  0.20576  0.30727  1.0000
  C   C228      1.0  0.58194  0.10753  0.38818  1.0000
  C   C229      1.0  0.55289  0.09794  0.39991  1.0000
  C   C230      1.0  0.53836  0.11437  0.39313  1.0000
  C   C231      1.0  0.55299  0.14089  0.37496  1.0000
  C   C232      1.0  0.58236  0.15089  0.36376  1.0000
  C   C233      1.0  0.59670  0.13408  0.37004  1.0000
  H   H409      1.0  0.54161  0.07771  0.41438  1.0000
  H   H410      1.0  0.51610  0.10686  0.40260  1.0000
  H   H411      1.0  0.59388  0.17148  0.34983  1.0000
  H   H412      1.0  0.61920  0.14176  0.36107  1.0000
  H   H413      1.0  0.58951  0.10736  0.04036  1.0000
  C   C234      1.0  0.57381  0.45377  0.18212  1.0000
  C   C235      1.0  0.54438  0.43712  0.19458  1.0000
  C   C236      1.0  0.53552  0.44876  0.22021  1.0000
  C   C237      1.0  0.55596  0.47741  0.23267  1.0000
  C   C238      1.0  0.36646  0.33216  0.40268  1.0000
  H   H414      1.0  0.46763  0.04123  0.03420  1.0000
  H   H415      1.0  0.52857  0.41533  0.18440  1.0000
  H   H416      1.0  0.38593  0.39016  0.00988  1.0000
  H   H417      1.0  0.40888  0.15745  0.16374  1.0000
  C   C239      1.0  0.36276  0.10590  0.19333  1.0000
  H   H418      1.0  0.35191  0.43146  0.29538  1.0000
  C   C240      1.0  0.40121  0.03237  0.26523  1.0000
  H   H419      1.0  0.53294  0.01686  0.02218  1.0000
  C   C241      1.0  0.38180  0.38555  0.10366  1.0000
  H   H420      1.0  0.42855  0.10158  0.25401  1.0000
  H   H421      1.0  0.45127  0.38954  0.36841  1.0000
  S   S65       1.0  0.35492  0.46956  0.39738  1.0000
  C   C242      1.0  0.54111  0.00624  0.12076  1.0000
  C   C243      1.0  0.36626  0.39731  0.08631  1.0000
  N   N14       1.0  0.40443  0.32719  0.36410  1.0000
  H   H422      1.0  0.37313  0.04700  0.28836  1.0000
  C   C244      1.0  0.35808  0.30279  0.02207  1.0000
  H   H423      1.0  0.39996  0.06646  0.02242  1.0000
  H   H424      1.0  0.57791  0.08177  0.00651  1.0000
  H   H425      1.0  0.46214  0.20407  0.20423  1.0000
  H   H426      1.0  0.34918  0.32832  0.38419  1.0000
  H   H427      1.0  0.52955  0.03424  0.23571  1.0000
  Fe  Fe32      1.0  0.37276  0.43862  0.40913  1.0000
  C   C245      1.0  0.40008  0.37705  0.05333  1.0000
  C   C246      1.0  0.39812  0.37448  0.08723  1.0000
  H   H428      1.0  0.45559  0.04834  0.08991  1.0000
  H   H429      1.0  0.55609  0.07079  0.04359  1.0000
  H   H430      1.0  0.48171  0.46014  0.16781  1.0000
  C   C247      1.0  0.37626  0.10695  0.25137  1.0000
  H   H431      1.0  0.42670  0.30080  0.36489  1.0000
  C   C248      1.0  0.38835  0.40730  0.34133  1.0000
  C   C249      1.0  0.41354  0.27086  0.42025  1.0000
  C   C250      1.0  0.36836  0.36396  0.29155  1.0000
  C   C251      1.0  0.39701  0.38961  0.29005  1.0000
  C   C252      1.0  0.40699  0.41113  0.31494  1.0000
  H   H432      1.0  0.38099  0.35623  0.44870  1.0000
  H   H433      1.0  0.41182  0.39261  0.27007  1.0000
  H   H434      1.0  0.42943  0.43066  0.31390  1.0000
  H   H435      1.0  0.43882  0.32860  0.39539  1.0000
  C   C253      1.0  0.58552  0.04613  0.30532  1.0000
  H   H436      1.0  0.39903  0.25440  0.43891  1.0000
  H   H437      1.0  0.54924  0.48652  0.25252  1.0000
  C   C254      1.0  0.42687  0.34755  0.33907  1.0000
  H   H438      1.0  0.58851  0.02778  0.31560  1.0000
  C   C255      1.0  0.58521  0.49419  0.22000  1.0000
  H   H439      1.0  0.49422  0.00882  0.28286  1.0000
  C   C256      1.0  0.56964  0.08981  0.02693  1.0000
  H   H440      1.0  0.41533  0.35631  0.40619  1.0000
  H   H441      1.0  0.38043  0.38425  0.12969  1.0000
  C   C257      1.0  0.41841  0.31170  0.38211  1.0000
  H   H442      1.0  0.37630  0.27082  0.39720  1.0000
  C   C258      1.0  0.50642  0.03077  0.23680  1.0000
  C   C259      1.0  0.37788  0.01791  0.02740  1.0000
  C   C260      1.0  0.39104  0.04518  0.00968  1.0000
  C   C261      1.0  0.49286  0.04195  0.47351  1.0000
  C   C262      1.0  0.34056  0.10350  0.29575  1.0000
  H   H443      1.0  0.64935  0.42276  0.10886  1.0000
  C   C263      1.0  0.45615  0.37532  0.35205  1.0000
  N   N15       1.0  0.53395  0.35555  0.27230  1.0000
  C   C264      1.0  0.52091  0.34168  0.23984  1.0000
  C   C265      1.0  0.50980  0.33996  0.29763  1.0000
  C   C266      1.0  0.54176  0.38826  0.27126  1.0000
  C   C267      1.0  0.56194  0.35420  0.28059  1.0000
  C   C268      1.0  0.56369  0.32643  0.26801  1.0000
  C   C269      1.0  0.54098  0.35798  0.21018  1.0000
  C   C270      1.0  0.55487  0.40684  0.30285  1.0000
  C   C271      1.0  0.49910  0.30634  0.30425  1.0000
  C   C272      1.0  0.47120  0.29204  0.32585  1.0000
  C   C273      1.0  0.53126  0.33736  0.18051  1.0000
  C   C274      1.0  0.56551  0.44025  0.29758  1.0000
  H   H444      1.0  0.49916  0.34116  0.23592  1.0000
  H   H445      1.0  0.51489  0.31764  0.23879  1.0000
  H   H446      1.0  0.51755  0.35108  0.32149  1.0000
  H   H447      1.0  0.48967  0.34176  0.29111  1.0000
  H   H448      1.0  0.52158  0.38979  0.26430  1.0000
  H   H449      1.0  0.55887  0.40073  0.25225  1.0000
  H   H450      1.0  0.58241  0.37440  0.27094  1.0000
  H   H451      1.0  0.56514  0.35547  0.30728  1.0000
  H   H452      1.0  0.56699  0.32775  0.24147  1.0000
  H   H453      1.0  0.54307  0.30472  0.27314  1.0000
  H   H454      1.0  0.53886  0.37792  0.20405  1.0000
  H   H455      1.0  0.56511  0.36609  0.21499  1.0000
  H   H456      1.0  0.53765  0.39903  0.32216  1.0000
  H   H457      1.0  0.49316  0.29298  0.28177  1.0000
  H   H458      1.0  0.51704  0.30430  0.31696  1.0000
  H   H459      1.0  0.45219  0.29271  0.31384  1.0000
  H   H460      1.0  0.46420  0.26798  0.33032  1.0000
  H   H461      1.0  0.47612  0.30396  0.34944  1.0000
  H   H462      1.0  0.50708  0.32868  0.17507  1.0000
  H   H463      1.0  0.54481  0.35020  0.15927  1.0000
  H   H464      1.0  0.53475  0.31789  0.18463  1.0000
  C   C275      1.0  0.62612  0.00956  0.20039  1.0000
  H   H465      1.0  0.35042  0.32429  0.13480  1.0000
  H   H466      1.0  0.40011  0.36661  0.37354  1.0000
  C   C276      1.0  0.35537  0.00571  0.21862  1.0000
  H   H467      1.0  0.54349  0.02445  0.07385  1.0000
  H   H468      1.0  0.66442  0.10080  0.48081  1.0000
  H   H469      1.0  0.56162  0.00448  0.11711  1.0000
  S   S66       1.0  0.35701  0.33535  0.26223  1.0000
  C   C277      1.0  0.35951  0.38189  0.34269  1.0000
  H   H470      1.0  0.36479  0.08205  0.25412  1.0000
  C   C278      1.0  0.48262  0.08776  0.01709  1.0000
  H   H471      1.0  0.53875  0.01632  0.29545  1.0000
  H   H472      1.0  0.51468  0.06283  0.46875  1.0000
  H   H473      1.0  0.43514  0.05777  0.06153  1.0000
  C   C279      1.0  0.45795  0.06464  0.07088  1.0000
  C   C280      1.0  0.47523  0.39566  0.32436  1.0000
  H   H474      1.0  0.43439  0.33470  0.32375  1.0000
  H   H475      1.0  0.54776  0.02792  0.13329  1.0000
  H   H476      1.0  0.45483  0.20643  0.16221  1.0000
  H   H477      1.0  0.45993  0.08390  0.01017  1.0000
  H   H478      1.0  0.49597  0.41535  0.33412  1.0000
  H   H479      1.0  0.48188  0.38316  0.30752  1.0000
  H   H480      1.0  0.46254  0.40433  0.31066  1.0000
  H   H481      1.0  0.42374  0.01415  0.23702  1.0000
  H   H482      1.0  0.46326  0.00733  0.32727  1.0000
  S   S67       1.0  0.34397  0.41021  0.03173  1.0000
  H   H483      1.0  0.34901  0.43778  0.33753  1.0000
  H   H484      1.0  0.50581  0.04915  0.22332  1.0000
  C   C281      1.0  0.48494  0.02081  0.34039  1.0000
  H   H485      1.0  0.39650  0.02088  0.37308  1.0000
  H   H486      1.0  0.39207  0.07603  0.21166  1.0000
  H   H487      1.0  0.48949  0.02484  0.45492  1.0000
  H   H488      1.0  0.49839  0.03370  0.39045  1.0000
  H   H489      1.0  0.53735  0.48871  0.16843  1.0000
  C   C282      1.0  0.38181  0.01663  0.45658  1.0000
  H   H490      1.0  0.39432  0.29715  0.30130  1.0000
  H   H491      1.0  0.37632  0.30522  0.03847  1.0000
  C   C283      1.0  0.63867  0.03712  0.21772  1.0000
  H   H492      1.0  0.50732  0.00900  0.09322  1.0000
  C   C284      1.0  0.36723  0.39879  0.05232  1.0000
  H   H493      1.0  0.36675  0.31735  0.33321  1.0000
  C   C285      1.0  0.39832  0.28790  0.40742  1.0000
  H   H494      1.0  0.49390  0.11026  0.02926  1.0000
  H   H495      1.0  0.38837  0.27057  0.33300  1.0000
  H   H496      1.0  0.39462  0.29923  0.42835  1.0000
  C   C286      1.0  0.55257  0.03792  0.30849  1.0000
  C   C287      1.0  0.59431  0.48234  0.19484  1.0000
  H   H497      1.0  0.43016  0.20783  0.19228  1.0000
  H   H498      1.0  0.65693  0.44541  0.14500  1.0000
  H   H499      1.0  0.33582  0.11176  0.24623  1.0000
  C   C288      1.0  0.37611  0.30493  0.34637  1.0000
  H   H500      1.0  0.61571  0.01273  0.11597  1.0000
  H   H501      1.0  0.35831  0.10883  0.31409  1.0000
  H   H502      1.0  0.59140  0.30568  0.27313  1.0000
  H   H503      1.0  0.41695  0.25814  0.40046  1.0000
  H   H504      1.0  0.54708  0.03481  0.33461  1.0000
  C   C289      1.0  0.40723  0.14992  0.21624  1.0000
  H   H505      1.0  0.38446  0.01618  0.43079  1.0000
  H   H506      1.0  0.53022  0.13649  0.99185  1.0000
  H   H507      1.0  0.57588  0.45317  0.32009  1.0000
  H   H508      1.0  0.62747  0.05117  0.10513  1.0000
  C   C290      1.0  0.36809  0.47761  0.30874  1.0000
  N   N16       1.0  0.51584  0.05703  0.29294  1.0000
  C   C291      1.0  0.49626  0.02964  0.27231  1.0000
  C   C292      1.0  0.50226  0.05329  0.32629  1.0000
  C   C293      1.0  0.51650  0.08394  0.27705  1.0000
  C   C294      1.0  0.54791  0.06346  0.29510  1.0000
  H   H509      1.0  0.64741  0.13250  0.45165  1.0000
  H   H510      1.0  0.58066  0.44457  0.16248  1.0000
  C   C295      1.0  0.53080  0.11367  0.29706  1.0000
  C   C296      1.0  0.52648  0.00531  0.08834  1.0000
  H   H511      1.0  0.37182  0.10980  0.16830  1.0000
  H   H512      1.0  0.61684  0.00784  0.17658  1.0000
  H   H513      1.0  0.43564  0.28674  0.43142  1.0000
  C   C297      1.0  0.53250  0.13973  0.27747  1.0000
  H   H514      1.0  0.47459  0.04753  0.47145  1.0000
  C   C298      1.0  0.34940  0.36032  0.31768  1.0000
  H   H515      1.0  0.51990  0.06822  0.34391  1.0000
  H   H516      1.0  0.48541  0.06094  0.32649  1.0000
  H   H517      1.0  0.49318  0.07851  0.27073  1.0000
  H   H518      1.0  0.52924  0.08952  0.25396  1.0000
  H   H519      1.0  0.55918  0.07036  0.27117  1.0000
  H   H520      1.0  0.56147  0.08315  0.31121  1.0000
  H   H521      1.0  0.47245  0.10238  0.23092  1.0000
  C   C299      1.0  0.37934  0.28395  0.32151  1.0000
  H   H522      1.0  0.39123  0.48215  0.31398  1.0000
  H   H523      1.0  0.63683  0.02875  0.07923  1.0000
  H   H524      1.0  0.55404  0.12058  0.30470  1.0000
  H   H525      1.0  0.51718  0.11101  0.31889  1.0000
  H   H526      1.0  0.54609  0.44316  0.29131  1.0000
  H   H527      1.0  0.49688  0.43725  0.15369  1.0000
  H   H528      1.0  0.49995  0.07009  0.05483  1.0000
  H   H529      1.0  0.34552  0.30335  0.08706  1.0000
  H   H530      1.0  0.58731  0.32233  0.30974  1.0000
  H   H531      1.0  0.46287  0.10831  0.19078  1.0000
  H   H532      1.0  0.46782  0.08746  0.08197  1.0000
  C   C300      1.0  0.64660  0.44078  0.12063  1.0000
  C   C301      1.0  0.64964  0.01437  0.26276  1.0000
  H   H533      1.0  0.42353  0.15863  0.23669  1.0000
  H   H534      1.0  0.60046  0.06735  0.31873  1.0000
  H   H535      1.0  0.54273  0.16057  0.29251  1.0000
  H   H536      1.0  0.54669  0.14408  0.25567  1.0000
  H   H537      1.0  0.50964  0.13466  0.27017  1.0000
  H   H538      1.0  0.35297  0.40492  0.09929  1.0000
  C   C302      1.0  0.39806  0.34670  0.38668  1.0000
  H   H539      1.0  0.61176  0.34620  0.27777  1.0000
  H   H540      1.0  0.49289  0.00273  0.19361  1.0000
  H   H541      1.0  0.48184  0.45261  0.12501  1.0000
  H   H542      1.0  0.47008  0.36793  0.36534  1.0000
  C   C303      1.0  0.59021  0.32522  0.28315  1.0000
  H   H543      1.0  0.39522  0.11602  0.26902  1.0000
  H   H544      1.0  0.44957  0.13534  0.23043  1.0000
  H   H545      1.0  0.56611  0.12321  0.99942  1.0000
  C   C304      1.0  0.37544  0.03491  0.26811  1.0000
  H   H546      1.0  0.57439  0.40518  0.31168  1.0000
  S   S68       1.0  0.40303  0.43328  0.37338  1.0000
  C   C305      1.0  0.38480  0.38913  0.03596  1.0000
  H   H547      1.0  0.63921  0.05657  0.20682  1.0000
  H   H548      1.0  0.39303  0.16046  0.22000  1.0000
  C   C306      1.0  0.42471  0.16309  0.18426  1.0000
  C   C307      1.0  0.52588  0.48532  0.14493  1.0000
  C   C308      1.0  0.66065  0.46929  0.09980  1.0000
  C   C309      1.0  0.44406  0.19746  0.18598  1.0000
  C   C310      1.0  0.33781  0.07209  0.19484  1.0000
  C   C311      1.0  0.34572  0.44391  0.31286  1.0000
  C   C312      1.0  0.64024  0.12461  0.47677  1.0000
  C   C313      1.0  0.47742  0.02113  0.37604  1.0000
  C   C314      1.0  0.37564  0.00691  0.35887  1.0000
  C   C315      1.0  0.65069  0.03982  0.24895  1.0000
  H   H549      1.0  0.58256  0.44977  0.27798  1.0000
  C   C316      1.0  0.45352  0.09770  0.21453  1.0000
  H   H550      1.0  0.43959  0.07287  0.21123  1.0000
  H   H551      1.0  0.37165  0.37539  0.41813  1.0000
  H   H552      1.0  0.41217  0.10409  0.18274  1.0000
  C   C317      1.0  0.35242  0.02140  0.24489  1.0000
  N   N17       1.0  0.38807  0.11594  0.21748  1.0000
  C   C318      1.0  0.47809  0.06452  0.04375  1.0000
  H   H553      1.0  0.64909  0.46287  0.07596  1.0000
  H   H554      1.0  0.41287  0.36888  0.04030  1.0000
  C   C319      1.0  0.40604  0.10092  0.20879  1.0000
  C   C320      1.0  0.43484  0.11049  0.22908  1.0000
  C   C321      1.0  0.49463  0.45723  0.14797  1.0000
  H   H555      1.0  0.44008  0.15429  0.17895  1.0000
  H   H556      1.0  0.34732  0.05719  0.19037  1.0000
  H   H557      1.0  0.47283  0.02575  0.27175  1.0000
  C   C322      1.0  0.63405  0.03354  0.10476  1.0000
  H   H558      1.0  0.64647  0.05159  0.44375  1.0000
  C   C323      1.0  0.39132  0.04433  0.47213  1.0000
  H   H559      1.0  0.33692  0.35801  0.16632  1.0000
  H   H560      1.0  0.35673  0.28850  0.00118  1.0000
  Fe  Fe33      1.0  0.37562  0.49141  0.44484  1.0000
  H   H561      1.0  0.37675  0.01835  0.05346  1.0000
  C   C324      1.0  0.65138  0.04070  0.46323  1.0000
  H   H562      1.0  0.53825  0.48036  0.12617  1.0000
  C   C325      1.0  0.35460  0.11782  0.26331  1.0000
  H   H563      1.0  0.54334  0.11139  0.03531  1.0000
  Fe  Fe34      1.0  0.35314  0.43104  0.47960  1.0000
  H   H564      1.0  0.59255  0.04906  0.27958  1.0000
  C   C326      1.0  0.52387  0.08013  0.99376  1.0000
  C   C327      1.0  0.38108  0.00305  0.21598  1.0000
  H   H565      1.0  0.35809  0.28994  0.36332  1.0000
  C   C328      1.0  0.40391  0.01631  0.23927  1.0000
  C   C329      1.0  0.55093  0.10329  0.01442  1.0000
  H   H566      1.0  0.34169  0.33049  0.06493  1.0000
  H   H567      1.0  0.62214  0.43236  0.12356  1.0000
  H   H568      1.0  0.65509  0.48584  0.11040  1.0000
  H   H569      1.0  0.35991  0.31020  0.41409  1.0000
  H   H570      1.0  0.35183  0.11992  0.19540  1.0000
  H   H571      1.0  0.46338  0.03182  0.37932  1.0000
  C   C330      1.0  0.36537  0.35299  0.42854  1.0000
  H   H572      1.0  0.51431  0.05772  0.00541  1.0000
  H   H573      1.0  0.36381  0.32541  0.01285  1.0000
  H   H574      1.0  0.36749  0.48480  0.28360  1.0000
  H   H575      1.0  0.37414  0.02151  0.34009  1.0000
  H   H576      1.0  0.35158  0.24707  0.28875  1.0000
  H   H577      1.0  0.36283  0.49118  0.32573  1.0000
  H   H578      1.0  0.34552  0.37835  0.36361  1.0000
  H   H579      1.0  0.65887  0.01602  0.28665  1.0000
  H   H580      1.0  0.34220  0.34287  0.43847  1.0000
  H   H581      1.0  0.34418  0.33352  0.19106  1.0000
  C   C331      1.0  0.34879  0.26162  0.30672  1.0000
  H   H582      1.0  0.61827  0.10317  0.47559  1.0000
  H   H583      1.0  0.66055  0.05168  0.14758  1.0000
  C   C332      1.0  0.66356  0.04470  0.12313  1.0000
  H   H584      1.0  0.33900  0.27390  0.29420  1.0000
  C   C333      1.0  0.62724  0.00299  0.00910  1.0000
  H   H585      1.0  0.48554  0.00301  0.04363  1.0000
  H   H586      1.0  0.60878  0.02907  0.98906  1.0000
  S   S69       1.0  0.38781  0.45342  0.95238  1.0000
  Fe  Fe35      1.0  0.36789  0.48146  0.93662  1.0000
  H   H587      1.0  0.42394  0.41553  0.82089  1.0000
  Fe  Fe36      1.0  0.65351  0.10976  0.89544  1.0000
  S   S70       1.0  0.60631  0.09564  0.91294  1.0000
  S   S71       1.0  0.65408  0.06885  0.87689  1.0000
  Fe  Fe37      1.0  0.39248  0.33621  0.72706  1.0000
  S   S72       1.0  0.39110  0.30331  0.68973  1.0000
  C   C334      1.0  0.47881  0.06706  0.96166  1.0000
  Fe  Fe38      1.0  0.45923  0.38015  0.71730  1.0000
  S   S73       1.0  0.46298  0.35040  0.68015  1.0000
  S   S74       1.0  0.49433  0.42731  0.73315  1.0000
  Fe  Fe39      1.0  0.41974  0.34527  0.65976  1.0000
  S   S75       1.0  0.41828  0.35355  0.60531  1.0000
  Fe  Fe40      1.0  0.43414  0.31125  0.71362  1.0000
  S   S76       1.0  0.44852  0.27619  0.72595  1.0000
  S   S77       1.0  0.41760  0.37688  0.69566  1.0000
  S   S78       1.0  0.43385  0.34211  0.75208  1.0000
  Fe  Fe41      1.0  0.42222  0.09398  0.90168  1.0000
  S   S79       1.0  0.45378  0.08213  0.87682  1.0000
  S   S80       1.0  0.40945  0.08050  0.95485  1.0000
  Fe  Fe42      1.0  0.42626  0.13663  0.84519  1.0000
  S   S81       1.0  0.45821  0.12721  0.81727  1.0000
  S   S82       1.0  0.40795  0.16732  0.82756  1.0000
  Fe  Fe43      1.0  0.42827  0.07885  0.83155  1.0000
  S   S83       1.0  0.42361  0.04239  0.79720  1.0000
  Fe  Fe44      1.0  0.48125  0.13114  0.86458  1.0000
  S   S84       1.0  0.53222  0.15732  0.86662  1.0000
  S   S85       1.0  0.39413  0.08707  0.85687  1.0000
  S   S86       1.0  0.45160  0.14410  0.89200  1.0000
  C   C335      1.0  0.42049  0.19847  0.80018  1.0000
  C   C336      1.0  0.44736  0.20997  0.78268  1.0000
  C   C337      1.0  0.45571  0.23398  0.76060  1.0000
  C   C338      1.0  0.43755  0.24711  0.75573  1.0000
  C   C339      1.0  0.41074  0.23569  0.77336  1.0000
  C   C340      1.0  0.40232  0.21161  0.79535  1.0000
  H   H588      1.0  0.46168  0.20030  0.78602  1.0000
  H   H589      1.0  0.47642  0.24240  0.74707  1.0000
  H   H590      1.0  0.39613  0.24493  0.76944  1.0000
  H   H591      1.0  0.38139  0.20289  0.80852  1.0000
  C   C341      1.0  0.58611  0.11217  0.89709  1.0000
  C   C342      1.0  0.55468  0.09677  0.90049  1.0000
  C   C343      1.0  0.53790  0.11003  0.89012  1.0000
  C   C344      1.0  0.55248  0.13910  0.87714  1.0000
  C   C345      1.0  0.58387  0.15427  0.87314  1.0000
  C   C346      1.0  0.60065  0.14072  0.88276  1.0000
  H   H592      1.0  0.54337  0.07461  0.91138  1.0000
  H   H593      1.0  0.51381  0.09819  0.89297  1.0000
  H   H594      1.0  0.59532  0.17676  0.86293  1.0000
  H   H595      1.0  0.62490  0.15280  0.88011  1.0000
  C   C347      1.0  0.59441  0.47457  0.70572  1.0000
  C   C348      1.0  0.57618  0.44322  0.70113  1.0000
  C   C349      1.0  0.54543  0.42826  0.70962  1.0000
  C   C350      1.0  0.53280  0.44462  0.72274  1.0000
  C   C351      1.0  0.55113  0.47583  0.72767  1.0000
  H   H596      1.0  0.46190  0.01290  0.92577  1.0000
  H   H597      1.0  0.58585  0.43047  0.69103  1.0000
  H   H598      1.0  0.53156  0.40410  0.70620  1.0000
  C   C352      1.0  0.45780  0.03673  0.57217  1.0000
  H   H599      1.0  0.56454  0.08254  0.82753  1.0000
  H   H600      1.0  0.42922  0.15575  0.69892  1.0000
  H   H601      1.0  0.42289  0.15860  0.74038  1.0000
  C   C353      1.0  0.39802  0.03119  0.76494  1.0000
  C   C354      1.0  0.35215  0.02473  0.74058  1.0000
  C   C355      1.0  0.41554  0.14223  0.71991  1.0000
  H   H602      1.0  0.37105  0.08244  0.71090  1.0000
  C   C356      1.0  0.50557  0.06152  0.81080  1.0000
  H   H603      1.0  0.58650  0.46972  0.62729  1.0000
  C   C357      1.0  0.35156  0.36643  0.84255  1.0000
  C   C358      1.0  0.37724  0.29769  0.84650  1.0000
  H   H604      1.0  0.33893  0.24194  0.81521  1.0000
  C   C359      1.0  0.57718  0.48322  0.61659  1.0000
  H   H605      1.0  0.36835  0.10764  0.64482  1.0000
  S   S87       1.0  0.39383  0.41369  0.87936  1.0000
  N   N18       1.0  0.49985  0.08826  0.98718  1.0000
  C   C360      1.0  0.34575  0.46490  0.58955  1.0000
  H   H606      1.0  0.53353  0.07772  0.97056  1.0000
  H   H607      1.0  0.40386  0.11389  0.65988  1.0000
  C   C361      1.0  0.37152  0.39812  0.55120  1.0000
  C   C362      1.0  0.40424  0.37625  0.55174  1.0000
  C   C363      1.0  0.40035  0.37124  0.58530  1.0000
  C   C364      1.0  0.38224  0.38015  0.60174  1.0000
  H   H608      1.0  0.37322  0.18159  0.72484  1.0000
  H   H609      1.0  0.41796  0.36923  0.53870  1.0000
  H   H610      1.0  0.37882  0.37633  0.62746  1.0000
  H   H611      1.0  0.36292  0.43432  0.82553  1.0000
  H   H612      1.0  0.43645  0.45465  0.55111  1.0000
  C   C365      1.0  0.39217  0.37792  0.79195  1.0000
  H   H613      1.0  0.49717  0.17335  0.94556  1.0000
  H   H614      1.0  0.59299  0.05806  0.80616  1.0000
  H   H615      1.0  0.34143  0.08429  0.81510  1.0000
  H   H616      1.0  0.40802  0.38257  0.77254  1.0000
  H   H617      1.0  0.66010  0.02315  0.80287  1.0000
  H   H618      1.0  0.39500  0.22620  0.69075  1.0000
  C   C366      1.0  0.36786  0.39334  0.58478  1.0000
  H   H619      1.0  0.33620  0.36155  0.86250  1.0000
  H   H620      1.0  0.37820  0.06803  0.62536  1.0000
  C   C367      1.0  0.49460  0.13152  0.96072  1.0000
  C   C368      1.0  0.37082  0.06734  0.65071  1.0000
  H   H621      1.0  0.38286  0.30612  0.92808  1.0000
  H   H622      1.0  0.35647  0.08167  0.75927  1.0000
  H   H623      1.0  0.43247  0.02249  0.92713  1.0000
  C   C369      1.0  0.66254  0.01104  0.51347  1.0000
  H   H624      1.0  0.37076  0.01743  0.54945  1.0000
  H   H625      1.0  0.39897  0.35424  0.87484  1.0000
  H   H626      1.0  0.53450  0.01259  0.93322  1.0000
  C   C370      1.0  0.62732  0.02470  0.98852  1.0000
  H   H627      1.0  0.53079  0.17166  0.93763  1.0000
  H   H628      1.0  0.58225  0.11149  0.79698  1.0000
  C   C371      1.0  0.57330  0.08729  0.80249  1.0000
  H   H629      1.0  0.41513  0.10562  0.74889  1.0000
  H   H630      1.0  0.35364  0.44841  0.58896  1.0000
  C   C372      1.0  0.65458  0.02271  0.77766  1.0000
  S   S88       1.0  0.34674  0.45454  0.89155  1.0000
  C   C373      1.0  0.49809  0.04463  0.75470  1.0000
  C   C374      1.0  0.49695  0.03020  0.82510  1.0000
  H   H631      1.0  0.39850  0.47921  0.52927  1.0000
  H   H632      1.0  0.51264  0.11758  0.80682  1.0000
  C   C375      1.0  0.34270  0.34735  0.81532  1.0000
  C   C376      1.0  0.65121  0.04081  0.96706  1.0000
  C   C377      1.0  0.38081  0.39115  0.84449  1.0000
  H   H633      1.0  0.34605  0.05190  0.65188  1.0000
  C   C378      1.0  0.42639  0.11945  0.72738  1.0000
  H   H634      1.0  0.46229  0.41975  0.51891  1.0000
  H   H635      1.0  0.36371  0.30924  0.84539  1.0000
  H   H636      1.0  0.44554  0.46590  0.65027  1.0000
  H   H637      1.0  0.36968  0.45164  0.78610  1.0000
  H   H638      1.0  0.41751  0.03832  0.58559  1.0000
  H   H639      1.0  0.61733  0.03965  0.49448  1.0000
  H   H640      1.0  0.46208  0.07364  0.95433  1.0000
  C   C379      1.0  0.50711  0.04928  0.71843  1.0000
  C   C380      1.0  0.39012  0.38977  0.53480  1.0000
  C   C381      1.0  0.37908  0.09910  0.66184  1.0000
  H   H641      1.0  0.44231  0.48036  0.86103  1.0000
  H   H642      1.0  0.51255  0.02615  0.50841  1.0000
  H   H643      1.0  0.46729  0.11952  0.74077  1.0000
  C   C382      1.0  0.38878  0.18278  0.70552  1.0000
  H   H644      1.0  0.34694  0.25701  0.77479  1.0000
  H   H645      1.0  0.42196  0.10377  0.70688  1.0000
  C   C383      1.0  0.58174  0.49074  0.71914  1.0000
  H   H646      1.0  0.47552  0.04277  0.75684  1.0000
  N   N19       1.0  0.51991  0.44338  0.61595  1.0000
  C   C384      1.0  0.49192  0.43489  0.63550  1.0000
  C   C385      1.0  0.52841  0.41928  0.62004  1.0000
  C   C386      1.0  0.54515  0.47237  0.63013  1.0000
  C   C387      1.0  0.51637  0.44839  0.58063  1.0000
  C   C388      1.0  0.48444  0.42906  0.56560  1.0000
  C   C389      1.0  0.48350  0.46006  0.63850  1.0000
  C   C390      1.0  0.64079  0.02127  0.71178  1.0000
  C   C391      1.0  0.50619  0.38757  0.60643  1.0000
  C   C392      1.0  0.51624  0.36491  0.61503  1.0000
  C   C393      1.0  0.48554  0.43182  0.52883  1.0000
  H   H647      1.0  0.49459  0.42868  0.66057  1.0000
  H   H648      1.0  0.47212  0.41417  0.62593  1.0000
  H   H649      1.0  0.55013  0.42586  0.60788  1.0000
  H   H650      1.0  0.53198  0.41677  0.64607  1.0000
  H   H651      1.0  0.54632  0.47026  0.65680  1.0000
  C   C394      1.0  0.36375  0.10412  0.76976  1.0000
  H   H652      1.0  0.52280  0.47237  0.57620  1.0000
  H   H653      1.0  0.53244  0.44477  0.56585  1.0000
  H   H654      1.0  0.46905  0.43673  0.57469  1.0000
  H   H655      1.0  0.47391  0.40482  0.57156  1.0000
  H   H656      1.0  0.49852  0.47729  0.65642  1.0000
  H   H657      1.0  0.48611  0.47167  0.61516  1.0000
  C   C395      1.0  0.36189  0.49061  0.56431  1.0000
  H   H658      1.0  0.37573  0.14891  0.75712  1.0000
  H   H659      1.0  0.48323  0.37882  0.61614  1.0000
  H   H660      1.0  0.50551  0.38830  0.57970  1.0000
  H   H661      1.0  0.51809  0.36349  0.64162  1.0000
  H   H662      1.0  0.49937  0.34213  0.60593  1.0000
  H   H663      1.0  0.53838  0.37155  0.60385  1.0000
  H   H664      1.0  0.49641  0.45588  0.52143  1.0000
  C   C396      1.0  0.60012  0.08203  0.80119  1.0000
  H   H665      1.0  0.47302  0.02461  0.98271  1.0000
  H   H666      1.0  0.34299  0.08906  0.69545  1.0000
  H   H667      1.0  0.55103  0.03675  0.96765  1.0000
  H   H668      1.0  0.38211  0.05816  0.66604  1.0000
  H   H669      1.0  0.52755  0.04748  0.71444  1.0000
  H   H670      1.0  0.57692  0.48103  0.58994  1.0000
  C   C397      1.0  0.63472  0.03372  0.49191  1.0000
  H   H671      1.0  0.61119  0.08827  0.77715  1.0000
  C   C398      1.0  0.37851  0.15088  0.69145  1.0000
  H   H672      1.0  0.36801  0.35697  0.91945  1.0000
  N   N20       1.0  0.38229  0.12941  0.71338  1.0000
  C   C399      1.0  0.38886  0.20404  0.67963  1.0000
  H   H673      1.0  0.49468  0.02198  0.76080  1.0000
  H   H674      1.0  0.49824  0.42151  0.51838  1.0000
  C   C400      1.0  0.36791  0.09899  0.69675  1.0000
  N   N21       1.0  0.52008  0.06846  0.77783  1.0000
  H   H675      1.0  0.39476  0.06544  0.51828  1.0000
  C   C401      1.0  0.52559  0.09890  0.76620  1.0000
  C   C402      1.0  0.37404  0.01701  0.52371  1.0000
  H   H676      1.0  0.35419  0.48069  0.53977  1.0000
  H   H677      1.0  0.41184  0.19303  0.71561  1.0000
  H   H678      1.0  0.52021  0.07864  0.82887  1.0000
  C   C403      1.0  0.45122  0.44763  0.65022  1.0000
  C   C404      1.0  0.36537  0.12685  0.74418  1.0000
  C   C405      1.0  0.54253  0.15424  0.77636  1.0000
  H   H679      1.0  0.54930  0.01797  0.55887  1.0000
  H   H680      1.0  0.46237  0.02775  0.85754  1.0000
  H   H681      1.0  0.46132  0.02695  0.69900  1.0000
  C   C406      1.0  0.40669  0.48715  0.55433  1.0000
  H   H682      1.0  0.35628  0.33027  0.95201  1.0000
  H   H683      1.0  0.54385  0.10835  0.74776  1.0000
  H   H684      1.0  0.50514  0.09635  0.75378  1.0000
  H   H685      1.0  0.36621  0.19460  0.66849  1.0000
  S   S89       1.0  0.35214  0.32865  0.75648  1.0000
  H   H686      1.0  0.39567  0.35774  0.94708  1.0000
  H   H687      1.0  0.55990  0.07405  0.75348  1.0000
  H   H688      1.0  0.61702  0.09629  0.81971  1.0000
  C   C407      1.0  0.54886  0.06719  0.77752  1.0000
  H   H689      1.0  0.56351  0.16207  0.76216  1.0000
  H   H690      1.0  0.47312  0.48575  0.54059  1.0000
  S   S90       1.0  0.35197  0.41415  0.53121  1.0000
  C   C408      1.0  0.38758  0.04425  0.50589  1.0000
  H   H691      1.0  0.38602  0.11294  0.78155  1.0000
  C   C409      1.0  0.36301  0.35311  0.78997  1.0000
  H   H692      1.0  0.36847  0.47178  0.82133  1.0000
  H   H693      1.0  0.52442  0.15265  0.76040  1.0000
  H   H694      1.0  0.54696  0.17130  0.79543  1.0000
  H   H695      1.0  0.51167  0.07161  0.70956  1.0000
  H   H696      1.0  0.45906  0.04756  0.54859  1.0000
  H   H697      1.0  0.40571  0.20798  0.66062  1.0000
  H   H698      1.0  0.54064  0.49128  0.62643  1.0000
  C   C410      1.0  0.64008  0.01870  0.51698  1.0000
  H   H699      1.0  0.64185  0.00278  0.85802  1.0000
  S   S91       1.0  0.63279  0.49304  0.69428  1.0000
  C   C411      1.0  0.35494  0.00814  0.71514  1.0000
  C   C412      1.0  0.48197  0.02514  0.69744  1.0000
  N   N22       1.0  0.40748  0.31814  0.86223  1.0000
  C   C413      1.0  0.42961  0.33917  0.83742  1.0000
  H   H700      1.0  0.34672  0.12131  0.80776  1.0000
  C   C414      1.0  0.40335  0.33745  0.88713  1.0000
  C   C415      1.0  0.41903  0.29990  0.87922  1.0000
  C   C416      1.0  0.42494  0.27847  0.85787  1.0000
  C   C417      1.0  0.46073  0.36409  0.85012  1.0000
  C   C418      1.0  0.40089  0.01480  0.73940  1.0000
  C   C419      1.0  0.37740  0.28761  0.81113  1.0000
  Fe  Fe45      1.0  0.36358  0.42437  0.90950  1.0000
  C   C420      1.0  0.43995  0.26420  0.87718  1.0000
  C   C421      1.0  0.48129  0.38237  0.82220  1.0000
  C   C422      1.0  0.39238  0.04517  0.97570  1.0000
  H   H701      1.0  0.41952  0.35089  0.82426  1.0000
  H   H702      1.0  0.43416  0.32647  0.81875  1.0000
  H   H703      1.0  0.44200  0.47394  0.51301  1.0000
  H   H704      1.0  0.48464  0.12083  0.93713  1.0000
  H   H705      1.0  0.48074  0.04589  0.58226  1.0000
  H   H706      1.0  0.42432  0.35087  0.90143  1.0000
  H   H707      1.0  0.43993  0.31499  0.89293  1.0000
  H   H708      1.0  0.40261  0.28515  0.89777  1.0000
  H   H709      1.0  0.43988  0.29038  0.83718  1.0000
  H   H710      1.0  0.40326  0.25958  0.84882  1.0000
  H   H711      1.0  0.45831  0.38032  0.86589  1.0000
  H   H712      1.0  0.47224  0.35414  0.86372  1.0000
  H   H713      1.0  0.66690  0.43333  0.66970  1.0000
  C   C423      1.0  0.53298  0.12372  0.79202  1.0000
  H   H714      1.0  0.38403  0.30702  0.79479  1.0000
  H   H715      1.0  0.39344  0.27951  0.80719  1.0000
  C   C424      1.0  0.35847  0.44915  0.80975  1.0000
  C   C425      1.0  0.44468  0.01361  0.94135  1.0000
  H   H716      1.0  0.35447  0.14088  0.68400  1.0000
  H   H717      1.0  0.46239  0.28185  0.88613  1.0000
  H   H718      1.0  0.42564  0.25116  0.89793  1.0000
  H   H719      1.0  0.44315  0.24841  0.86138  1.0000
  H   H720      1.0  0.48568  0.36767  0.80598  1.0000
  H   H721      1.0  0.47093  0.39320  0.80793  1.0000
  H   H722      1.0  0.50321  0.40046  0.83179  1.0000
  H   H723      1.0  0.48478  0.06318  0.81007  1.0000
  H   H724      1.0  0.55116  0.12675  0.80855  1.0000
  H   H725      1.0  0.44132  0.03032  0.98775  1.0000
  C   C426      1.0  0.46039  0.13599  0.73321  1.0000
  H   H726      1.0  0.47269  0.14727  0.71075  1.0000
  H   H727      1.0  0.46685  0.15332  0.75248  1.0000
  H   H728      1.0  0.35568  0.30596  0.90053  1.0000
  C   C427      1.0  0.37434  0.34279  0.93400  1.0000
  H   H729      1.0  0.43505  0.42911  0.63422  1.0000
  H   H730      1.0  0.44899  0.43913  0.67527  1.0000
  C   C428      1.0  0.40112  0.39669  0.81928  1.0000
  H   H731      1.0  0.39151  0.15462  0.66873  1.0000
  C   C429      1.0  0.51538  0.11987  0.97334  1.0000
  H   H732      1.0  0.49789  0.04849  0.52472  1.0000
  H   H733      1.0  0.39313  0.39316  0.50901  1.0000
  H   H734      1.0  0.50307  0.02154  0.56652  1.0000
  C   C430      1.0  0.37381  0.03646  0.76537  1.0000
  H   H735      1.0  0.37121  0.04853  0.78544  1.0000
  H   H736      1.0  0.54385  0.04351  0.78075  1.0000
  C   C431      1.0  0.34103  0.09945  0.79623  1.0000
  H   H737      1.0  0.34184  0.12100  0.73828  1.0000
  H   H738      1.0  0.65000  0.01383  0.89866  1.0000
  H   H739      1.0  0.39698  0.46645  0.56928  1.0000
  H   H740      1.0  0.43860  0.03599  0.61945  1.0000
  H   H741      1.0  0.48924  0.02816  0.67179  1.0000
  H   H742      1.0  0.35338  0.39942  0.59777  1.0000
  H   H743      1.0  0.49173  0.06870  0.93941  1.0000
  C   C432      1.0  0.37780  0.32047  0.91228  1.0000
  H   H744      1.0  0.65485  0.11132  0.51871  1.0000
  Fe  Fe46      1.0  0.34455  0.42497  0.97903  1.0000
  C   C433      1.0  0.44045  0.04593  0.59515  1.0000
  C   C434      1.0  0.34619  0.26263  0.80059  1.0000
  C   C435      1.0  0.65193  0.04824  0.72996  1.0000
  H   H745      1.0  0.53058  0.12183  0.95312  1.0000
  H   H746      1.0  0.63566  0.02106  0.68642  1.0000
  H   H747      1.0  0.54160  0.48859  0.73811  1.0000
  H   H748      1.0  0.45246  0.07092  0.59758  1.0000
  C   C436      1.0  0.44852  0.47696  0.53892  1.0000
  C   C437      1.0  0.49328  0.03024  0.50732  1.0000
  H   H749      1.0  0.34941  0.47435  0.61437  1.0000
  H   H750      1.0  0.36386  0.27706  0.86139  1.0000
  H   H751      1.0  0.65085  0.05735  0.95114  1.0000
  C   C438      1.0  0.51234  0.16568  0.95530  1.0000
  C   C439      1.0  0.45957  0.03333  0.97104  1.0000
  H   H752      1.0  0.38078  0.01685  0.93354  1.0000
  H   H753      1.0  0.47606  0.12649  0.97789  1.0000
  C   C440      1.0  0.65896  0.04925  0.76298  1.0000
  C   C441      1.0  0.38031  0.01738  0.95963  1.0000
  H   H754      1.0  0.36535  0.01313  0.83715  1.0000
  H   H755      1.0  0.41931  0.01025  0.73920  1.0000
  H   H756      1.0  0.58072  0.03254  0.88663  1.0000
  C   C442      1.0  0.54239  0.01345  0.95833  1.0000
  H   H757      1.0  0.49947  0.04386  0.87545  1.0000
  C   C443      1.0  0.66345  0.11912  0.49394  1.0000
  C   C444      1.0  0.48324  0.02629  0.85871  1.0000
  H   H758      1.0  0.56109  0.00844  0.95794  1.0000
  H   H759      1.0  0.51704  0.02753  0.82718  1.0000
  H   H760      1.0  0.65529  0.06858  0.71824  1.0000
  H   H761      1.0  0.47971  0.01159  0.81006  1.0000
  C   C445      1.0  0.56729  0.01281  0.87057  1.0000
  H   H762      1.0  0.42135  0.49323  0.88451  1.0000
  H   H763      1.0  0.60509  0.01166  0.85041  1.0000
  H   H764      1.0  0.56307  0.02122  0.84764  1.0000
  H   H765      1.0  0.52204  0.17784  0.97835  1.0000
  C   C446      1.0  0.37968  0.00370  0.71431  1.0000
  S   S92       1.0  0.61821  0.01005  0.55216  1.0000
  H   H766      1.0  0.65839  0.41821  0.72744  1.0000
  H   H767      1.0  0.66244  0.39159  0.70241  1.0000
  C   C447      1.0  0.44051  0.50050  0.86749  1.0000
  H   H768      1.0  0.60152  0.00358  0.91287  1.0000
  H   H769      1.0  0.44894  0.50206  0.58036  1.0000
  H   H770      1.0  0.63700  0.14168  0.48998  1.0000
  H   H771      1.0  0.44435  0.00368  0.50636  1.0000
  C   C448      1.0  0.44101  0.49929  0.55498  1.0000
  H   H772      1.0  0.47734  0.00376  0.86837  1.0000
  H   H773      1.0  0.40559  0.50035  0.61412  1.0000
  S   S93       1.0  0.40157  0.54250  0.44731  1.0000
  H   H774      1.0  0.53499  0.83054  0.46427  1.0000
  S   S94       1.0  0.57283  0.69159  0.43506  1.0000
  C   C449      1.0  0.62308  0.71532  0.11050  1.0000
  C   C450      1.0  0.54037  0.60549  0.36349  1.0000
  S   S95       1.0  0.64472  0.73708  0.44726  1.0000
  H   H775      1.0  0.46195  0.99691  0.21891  1.0000
  H   H776      1.0  0.53450  0.65288  0.05306  1.0000
  C   C451      1.0  0.56916  0.87790  0.46067  1.0000
  Fe  Fe47      1.0  0.61615  0.69480  0.41743  1.0000
  S   S96       1.0  0.61961  0.68522  0.36366  1.0000
  H   H777      1.0  0.53559  0.55678  0.33520  1.0000
  S   S97       1.0  0.61571  0.66329  0.45494  1.0000
  Fe  Fe48      1.0  0.58886  0.88730  0.08717  1.0000
  S   S98       1.0  0.55935  0.89803  0.05665  1.0000
  S   S99       1.0  0.60159  0.85060  0.07709  1.0000
  Fe  Fe49      1.0  0.59531  0.93355  0.14042  1.0000
  S   S100      1.0  0.56594  0.94691  0.11350  1.0000
  S   S101      1.0  0.61481  0.95049  0.19129  1.0000
  Fe  Fe50      1.0  0.53608  0.89780  0.10266  1.0000
  S   S102      1.0  0.48554  0.87662  0.09836  1.0000
  Fe  Fe51      1.0  0.59104  0.94662  0.06920  1.0000
  H   H778      1.0  0.61208  0.60171  0.44460  1.0000
  S   S103      1.0  0.56312  0.88353  0.13290  1.0000
  S   S104      1.0  0.62314  0.93677  0.09653  1.0000
  S   S105      1.0  0.37388  0.97515  0.12369  1.0000
  Fe  Fe52      1.0  0.37623  0.93509  0.14197  1.0000
  S   S106      1.0  0.42277  0.94556  0.15802  1.0000
  C   C452      1.0  0.63254  0.93634  0.46152  1.0000
  S   S107      1.0  0.63962  0.58159  0.20769  1.0000
  H   H779      1.0  0.65170  0.99974  0.37537  1.0000
  H   H780      1.0  0.50035  0.95629  0.08704  1.0000
  H   H781      1.0  0.37595  0.96162  0.26755  1.0000
  H   H782      1.0  0.60075  0.63027  0.09138  1.0000
  H   H783      1.0  0.51447  0.66853  0.07374  1.0000
  H   H784      1.0  0.47294  0.54812  0.00915  1.0000
  H   H785      1.0  0.46524  0.75868  0.00337  1.0000
  H   H786      1.0  0.46063  0.96447  0.08917  1.0000
  H   H787      1.0  0.65443  0.97401  0.34779  1.0000
  C   C453      1.0  0.50650  0.66252  0.02183  1.0000
  H   H788      1.0  0.51449  0.54655  0.08691  1.0000
  C   C454      1.0  0.65142  0.79234  0.11385  1.0000
  C   C455      1.0  0.50618  0.70522  0.45939  1.0000
  C   C456      1.0  0.43912  0.92499  0.14241  1.0000
  C   C457      1.0  0.42414  0.90189  0.11970  1.0000
  C   C458      1.0  0.43849  0.88696  0.10664  1.0000
  C   C459      1.0  0.46787  0.89510  0.11608  1.0000
  C   C460      1.0  0.48270  0.91796  0.13907  1.0000
  C   C461      1.0  0.46832  0.93281  0.15220  1.0000
  H   H789      1.0  0.40159  0.89561  0.11209  1.0000
  H   H790      1.0  0.42681  0.86912  0.08905  1.0000
  H   H791      1.0  0.50515  0.92407  0.14688  1.0000
  H   H792      1.0  0.47988  0.95042  0.17001  1.0000
  C   C462      1.0  0.63689  0.66653  0.34410  1.0000
  C   C463      1.0  0.63439  0.66272  0.31030  1.0000
  C   C464      1.0  0.64769  0.64818  0.29364  1.0000
  H   H793      1.0  0.52515  0.98744  0.13648  1.0000
  H   H794      1.0  0.57854  0.58070  0.23035  1.0000
  H   H795      1.0  0.62216  0.67123  0.29686  1.0000
  C   C465      1.0  0.37402  0.91856  0.26312  1.0000
  H   H796      1.0  0.63715  0.81415  0.14892  1.0000
  C   C466      1.0  0.65153  0.99778  0.00862  1.0000
  H   H797      1.0  0.63847  0.71566  0.06170  1.0000
  H   H798      1.0  0.52533  0.85186  0.43722  1.0000
  C   C467      1.0  0.37688  0.98040  0.34342  1.0000
  H   H799      1.0  0.62787  0.77537  0.10753  1.0000
  Fe  Fe53      1.0  0.64071  0.70442  0.48614  1.0000
  C   C468      1.0  0.53472  0.56823  0.09361  1.0000
  C   C469      1.0  0.58255  0.82504  0.01526  1.0000
  C   C470      1.0  0.59348  0.82333  0.04570  1.0000
  C   C471      1.0  0.59949  0.79972  0.05133  1.0000
  C   C472      1.0  0.59532  0.77853  0.02696  1.0000
  C   C473      1.0  0.58290  0.58174  0.34526  1.0000
  H   H800      1.0  0.57772  0.84295  0.01041  1.0000
  H   H801      1.0  0.60737  0.79790  0.07486  1.0000
  H   H802      1.0  0.60002  0.76057  0.03180  1.0000
  C   C474      1.0  0.44033  0.56177  0.45665  1.0000
  C   C475      1.0  0.45830  0.59215  0.44762  1.0000
  H   H803      1.0  0.58284  0.67488  0.12678  1.0000
  C   C476      1.0  0.52608  0.62157  0.38204  1.0000
  C   C477      1.0  0.56214  0.94694  0.46281  1.0000
  C   C478      1.0  0.54984  0.56337  0.35729  1.0000
  H   H804      1.0  0.43708  0.99383  0.07067  1.0000
  C   C479      1.0  0.48353  0.54381  0.36723  1.0000
  H   H805      1.0  0.58594  0.51270  0.13526  1.0000
  H   H806      1.0  0.62100  0.73753  0.06748  1.0000
  H   H807      1.0  0.55285  0.66526  0.35853  1.0000
  C   C480      1.0  0.36562  0.99009  0.01134  1.0000
  C   C481      1.0  0.63762  0.73226  0.07850  1.0000
  C   C482      1.0  0.59039  0.56261  0.32285  1.0000
  H   H808      1.0  0.61362  0.55153  0.14180  1.0000
  H   H809      1.0  0.56374  0.90377  0.42238  1.0000
  H   H810      1.0  0.64557  0.64561  0.26768  1.0000
  H   H811      1.0  0.51698  0.64055  0.33929  1.0000
  H   H812      1.0  0.56401  0.53337  0.09032  1.0000
  H   H813      1.0  0.63830  0.92144  0.44722  1.0000
  H   H814      1.0  0.44854  0.60292  0.43359  1.0000
  H   H815      1.0  0.60093  0.51601  0.23018  1.0000
  H   H816      1.0  0.40039  0.91419  0.22467  1.0000
  C   C483      1.0  0.49651  0.89635  0.00755  1.0000
  H   H817      1.0  0.59922  0.58948  0.36552  1.0000
  H   H818      1.0  0.54408  0.55410  0.25029  1.0000
  H   H819      1.0  0.62253  0.93095  0.38300  1.0000
  C   C484      1.0  0.42738  0.96978  0.06362  1.0000
  C   C485      1.0  0.63789  0.98709  0.24506  1.0000
  C   C486      1.0  0.40055  0.93233  0.23964  1.0000
  H   H820      1.0  0.39881  0.94851  0.22319  1.0000
  C   C487      1.0  0.64621  0.64056  0.10044  1.0000
  H   H821      1.0  0.39823  0.98996  0.32962  1.0000
  H   H822      1.0  0.37700  0.90266  0.27867  1.0000
  H   H823      1.0  0.58652  0.60185  0.33148  1.0000
  C   C488      1.0  0.45321  0.54786  0.47433  1.0000
  H   H824      1.0  0.49935  0.72214  0.46521  1.0000
  H   H825      1.0  0.65496  0.65798  0.38701  1.0000
  H   H826      1.0  0.44662  0.53584  0.39941  1.0000
  H   H827      1.0  0.59364  0.56720  0.46753  1.0000
  H   H828      1.0  0.47342  0.92329  0.04558  1.0000
  C   C489      1.0  0.59753  0.53525  0.12389  1.0000
  H   H829      1.0  0.52977  0.95805  0.48298  1.0000
  H   H830      1.0  0.52478  0.52399  0.20067  1.0000
  H   H831      1.0  0.47985  0.88067  0.02542  1.0000
  N   N23       1.0  0.55217  0.54353  0.13712  1.0000
  C   C490      1.0  0.56525  0.55010  0.17082  1.0000
  C   C491      1.0  0.65279  0.65531  0.36106  1.0000
  C   C492      1.0  0.58259  0.90371  0.43555  1.0000
  C   C493      1.0  0.52687  0.66967  0.05131  1.0000
  C   C494      1.0  0.61605  0.53413  0.09558  1.0000
  H   H832      1.0  0.42230  0.94427  0.25286  1.0000
  C   C495      1.0  0.59135  0.68877  0.10457  1.0000
  C   C496      1.0  0.59023  0.94523  0.47333  1.0000
  C   C497      1.0  0.51217  0.92879  0.02033  1.0000
  H   H833      1.0  0.61236  0.65583  0.03847  1.0000
  H   H834      1.0  0.50223  0.56732  0.41278  1.0000
  H   H835      1.0  0.48583  0.98187  0.23061  1.0000
  Fe  Fe54      1.0  0.66681  0.61234  0.16716  1.0000
  C   C498      1.0  0.59012  0.58417  0.45463  1.0000
  H   H836      1.0  0.58684  0.87303  0.46896  1.0000
  H   H837      1.0  0.59028  0.56977  0.10546  1.0000
  H   H838      1.0  0.47473  0.93451  0.00502  1.0000
  C   C499      1.0  0.48336  0.56474  0.48443  1.0000
  C   C500      1.0  0.34704  0.91401  0.33296  1.0000
  H   H839      1.0  0.52949  0.71710  0.44967  1.0000
  H   H840      1.0  0.63640  0.70633  0.12187  1.0000
  C   C501      1.0  0.63983  0.97615  0.36617  1.0000
  H   H841      1.0  0.51900  0.59243  0.06404  1.0000
  H   H842      1.0  0.37064  0.92095  0.33982  1.0000
  H   H843      1.0  0.54701  0.69256  0.04916  1.0000
  H   H844      1.0  0.55300  0.57270  0.07628  1.0000
  C   C502      1.0  0.49636  0.68623  0.01792  1.0000
  C   C503      1.0  0.63356  0.95391  0.39370  1.0000
  H   H845      1.0  0.39483  0.95386  0.29813  1.0000
  H   H846      1.0  0.61393  0.57631  0.31412  1.0000
  C   C504      1.0  0.61353  0.95674  0.42009  1.0000
  H   H847      1.0  0.65345  0.78582  0.05158  1.0000
  C   C505      1.0  0.52879  0.64828  0.36284  1.0000
  H   H848      1.0  0.65284  0.74442  0.01506  1.0000
  Fe  Fe55      1.0  0.65810  0.55269  0.19039  1.0000
  H   H849      1.0  0.65221  0.95961  0.45888  1.0000
  H   H850      1.0  0.62600  0.98053  0.42910  1.0000
  H   H851      1.0  0.51846  0.65938  0.37671  1.0000
  Fe  Fe56      1.0  0.60141  0.73125  0.46842  1.0000
  H   H852      1.0  0.53610  0.97211  0.06871  1.0000
  C   C506      1.0  0.62638  0.98454  0.21361  1.0000
  H   H853      1.0  0.62923  0.55682  0.08436  1.0000
  C   C507      1.0  0.54406  0.84868  0.44580  1.0000
  H   H854      1.0  0.53750  0.63041  0.40551  1.0000
  C   C508      1.0  0.37357  0.94344  0.28395  1.0000
  C   C509      1.0  0.54367  0.54761  0.19845  1.0000
  C   C510      1.0  0.45141  0.96052  0.06433  1.0000
  H   H855      1.0  0.52572  0.56544  0.14435  1.0000
  H   H856      1.0  0.58538  0.57325  0.17163  1.0000
  C   C511      1.0  0.50898  0.55714  0.39300  1.0000
  C   C512      1.0  0.47652  0.97849  0.03920  1.0000
  H   H857      1.0  0.65401  0.00111  0.13996  1.0000
  H   H858      1.0  0.60112  0.51756  0.07714  1.0000
  H   H859      1.0  0.49090  0.68976  0.44040  1.0000
  S   S108      1.0  0.58749  0.76749  0.47671  1.0000
  H   H860      1.0  0.45234  0.70091  0.00968  1.0000
  H   H861      1.0  0.57521  0.55484  0.30155  1.0000
  H   H862      1.0  0.58199  0.59479  0.47239  1.0000
  H   H863      1.0  0.51741  0.70865  0.01935  1.0000
  H   H864      1.0  0.43968  0.52441  0.48111  1.0000
  C   C513      1.0  0.56013  0.55671  0.23087  1.0000
  C   C514      1.0  0.65164  0.80374  0.14804  1.0000
  H   H865      1.0  0.43530  0.51267  0.36369  1.0000
  H   H866      1.0  0.58828  0.54270  0.33587  1.0000
  H   H867      1.0  0.54671  0.61569  0.09365  1.0000
  H   H868      1.0  0.48697  0.63952  0.02560  1.0000
  H   H869      1.0  0.46490  0.97369  0.01545  1.0000
  C   C515      1.0  0.52560  0.99322  0.01505  1.0000
  H   H870      1.0  0.50082  0.74245  0.02346  1.0000
  H   H871      1.0  0.54605  0.54168  0.36763  1.0000
  S   S109      1.0  0.59050  0.68917  0.00298  1.0000
  C   C516      1.0  0.50113  0.59528  0.47598  1.0000
  H   H872      1.0  0.51339  0.88921  0.00338  1.0000
  C   C517      1.0  0.48879  0.60870  0.45672  1.0000
  H   H873      1.0  0.50178  0.60600  0.38659  1.0000
  N   N24       1.0  0.60441  0.93494  0.44810  1.0000
  H   H874      1.0  0.52923  0.94323  0.00223  1.0000
  H   H875      1.0  0.35596  0.99868  0.37529  1.0000
  H   H876      1.0  0.57375  0.53479  0.17768  1.0000
  H   H877      1.0  0.54634  0.99152  0.01675  1.0000
  H   H878      1.0  0.40934  0.95575  0.08111  1.0000
  H   H879      1.0  0.66466  0.96559  0.15158  1.0000
  H   H880      1.0  0.50891  0.53742  0.40425  1.0000
  S   S110      1.0  0.33846  0.92092  0.17763  1.0000
  C   C518      1.0  0.58539  0.78084  0.99623  1.0000
  H   H881      1.0  0.65569  0.95902  0.40372  1.0000
  H   H882      1.0  0.55942  0.88336  0.48172  1.0000
  H   H883      1.0  0.59368  0.89663  0.41725  1.0000
  C   C519      1.0  0.36792  0.98935  0.47434  1.0000
  H   H884      1.0  0.59118  0.67416  0.08463  1.0000
  H   H885      1.0  0.56395  0.62324  0.35787  1.0000
  H   H886      1.0  0.52901  0.59823  0.33959  1.0000
  H   H887      1.0  0.38344  0.99079  0.19594  1.0000
  S   S111      1.0  0.59575  0.98243  0.03403  1.0000
  N   N25       1.0  0.54009  0.57941  0.38075  1.0000
  C   C520      1.0  0.56125  0.59179  0.40924  1.0000
  H   H888      1.0  0.62067  0.73014  0.12834  1.0000
  H   H889      1.0  0.56416  0.59057  0.13426  1.0000
  C   C521      1.0  0.56707  0.56877  0.42760  1.0000
  C   C522      1.0  0.62348  0.64091  0.08213  1.0000
  H   H890      1.0  0.55239  0.60130  0.42750  1.0000
  H   H891      1.0  0.58337  0.61131  0.40187  1.0000
  H   H892      1.0  0.59330  0.95421  0.40737  1.0000
  H   H893      1.0  0.63199  0.52703  0.10440  1.0000
  C   C523      1.0  0.63006  0.65555  0.05221  1.0000
  S   S112      1.0  0.34594  0.90355  0.10346  1.0000
  H   H894      1.0  0.54602  0.55097  0.43890  1.0000
  H   H895      1.0  0.57596  0.55784  0.41135  1.0000
  H   H896      1.0  0.41695  0.96606  0.03929  1.0000
  H   H897      1.0  0.64266  0.78476  0.16553  1.0000
  C   C524      1.0  0.51593  0.97479  0.07072  1.0000
  H   H898      1.0  0.36057  0.86971  0.35395  1.0000
  S   S113      1.0  0.34802  0.95480  0.03230  1.0000
  H   H899      1.0  0.54398  0.92466  0.45410  1.0000
  H   H900      1.0  0.52401  0.92937  0.04295  1.0000
  C   C525      1.0  0.52675  0.59306  0.08916  1.0000
  H   H901      1.0  0.61853  0.97153  0.35429  1.0000
  H   H902      1.0  0.56791  0.96397  0.44351  1.0000
  C   C526      1.0  0.49500  0.74008  0.99735  1.0000
  H   H903      1.0  0.48181  0.56180  0.35428  1.0000
  H   H904      1.0  0.50824  0.58960  0.10569  1.0000
  H   H905      1.0  0.48279  0.68470  0.03963  1.0000
  C   C527      1.0  0.66627  0.64095  0.34437  1.0000
  H   H906      1.0  0.64890  0.78693  0.99218  1.0000
  H   H907      1.0  0.48762  0.53014  0.34926  1.0000
  C   C528      1.0  0.57534  0.54578  0.11288  1.0000
  C   C529      1.0  0.65962  0.67059  0.04071  1.0000
  C   C530      1.0  0.54449  0.56770  0.12901  1.0000
  H   H908      1.0  0.37782  0.96639  0.36326  1.0000
  H   H909      1.0  0.65153  0.98099  0.02443  1.0000
  C   C531      1.0  0.45291  0.52293  0.38269  1.0000
  H   H910      1.0  0.35324  0.90596  0.24850  1.0000
  H   H911      1.0  0.43988  0.93593  0.05919  1.0000
  H   H912      1.0  0.53430  0.56267  0.19449  1.0000
  H   H913      1.0  0.56983  0.54219  0.23668  1.0000
  H   H914      1.0  0.57591  0.69729  0.09838  1.0000
  C   C532      1.0  0.48893  0.93911  0.02694  1.0000
  S   S114      1.0  0.63722  0.62528  0.13950  1.0000
  Fe  Fe57      1.0  0.57419  0.66205  0.47401  1.0000
  C   C533      1.0  0.66395  0.63736  0.31054  1.0000
  H   H915      1.0  0.63815  0.96792  0.25566  1.0000
  N   N26       1.0  0.50174  0.97141  0.03796  1.0000
  H   H916      1.0  0.50255  0.63187  0.44911  1.0000
  H   H917      1.0  0.55283  0.84130  0.42529  1.0000
  H   H918      1.0  0.35998  0.96809  0.46184  1.0000
  C   C534      1.0  0.34933  0.96195  0.32086  1.0000
  H   H919      1.0  0.50541  0.51343  0.14942  1.0000
  C   C535      1.0  0.57864  0.80400  0.99074  1.0000
  C   C536      1.0  0.52361  0.51323  0.13495  1.0000
  C   C537      1.0  0.48545  0.00125  0.21907  1.0000
  H   H920      1.0  0.46463  0.99763  0.38523  1.0000
  H   H921      1.0  0.65910  0.81196  0.09735  1.0000
  Fe  Fe58      1.0  0.34170  0.94334  0.08661  1.0000
  N   N27       1.0  0.34682  0.93377  0.30590  1.0000
  S   S115      1.0  0.63128  0.50256  0.17935  1.0000
  H   H922      1.0  0.51491  0.50860  0.10979  1.0000
  H   H923      1.0  0.45324  0.50434  0.39615  1.0000
  H   H924      1.0  0.43825  0.64865  0.00891  1.0000
  C   C538      1.0  0.33632  0.86286  0.35396  1.0000
  H   H925      1.0  0.51913  0.66225  0.00022  1.0000
  H   H926      1.0  0.60721  0.96805  0.48215  1.0000
  H   H927      1.0  0.50420  0.78629  0.99601  1.0000
  H   H928      1.0  0.51072  0.67019  0.48204  1.0000
  H   H929      1.0  0.35097  0.97800  0.30184  1.0000
  S   S116      1.0  0.52309  0.60705  0.99695  1.0000
  H   H930      1.0  0.33669  0.91725  0.35522  1.0000
  H   H931      1.0  0.33530  0.87286  0.30391  1.0000
  C   C539      1.0  0.46935  0.70726  0.99006  1.0000
  C   C540      1.0  0.48563  0.76334  0.98944  1.0000
  H   H932      1.0  0.57918  0.75441  0.62075  1.0000
  H   H933      1.0  0.56285  0.55604  0.96285  1.0000
  S   S117      1.0  0.55851  0.67454  0.93162  1.0000
  H   H934      1.0  0.56556  0.90538  0.98228  1.0000
  C   C541      1.0  0.33750  0.92911  0.75825  1.0000
  S   S118      1.0  0.63131  0.71755  0.93687  1.0000
  H   H935      1.0  0.49092  0.95640  0.56331  1.0000
  H   H936      1.0  0.63427  0.79581  0.52735  1.0000
  H   H937      1.0  0.63301  0.94708  0.51305  1.0000
  Fe  Fe59      1.0  0.59917  0.67369  0.91172  1.0000
  S   S119      1.0  0.59706  0.66029  0.85831  1.0000
  H   H938      1.0  0.45833  0.63520  0.98565  1.0000
  S   S120      1.0  0.59928  0.64417  0.95163  1.0000
  Fe  Fe60      1.0  0.60377  0.90809  0.59349  1.0000
  S   S121      1.0  0.57601  0.92202  0.56403  1.0000
  S   S122      1.0  0.62037  0.87515  0.57901  1.0000
  Fe  Fe61      1.0  0.60743  0.94911  0.65160  1.0000
  S   S123      1.0  0.57940  0.96504  0.62608  1.0000
  S   S124      1.0  0.62388  0.96034  0.70428  1.0000
  Fe  Fe62      1.0  0.55027  0.91712  0.60973  1.0000
  S   S125      1.0  0.49937  0.89255  0.60549  1.0000
  Fe  Fe63      1.0  0.60713  0.96906  0.58233  1.0000
  H   H939      1.0  0.40541  0.60180  0.53584  1.0000
  S   S126      1.0  0.57591  0.90005  0.63842  1.0000
  S   S127      1.0  0.63746  0.95628  0.60864  1.0000
  S   S128      1.0  0.37198  0.97734  0.61856  1.0000
  Fe  Fe64      1.0  0.37750  0.93944  0.63776  1.0000
  S   S129      1.0  0.42575  0.95513  0.65243  1.0000
  C   C542      1.0  0.40600  0.51897  0.59977  1.0000
  S   S130      1.0  0.63748  0.57384  0.70025  1.0000
  C   C543      1.0  0.58121  0.76482  0.59670  1.0000
  C   C544      1.0  0.58029  0.81230  0.50596  1.0000
  H   H940      1.0  0.44890  0.94495  0.53409  1.0000
  S   S131      1.0  0.59931  0.70074  0.50858  1.0000
  N   N28       1.0  0.66615  0.90373  0.68322  1.0000
  H   H941      1.0  0.57072  0.80596  0.96718  1.0000
  C   C545      1.0  0.41502  0.58685  0.53184  1.0000
  C   C546      1.0  0.48034  0.71194  0.55304  1.0000
  H   H942      1.0  0.55535  0.75863  0.55404  1.0000
  H   H943      1.0  0.46998  0.69163  0.92063  1.0000
  H   H944      1.0  0.62532  0.97847  0.94209  1.0000
  H   H945      1.0  0.60206  0.92574  0.87666  1.0000
  H   H946      1.0  0.64107  0.97566  0.77082  1.0000
  C   C547      1.0  0.44551  0.93702  0.63945  1.0000
  C   C548      1.0  0.43117  0.90933  0.62311  1.0000
  C   C549      1.0  0.44794  0.89595  0.61272  1.0000
  C   C550      1.0  0.47907  0.91011  0.61863  1.0000
  C   C551      1.0  0.49332  0.93781  0.63494  1.0000
  C   C552      1.0  0.47659  0.95115  0.64537  1.0000
  H   H947      1.0  0.40719  0.89820  0.61855  1.0000
  H   H948      1.0  0.43672  0.87445  0.60022  1.0000
  H   H949      1.0  0.51718  0.94881  0.63984  1.0000
  H   H950      1.0  0.48783  0.97254  0.65804  1.0000
  C   C553      1.0  0.62080  0.65022  0.83640  1.0000
  C   C554      1.0  0.61389  0.64083  0.80395  1.0000
  C   C555      1.0  0.63220  0.63294  0.78557  1.0000
  H   H951      1.0  0.35235  0.50561  0.56832  1.0000
  S   S132      1.0  0.63561  0.59983  0.61472  1.0000
  H   H952      1.0  0.59438  0.63990  0.79284  1.0000
  H   H953      1.0  0.39993  0.52474  0.51678  1.0000
  H   H954      1.0  0.47644  0.00210  0.70503  1.0000
  H   H955      1.0  0.43628  0.56824  0.59694  1.0000
  Fe  Fe65      1.0  0.33947  0.94347  0.58330  1.0000
  C   C556      1.0  0.64731  0.63175  0.59011  1.0000
  N   N29       1.0  0.39597  0.50829  0.56559  1.0000
  C   C557      1.0  0.45382  0.70815  0.57340  1.0000
  C   C558      1.0  0.59719  0.79744  0.50536  1.0000
  C   C559      1.0  0.39062  0.90863  0.52983  1.0000
  C   C560      1.0  0.58687  0.83596  0.52818  1.0000
  C   C561      1.0  0.61070  0.84537  0.55014  1.0000
  C   C562      1.0  0.62763  0.83057  0.54947  1.0000
  C   C563      1.0  0.62092  0.80677  0.52741  1.0000
  H   H956      1.0  0.43788  0.59770  0.54271  1.0000
  H   H957      1.0  0.57347  0.84687  0.52833  1.0000
  H   H958      1.0  0.62978  0.88452  0.71812  1.0000
  S   S133      1.0  0.58123  0.75563  0.96396  1.0000
  C   C564      1.0  0.43120  0.55236  0.94770  1.0000
  C   C565      1.0  0.45196  0.58138  0.93648  1.0000
  C   C566      1.0  0.48043  0.59821  0.95106  1.0000
  C   C567      1.0  0.58257  0.93681  0.94221  1.0000
  H   H959      1.0  0.50964  0.96754  0.96930  1.0000
  N   N30       1.0  0.61041  0.96993  0.89225  1.0000
  H   H960      1.0  0.50572  0.60299  0.59691  1.0000
  H   H961      1.0  0.49643  0.62033  0.94204  1.0000
  Fe  Fe66      1.0  0.59069  0.71610  0.96030  1.0000
  H   H962      1.0  0.40578  0.95369  0.51270  1.0000
  H   H963      1.0  0.65795  0.88294  0.63579  1.0000
  H   H964      1.0  0.43555  0.99148  0.59235  1.0000
  H   H965      1.0  0.34617  0.94990  0.82502  1.0000
  C   C568      1.0  0.58563  0.92241  0.81188  1.0000
  H   H966      1.0  0.57143  0.93180  0.87068  1.0000
  C   C569      1.0  0.55773  0.54476  0.83710  1.0000
  C   C570      1.0  0.49037  0.68908  0.56331  1.0000
  H   H967      1.0  0.47243  0.51451  0.90586  1.0000
  H   H968      1.0  0.43158  0.54737  0.54103  1.0000
  H   H969      1.0  0.50412  0.55059  0.93712  1.0000
  H   H970      1.0  0.41682  0.58444  0.50542  1.0000
  H   H971      1.0  0.56727  0.81854  0.67819  1.0000
  H   H972      1.0  0.43624  0.94636  0.57367  1.0000
  H   H973      1.0  0.56964  0.97663  0.84773  1.0000
  C   C571      1.0  0.52867  0.55980  0.93535  1.0000
  H   H974      1.0  0.38746  0.60888  0.93951  1.0000
  H   H975      1.0  0.51576  0.74588  0.98359  1.0000
  H   H976      1.0  0.59308  0.92748  0.78631  1.0000
  H   H977      1.0  0.39225  0.94644  0.55373  1.0000
  H   H978      1.0  0.62624  0.94741  0.92427  1.0000
  H   H979      1.0  0.65704  0.96070  0.87496  1.0000
  H   H980      1.0  0.39191  0.55940  0.57306  1.0000
  H   H981      1.0  0.52691  0.72942  0.51586  1.0000
  H   H982      1.0  0.56685  0.97900  0.50046  1.0000
  C   C572      1.0  0.61277  0.85679  0.67551  1.0000
  H   H983      1.0  0.57831  0.56515  0.79081  1.0000
  C   C573      1.0  0.36503  0.92757  0.77157  1.0000
  H   H984      1.0  0.54150  0.57411  0.82268  1.0000
  C   C574      1.0  0.49703  0.53476  0.86105  1.0000
  C   C575      1.0  0.65782  0.63443  0.79939  1.0000
  H   H985      1.0  0.57068  0.59048  0.85205  1.0000
  H   H986      1.0  0.47293  0.70821  0.52745  1.0000
  H   H987      1.0  0.58536  0.78814  0.60031  1.0000
  C   C576      1.0  0.66602  0.98427  0.88344  1.0000
  H   H988      1.0  0.43023  0.55356  0.65523  1.0000
  C   C577      1.0  0.59109  0.98441  0.89528  1.0000
  H   H989      1.0  0.34636  0.94859  0.74138  1.0000
  H   H990      1.0  0.60087  0.76627  0.58376  1.0000
  N   N31       1.0  0.52643  0.56138  0.87221  1.0000
  H   H991      1.0  0.48878  0.60144  0.55822  1.0000
  H   H992      1.0  0.50424  0.98009  0.52815  1.0000
  H   H993      1.0  0.49092  0.58250  0.84035  1.0000
  Fe  Fe67      1.0  0.65779  0.54435  0.69323  1.0000
  H   H994      1.0  0.36694  0.90005  0.52217  1.0000
  H   H995      1.0  0.53684  0.71609  0.90503  1.0000
  C   C578      1.0  0.61278  0.95897  0.92540  1.0000
  S   S134      1.0  0.39542  0.53221  0.92940  1.0000
  H   H996      1.0  0.66725  0.87296  0.71854  1.0000
  H   H997      1.0  0.35758  0.90697  0.78632  1.0000
  H   H998      1.0  0.56180  0.91694  0.81315  1.0000
  S   S135      1.0  0.34678  0.90574  0.60099  1.0000
  H   H999      1.0  0.62669  0.62603  0.76063  1.0000
  H   H1000     1.0  0.45745  0.70772  0.96794  1.0000
  H   H1001     1.0  0.42305  0.51808  0.98270  1.0000
  H   H1002     1.0  0.44596  0.59075  0.91637  1.0000
  C   C579      1.0  0.39449  0.55597  0.54708  1.0000
  H   H1003     1.0  0.48065  0.67468  0.49780  1.0000
  C   C580      1.0  0.51633  0.99028  0.97899  1.0000
  H   H1004     1.0  0.58340  0.83502  0.71684  1.0000
  H   H1005     1.0  0.66501  0.55467  0.57556  1.0000
  H   H1006     1.0  0.54562  0.98110  0.56079  1.0000
  C   C581      1.0  0.46950  0.52471  0.88356  1.0000
  C   C582      1.0  0.52373  0.58904  0.87848  1.0000
  H   H1007     1.0  0.53385  0.74613  0.59109  1.0000
  H   H1008     1.0  0.44166  0.64385  0.93488  1.0000
  H   H1009     1.0  0.43440  0.68479  0.57110  1.0000
  H   H1010     1.0  0.54588  0.60808  0.88666  1.0000
  H   H1011     1.0  0.50809  0.58529  0.89866  1.0000
  C   C583      1.0  0.50902  0.61477  0.57353  1.0000
  H   H1012     1.0  0.52966  0.60874  0.82979  1.0000
  H   H1013     1.0  0.53998  0.58457  0.93947  1.0000
  C   C584      1.0  0.54591  0.71378  0.57144  1.0000
  H   H1014     1.0  0.46045  0.71312  0.59920  1.0000
  Fe  Fe68      1.0  0.66343  0.59742  0.65553  1.0000
  H   H1015     1.0  0.52666  0.52138  0.96037  1.0000
  H   H1016     1.0  0.47137  0.66639  0.55641  1.0000
  H   H1017     1.0  0.60415  0.96921  0.82360  1.0000
  C   C585      1.0  0.63862  0.65368  0.54217  1.0000
  N   N32       1.0  0.51975  0.69381  0.54960  1.0000
  H   H1018     1.0  0.49723  0.99433  0.97575  1.0000
  C   C586      1.0  0.59646  0.94329  0.86926  1.0000
  H   H1019     1.0  0.35759  0.96877  0.96460  1.0000
  H   H1020     1.0  0.66082  0.92342  0.53295  1.0000
  C   C587      1.0  0.48799  0.58636  0.97745  1.0000
  H   H1021     1.0  0.45003  0.53312  0.64781  1.0000
  C   C588      1.0  0.36710  0.99010  0.97734  1.0000
  H   H1022     1.0  0.65178  0.65832  0.87522  1.0000
  C   C589      1.0  0.58744  0.92048  0.97037  1.0000
  H   H1023     1.0  0.56696  0.71515  0.56207  1.0000
  C   C590      1.0  0.51238  0.70277  0.89940  1.0000
  H   H1024     1.0  0.43554  0.50952  0.84545  1.0000
  C   C591      1.0  0.63676  0.99484  0.72632  1.0000
  H   H1025     1.0  0.46903  0.57347  0.64249  1.0000
  H   H1026     1.0  0.42313  0.66215  0.95384  1.0000
  H   H1027     1.0  0.64615  0.83752  0.56619  1.0000
  C   C592      1.0  0.52620  0.70740  0.51624  1.0000
  H   H1028     1.0  0.62918  0.95507  0.82963  1.0000
  C   C593      1.0  0.64174  0.99386  0.88239  1.0000
  C   C594      1.0  0.53804  0.54635  0.96279  1.0000
  C   C595      1.0  0.38437  0.92658  0.74402  1.0000
  C   C596      1.0  0.46720  0.55744  0.98877  1.0000
  C   C597      1.0  0.43900  0.54032  0.97372  1.0000
  H   H1029     1.0  0.50088  0.72740  0.93252  1.0000
  H   H1030     1.0  0.57052  0.85401  0.68988  1.0000
  H   H1031     1.0  0.40769  0.59636  0.96449  1.0000
  H   H1032     1.0  0.38876  0.61456  0.98258  1.0000
  H   H1033     1.0  0.39044  0.89678  0.55235  1.0000
  C   C598      1.0  0.60560  0.94980  0.83306  1.0000
  H   H1034     1.0  0.46595  0.54371  0.89005  1.0000
  H   H1035     1.0  0.37112  0.90623  0.72869  1.0000
  H   H1036     1.0  0.60933  0.85966  0.64959  1.0000
  H   H1037     1.0  0.59700  0.90645  0.96177  1.0000
  H   H1038     1.0  0.50615  0.67918  0.89334  1.0000
  H   H1039     1.0  0.50800  0.71298  0.87796  1.0000
  C   C599      1.0  0.55239  0.74645  0.57701  1.0000
  H   H1040     1.0  0.57204  0.94948  0.95231  1.0000
  H   H1041     1.0  0.64633  0.57251  0.55642  1.0000
  C   C600      1.0  0.44713  0.55218  0.63964  1.0000
  H   H1042     1.0  0.58865  0.53872  0.80630  1.0000
  H   H1043     1.0  0.56654  0.91944  0.92515  1.0000
  H   H1044     1.0  0.37195  0.54648  0.53557  1.0000
  C   C601      1.0  0.51293  0.60054  0.84967  1.0000
  H   H1045     1.0  0.45517  0.54762  0.58977  1.0000
  C   C602      1.0  0.58387  0.55692  0.81311  1.0000
  C   C603      1.0  0.53813  0.55342  0.90199  1.0000
  H   H1046     1.0  0.53880  0.66607  0.53513  1.0000
  H   H1047     1.0  0.65002  0.54372  0.53531  1.0000
  H   H1048     1.0  0.44664  0.72416  0.56495  1.0000
  H   H1049     1.0  0.49102  0.53906  0.83662  1.0000
  H   H1050     1.0  0.49906  0.64772  0.53165  1.0000
  H   H1051     1.0  0.56468  0.53701  0.85869  1.0000
  H   H1052     1.0  0.53827  0.52489  0.82571  1.0000
  H   H1053     1.0  0.52888  0.61587  0.56143  1.0000
  C   C604      1.0  0.50902  0.62713  0.85969  1.0000
  H   H1054     1.0  0.54240  0.70397  0.59601  1.0000
  C   C605      1.0  0.58162  0.84016  0.69117  1.0000
  C   C606      1.0  0.36364  0.98925  0.50798  1.0000
  H   H1055     1.0  0.53528  0.65853  0.59432  1.0000
  H   H1056     1.0  0.53090  0.64640  0.86779  1.0000
  C   C607      1.0  0.51825  0.66354  0.54721  1.0000
  H   H1057     1.0  0.60455  0.57576  0.82413  1.0000
  C   C608      1.0  0.66580  0.68053  0.54727  1.0000
  C   C609      1.0  0.59883  0.51627  0.62522  1.0000
  H   H1058     1.0  0.49525  0.64477  0.59362  1.0000
  H   H1059     1.0  0.54916  0.71291  0.50854  1.0000
  H   H1060     1.0  0.38965  0.52402  0.61197  1.0000
  C   C610      1.0  0.62953  0.62934  0.56338  1.0000
  H   H1061     1.0  0.62464  0.65150  0.52171  1.0000
  H   H1062     1.0  0.49109  0.68883  0.59019  1.0000
  H   H1063     1.0  0.59147  0.53121  0.61403  1.0000
  H   H1064     1.0  0.39305  0.94711  0.72873  1.0000
  H   H1065     1.0  0.50104  0.63470  0.83874  1.0000
  H   H1066     1.0  0.60865  0.60850  0.55898  1.0000
  H   H1067     1.0  0.62339  0.90270  0.68514  1.0000
  H   H1068     1.0  0.48485  0.89459  0.98439  1.0000
  C   C611      1.0  0.58430  0.99600  0.86366  1.0000
  C   C612      1.0  0.64375  0.99580  0.75938  1.0000
  H   H1069     1.0  0.49223  0.62050  0.87940  1.0000
  C   C613      1.0  0.40599  0.94269  0.53567  1.0000
  C   C614      1.0  0.54943  0.56930  0.84565  1.0000
  C   C615      1.0  0.34297  0.99686  0.84740  1.0000
  H   H1070     1.0  0.49862  0.73571  0.55523  1.0000
  C   C616      1.0  0.51449  0.64665  0.57950  1.0000
  H   H1071     1.0  0.58717  0.90245  0.81959  1.0000
  H   H1072     1.0  0.56328  0.56648  0.90252  1.0000
  H   H1073     1.0  0.49944  0.51447  0.85793  1.0000
  C   C617      1.0  0.43839  0.95541  0.54883  1.0000
  S   S136      1.0  0.53802  0.61595  0.49140  1.0000
  H   H1074     1.0  0.52336  0.70420  0.96509  1.0000
  C   C618      1.0  0.40666  0.53392  0.54175  1.0000
  H   H1075     1.0  0.40241  0.90347  0.51053  1.0000
  C   C619      1.0  0.43728  0.54793  0.60429  1.0000
  C   C620      1.0  0.64611  0.65123  0.85035  1.0000
  C   C621      1.0  0.45170  0.65280  0.98639  1.0000
  H   H1076     1.0  0.62298  0.84221  0.67739  1.0000
  C   C622      1.0  0.49390  0.70338  0.92802  1.0000
  C   C623      1.0  0.66450  0.64353  0.83192  1.0000
  H   H1077     1.0  0.53181  0.52917  0.90131  1.0000
  H   H1078     1.0  0.56857  0.96817  0.90521  1.0000
  C   C624      1.0  0.43035  0.64525  0.95713  1.0000
  H   H1079     1.0  0.49785  0.66748  0.95128  1.0000
  H   H1080     1.0  0.46299  0.98331  0.49795  1.0000
  N   N33       1.0  0.47920  0.68404  0.98739  1.0000
  Fe  Fe69      1.0  0.56118  0.64801  0.97296  1.0000
  H   H1081     1.0  0.38207  0.99098  0.69477  1.0000
  C   C625      1.0  0.49930  0.68912  0.95857  1.0000
  H   H1082     1.0  0.48103  0.76305  0.96320  1.0000
  H   H1083     1.0  0.40395  0.92563  0.75400  1.0000
  C   C626      1.0  0.48671  0.99696  0.56691  1.0000
  H   H1084     1.0  0.42823  0.99022  0.94906  1.0000
  C   C627      1.0  0.40189  0.61441  0.96132  1.0000
  H   H1085     1.0  0.59556  0.51471  0.72338  1.0000
  C   C628      1.0  0.46334  0.00062  0.51464  1.0000
  H   H1086     1.0  0.54523  0.99747  0.88200  1.0000
  C   C629      1.0  0.44150  0.00199  0.56791  1.0000
  H   H1087     1.0  0.58352  0.93062  0.49491  1.0000
  H   H1088     1.0  0.34606  0.98430  0.86746  1.0000
  C   C630      1.0  0.50316  0.98024  0.55489  1.0000
  H   H1089     1.0  0.61256  0.90746  0.50511  1.0000
  Fe  Fe70      1.0  0.62853  0.68753  0.97815  1.0000
  H   H1090     1.0  0.66708  0.50977  0.60722  1.0000
  C   C631      1.0  0.63300  0.88809  0.69160  1.0000
  H   H1091     1.0  0.60012  0.51955  0.65181  1.0000
  C   C632      1.0  0.53520  0.99466  0.56827  1.0000
  N   N34       1.0  0.45805  0.98943  0.54912  1.0000
  H   H1092     1.0  0.48177  0.99141  0.59304  1.0000
  H   H1093     1.0  0.41975  0.99603  0.55602  1.0000
  H   H1094     1.0  0.54229  0.93976  0.51099  1.0000
  H   H1095     1.0  0.37985  0.94759  0.78661  1.0000
  C   C633      1.0  0.33673  0.95766  0.80550  1.0000
  H   H1096     1.0  0.53497  0.99529  0.59508  1.0000
  S   S137      1.0  0.34416  0.95387  0.52876  1.0000
  H   H1097     1.0  0.45381  0.52103  0.54208  1.0000
  S   S138      1.0  0.34066  0.92488  0.67450  1.0000
  C   C634      1.0  0.54956  0.95650  0.49109  1.0000
  C   C635      1.0  0.66051  0.92699  0.50657  1.0000
  H   H1098     1.0  0.49296  0.55415  0.49900  1.0000
  H   H1099     1.0  0.35662  0.97547  0.79227  1.0000
  H   H1100     1.0  0.60285  0.93696  0.98858  1.0000
  H   H1101     1.0  0.62167  0.52303  0.61612  1.0000
  C   C636      1.0  0.66139  0.56307  0.55230  1.0000
  C   C637      1.0  0.63260  0.92893  0.49792  1.0000
  H   H1102     1.0  0.65558  0.91636  0.63754  1.0000
  H   H1103     1.0  0.53137  0.55182  0.98626  1.0000
  H   H1104     1.0  0.65204  0.93205  0.73839  1.0000
  H   H1105     1.0  0.66702  0.99978  0.53293  1.0000
  H   H1106     1.0  0.66013  0.90765  0.49385  1.0000
  C   C638      1.0  0.50434  0.68706  0.48938  1.0000
  H   H1107     1.0  0.56186  0.80534  0.48914  1.0000
  H   H1108     1.0  0.70010  0.15870  0.47093  1.0000
  H   H1109     1.0  0.93240  0.45697  0.15282  1.0000
  S   S139      1.0  0.72022  0.10213  0.35230  1.0000
  C   C639      1.0  0.70265  0.03744  0.17445  1.0000
  H   H1110     1.0  0.99176  0.45242  0.09023  1.0000
  H   H1111     1.0  0.89445  0.42449  0.42107  1.0000
  H   H1112     1.0  0.93228  0.47704  0.47625  1.0000
  Fe  Fe71      1.0  0.71373  0.13931  0.37351  1.0000
  S   S140      1.0  0.75013  0.18886  0.38499  1.0000
  H   H1113     1.0  0.69877  0.48591  0.06802  1.0000
  H   H1114     1.0  0.73761  0.02789  0.19256  1.0000
  S   S141      1.0  0.93577  0.31938  0.03591  1.0000
  H   H1115     1.0  0.75091  0.06718  0.18446  1.0000
  Fe  Fe72      1.0  0.94172  0.39366  0.00522  1.0000
  S   S142      1.0  0.90866  0.36445  0.04321  1.0000
  C   C640      1.0  0.67396  0.03327  0.45967  1.0000
  Fe  Fe73      1.0  0.94771  0.36146  0.06466  1.0000
  S   S143      1.0  0.95757  0.36819  0.11920  1.0000
  Fe  Fe74      1.0  0.89953  0.32474  0.01094  1.0000
  H   H1116     1.0  0.74970  0.06056  0.13053  1.0000
  S   S144      1.0  0.98101  0.39312  0.02847  1.0000
  H   H1117     1.0  0.91173  0.42507  0.04205  1.0000
  C   C641      1.0  0.77968  0.20763  0.41424  1.0000
  C   C642      1.0  0.79141  0.19256  0.43190  1.0000
  H   H1118     1.0  0.72953  0.03331  0.07747  1.0000
  H   H1119     1.0  0.82491  0.20796  0.00891  1.0000
  C   C643      1.0  0.81632  0.25505  0.44135  1.0000
  C   C644      1.0  0.79259  0.23906  0.41900  1.0000
  H   H1120     1.0  0.78234  0.16861  0.42806  1.0000
  H   H1121     1.0  0.78759  0.15521  0.01220  1.0000
  H   H1122     1.0  0.82564  0.27910  0.44475  1.0000
  H   H1123     1.0  0.78400  0.25113  0.40535  1.0000
  H   H1124     1.0  0.98896  0.46077  0.46438  1.0000
  C   C645      1.0  0.90725  0.46440  0.04999  1.0000
  C   C646      1.0  0.91803  0.44749  0.03378  1.0000
  C   C647      1.0  0.93650  0.45946  0.00666  1.0000
  H   H1125     1.0  0.75320  0.10153  0.44666  1.0000
  H   H1126     1.0  0.75210  0.10151  0.07557  1.0000
  H   H1127     1.0  0.98462  0.34634  0.45452  1.0000
  C   C648      1.0  0.99148  0.37902  0.17455  1.0000
  Fe  Fe75      1.0  0.96694  0.35167  0.99836  1.0000
  H   H1128     1.0  0.72657  0.07683  0.12806  1.0000
  C   C649      1.0  0.94222  0.49695  0.12467  1.0000
  H   H1129     1.0  0.97110  0.37448  0.18702  1.0000
  H   H1130     1.0  0.75288  0.07844  0.04300  1.0000
  H   H1131     1.0  0.94379  0.43167  0.43889  1.0000
  C   C650      1.0  0.99125  0.37705  0.14060  1.0000
  C   C651      1.0  0.73168  0.04593  0.19382  1.0000
  H   H1132     1.0  0.77782  0.10012  0.47679  1.0000
  N   N35       1.0  0.97619  0.49431  0.45362  1.0000
  C   C652      1.0  0.72721  0.05593  0.12200  1.0000
  N   N36       1.0  0.70262  0.02902  0.13952  1.0000
  C   C653      1.0  0.72770  0.05100  0.22945  1.0000
  H   H1133     1.0  0.70978  0.02978  0.24049  1.0000
  H   H1134     1.0  0.93392  0.43152  0.48013  1.0000
  C   C654      1.0  0.82786  0.23991  0.45921  1.0000
  H   H1135     1.0  0.72156  0.06887  0.23228  1.0000
  H   H1136     1.0  0.93164  0.47699  0.43362  1.0000
  C   C655      1.0  0.67204  0.01955  0.12534  1.0000
  H   H1137     1.0  0.96431  0.47007  0.12585  1.0000
  C   C656      1.0  0.99398  0.48343  0.47261  1.0000
  C   C657      1.0  0.94421  0.48854  0.99606  1.0000
  H   H1138     1.0  0.83874  0.18445  0.02352  1.0000
  C   C658      1.0  0.87288  0.22750  0.00586  1.0000
  H   H1139     1.0  0.74904  0.05821  0.24274  1.0000
  S   S145      1.0  0.68322  0.11052  0.41324  1.0000
  H   H1140     1.0  0.70611  0.09939  0.00295  1.0000
  H   H1141     1.0  0.73761  0.07744  0.48164  1.0000
  H   H1142     1.0  0.89257  0.45476  0.07062  1.0000
  C   C659      1.0  0.94255  0.47273  0.45458  1.0000
  H   H1143     1.0  0.87593  0.23926  0.02935  1.0000
  C   C660      1.0  0.75612  0.09952  0.47296  1.0000
  H   H1144     1.0  0.91864  0.49208  0.12629  1.0000
  C   C661      1.0  0.75360  0.08111  0.06965  1.0000
  H   H1145     1.0  0.99858  0.45041  0.14844  1.0000
  C   C662      1.0  0.93133  0.43837  0.45547  1.0000
  C   C663      1.0  0.72755  0.12119  0.00572  1.0000
  C   C664      1.0  0.94144  0.46687  0.12874  1.0000
  C   C665      1.0  0.81526  0.20858  0.45413  1.0000
  C   C666      1.0  0.72719  0.12690  0.48457  1.0000
  H   H1146     1.0  0.75380  0.18613  0.48386  1.0000
  H   H1147     1.0  0.71247  0.48552  0.15473  1.0000
  H   H1148     1.0  0.77629  0.14664  0.48352  1.0000
  H   H1149     1.0  0.83006  0.09730  0.03958  1.0000
  S   S146      1.0  0.85110  0.28414  0.00401  1.0000
  H   H1150     1.0  0.69921  0.05719  0.17652  1.0000
  H   H1151     1.0  0.80068  0.07801  0.01002  1.0000
  C   C667      1.0  0.69518  0.48283  0.09442  1.0000
  H   H1152     1.0  0.70627  0.05019  0.07379  1.0000
  S   S147      1.0  0.67422  0.12793  0.34008  1.0000
  Fe  Fe76      1.0  0.67810  0.08805  0.32237  1.0000
  H   H1153     1.0  0.68092  0.06502  0.11041  1.0000
  C   C668      1.0  0.98557  0.47347  0.39989  1.0000
  Fe  Fe77      1.0  0.68766  0.07306  0.39104  1.0000
  H   H1154     1.0  0.88443  0.42626  0.46264  1.0000
  S   S148      1.0  0.69503  0.04207  0.42379  1.0000
  H   H1155     1.0  0.75411  0.10192  0.99004  1.0000
  S   S149      1.0  0.89646  0.35004  0.47968  1.0000
  N   N37       1.0  0.90700  0.29100  0.38683  1.0000
  C   C669      1.0  0.87884  0.26080  0.38153  1.0000
  C   C670      1.0  0.91979  0.29087  0.41959  1.0000
  C   C671      1.0  0.89793  0.31493  0.38773  1.0000
  C   C672      1.0  0.93040  0.29903  0.36065  1.0000
  C   C673      1.0  0.93189  0.27260  0.34396  1.0000
  C   C674      1.0  0.85912  0.25898  0.35229  1.0000
  C   C675      1.0  0.92350  0.34755  0.39574  1.0000
  C   C676      1.0  0.93022  0.26760  0.42485  1.0000
  H   H1156     1.0  0.92671  0.45054  0.11005  1.0000
  C   C677      1.0  0.96029  0.28441  0.32330  1.0000
  C   C678      1.0  0.83659  0.22623  0.34329  1.0000
  C   C679      1.0  0.91372  0.37072  0.38909  1.0000
  H   H1157     1.0  0.86408  0.25449  0.40323  1.0000
  H   H1158     1.0  0.88413  0.24240  0.37904  1.0000
  H   H1159     1.0  0.93988  0.31306  0.42479  1.0000
  H   H1160     1.0  0.90312  0.28746  0.43874  1.0000
  H   H1161     1.0  0.87948  0.30876  0.40565  1.0000
  H   H1162     1.0  0.88864  0.31630  0.36395  1.0000
  H   H1163     1.0  0.92695  0.31159  0.34072  1.0000
  H   H1164     1.0  0.95328  0.31511  0.37031  1.0000
  H   H1165     1.0  0.91217  0.25993  0.32781  1.0000
  H   H1166     1.0  0.93188  0.25630  0.36141  1.0000
  H   H1167     1.0  0.84591  0.27012  0.35853  1.0000
  H   H1168     1.0  0.87312  0.27046  0.33082  1.0000
  H   H1169     1.0  0.94409  0.35402  0.38136  1.0000
  H   H1170     1.0  0.92946  0.34943  0.42167  1.0000
  H   H1171     1.0  0.91209  0.24425  0.41938  1.0000
  H   H1172     1.0  0.95022  0.27348  0.40964  1.0000
  C   C680      1.0  0.89792  0.42021  0.44653  1.0000
  C   C681      1.0  0.72728  0.05299  0.08465  1.0000
  S   S150      1.0  0.98041  0.40095  0.45662  1.0000
  H   H1173     1.0  0.98082  0.29624  0.33860  1.0000
  H   H1174     1.0  0.96054  0.26525  0.31092  1.0000
  H   H1175     1.0  0.96098  0.30033  0.30467  1.0000
  H   H1176     1.0  0.82168  0.22569  0.32356  1.0000
  H   H1177     1.0  0.84851  0.21439  0.33488  1.0000
  H   H1178     1.0  0.82223  0.21400  0.36433  1.0000
  H   H1179     1.0  0.89327  0.36536  0.40329  1.0000
  H   H1180     1.0  0.93213  0.39353  0.39621  1.0000
  H   H1181     1.0  0.90899  0.37109  0.36299  1.0000
  H   H1182     1.0  0.88948  0.39575  0.44928  1.0000
  H   H1183     1.0  0.70141  0.46537  0.10016  1.0000
  C   C682      1.0  0.91525  0.49358  0.03965  1.0000
  C   C683      1.0  0.82333  0.09804  0.01427  1.0000
  H   H1184     1.0  0.95883  0.29062  0.46634  1.0000
  C   C684      1.0  0.99645  0.36020  0.43396  1.0000
  H   H1185     1.0  0.77543  0.08429  0.07854  1.0000
  H   H1186     1.0  0.68324  0.01893  0.18741  1.0000
  C   C685      1.0  0.98772  0.50045  0.41928  1.0000
  H   H1187     1.0  0.72996  0.13642  0.45982  1.0000
  C   C686      1.0  0.93974  0.26799  0.45988  1.0000
  H   H1188     1.0  0.73481  0.12374  0.03132  1.0000
  H   H1189     1.0  0.78898  0.23664  0.00210  1.0000
  H   H1190     1.0  0.94706  0.25109  0.46310  1.0000
  H   H1191     1.0  0.69703  0.01267  0.48220  1.0000
  H   H1192     1.0  0.99300  0.49513  0.35272  1.0000
  C   C687      1.0  0.99818  0.38815  0.42985  1.0000
  H   H1193     1.0  0.80631  0.12733  0.02619  1.0000
  H   H1194     1.0  0.92056  0.26216  0.47649  1.0000
  H   H1195     1.0  0.84554  0.14626  0.01428  1.0000
  H   H1196     1.0  0.82414  0.19659  0.46742  1.0000
  S   S151      1.0  0.85828  0.25883  0.48747  1.0000
  H   H1197     1.0  0.96167  0.45717  0.39404  1.0000
  H   H1198     1.0  0.83988  0.09691  0.99786  1.0000
  H   H1199     1.0  0.68553  0.49771  0.15378  1.0000
  H   H1200     1.0  0.99059  0.45339  0.25480  1.0000
  C   C688      1.0  0.84111  0.20004  0.00391  1.0000
  C   C689      1.0  0.67952  0.01840  0.48484  1.0000
  H   H1201     1.0  0.73253  0.01050  0.14144  1.0000
  H   H1202     1.0  0.99538  0.46168  0.41312  1.0000
  H   H1203     1.0  0.89006  0.22047  0.00390  1.0000
  H   H1204     1.0  0.72330  0.13981  0.99930  1.0000
  C   C690      1.0  0.82264  0.12722  0.00880  1.0000
  H   H1205     1.0  0.70796  0.10345  0.48263  1.0000
  S   S152      1.0  0.66903  0.07597  0.26829  1.0000
  H   H1206     1.0  0.66969  0.00946  0.10089  1.0000
  H   H1207     1.0  0.00038  0.46420  0.35431  1.0000
  C   C691      1.0  0.70853  0.00303  0.13619  1.0000
  H   H1208     1.0  0.72252  0.50227  0.21298  1.0000
  H   H1209     1.0  0.99622  0.35681  0.77832  1.0000
  H   H1210     1.0  0.92550  0.43325  0.56533  1.0000
  S   S153      1.0  0.72657  0.11234  0.86611  1.0000
  H   H1211     1.0  0.70755  0.09780  0.59642  1.0000
  C   C692      1.0  0.74619  0.49189  0.66088  1.0000
  C   C693      1.0  0.84652  0.30982  0.85417  1.0000
  S   S154      1.0  0.95012  0.43871  0.98530  1.0000
  Fe  Fe78      1.0  0.72217  0.15103  0.88656  1.0000
  S   S155      1.0  0.76654  0.19710  0.88962  1.0000
  H   H1212     1.0  0.73783  0.19207  0.55465  1.0000
  H   H1213     1.0  0.89446  0.31042  0.82373  1.0000
  S   S156      1.0  0.93769  0.32576  0.51409  1.0000
  C   C694      1.0  0.99646  0.42676  0.71639  1.0000
  Fe  Fe79      1.0  0.89460  0.36872  0.52830  1.0000
  S   S157      1.0  0.88252  0.32529  0.55422  1.0000
  S   S158      1.0  0.87027  0.39546  0.52956  1.0000
  Fe  Fe80      1.0  0.93292  0.34580  0.56089  1.0000
  S   S159      1.0  0.95290  0.34050  0.60854  1.0000
  Fe  Fe81      1.0  0.88789  0.30807  0.50570  1.0000
  S   S160      1.0  0.69334  0.12428  0.92864  1.0000
  S   S161      1.0  0.94394  0.39006  0.53860  1.0000
  C   C695      1.0  0.71441  0.13247  0.54192  1.0000
  C   C696      1.0  0.78952  0.22108  0.92188  1.0000
  C   C697      1.0  0.77871  0.21894  0.95337  1.0000
  H   H1214     1.0  0.78689  0.16432  0.92579  1.0000
  C   C698      1.0  0.74590  0.20074  0.52997  1.0000
  C   C699      1.0  0.83875  0.26268  0.94009  1.0000
  C   C700      1.0  0.81969  0.24315  0.91549  1.0000
  H   H1215     1.0  0.75552  0.20247  0.95874  1.0000
  S   S162      1.0  0.67388  0.08439  0.78424  1.0000
  H   H1216     1.0  0.86179  0.27939  0.93483  1.0000
  H   H1217     1.0  0.82834  0.24507  0.89128  1.0000
  H   H1218     1.0  0.71351  0.08892  0.53799  1.0000
  C   C701      1.0  0.93282  0.47863  0.56288  1.0000
  C   C702      1.0  0.91724  0.44747  0.55607  1.0000
  C   C703      1.0  0.89070  0.43470  0.53791  1.0000
  C   C704      1.0  0.87988  0.45340  0.52669  1.0000
  C   C705      1.0  0.69878  0.49139  0.64654  1.0000
  H   H1219     1.0  0.69078  0.46947  0.63388  1.0000
  H   H1220     1.0  0.95771  0.24962  0.57045  1.0000
  N   N38       1.0  0.72028  0.49524  0.67346  1.0000
  H   H1221     1.0  0.67833  0.49069  0.65676  1.0000
  C   C706      1.0  0.75616  0.12540  0.49146  1.0000
  H   H1222     1.0  0.95153  0.37102  0.81350  1.0000
  H   H1223     1.0  0.76806  0.17599  0.51781  1.0000
  C   C707      1.0  0.98548  0.36546  0.63170  1.0000
  C   C708      1.0  0.82793  0.26060  0.97157  1.0000
  H   H1224     1.0  0.77718  0.17006  0.97975  1.0000
  Fe  Fe82      1.0  0.68405  0.09854  0.83762  1.0000
  H   H1225     1.0  0.80390  0.50120  0.64836  1.0000
  H   H1226     1.0  0.97822  0.36376  0.83288  1.0000
  H   H1227     1.0  0.73854  0.47573  0.64020  1.0000
  C   C709      1.0  0.97274  0.34711  0.76952  1.0000
  Fe  Fe83      1.0  0.94525  0.36885  0.49160  1.0000
  H   H1228     1.0  0.78507  0.23961  0.50872  1.0000
  H   H1229     1.0  0.67805  0.48735  0.58306  1.0000
  C   C710      1.0  0.69338  0.00509  0.86284  1.0000
  H   H1230     1.0  0.77452  0.24647  0.54795  1.0000
  H   H1231     1.0  0.99892  0.46774  0.70126  1.0000
  H   H1232     1.0  0.70217  0.43345  0.67021  1.0000
  H   H1233     1.0  0.83927  0.18342  0.90602  1.0000
  H   H1234     1.0  0.97381  0.33330  0.67028  1.0000
  H   H1235     1.0  0.96498  0.46812  0.51533  1.0000
  N   N39       1.0  0.80728  0.15411  0.96593  1.0000
  H   H1236     1.0  0.99954  0.49904  0.82049  1.0000
  H   H1237     1.0  0.95976  0.40523  0.85069  1.0000
  C   C711      1.0  0.79747  0.15040  0.93094  1.0000
  C   C712      1.0  0.69823  0.09742  0.54494  1.0000
  S   S163      1.0  0.93042  0.35450  0.97156  1.0000
  C   C713      1.0  0.81436  0.12949  0.97343  1.0000
  C   C714      1.0  0.99047  0.35531  0.66138  1.0000
  H   H1238     1.0  0.70093  0.14043  0.55550  1.0000
  H   H1239     1.0  0.68488  0.47430  0.70934  1.0000
  H   H1240     1.0  0.87656  0.24381  0.98628  1.0000
  C   C715      1.0  0.82257  0.15887  0.90524  1.0000
  H   H1241     1.0  0.67819  0.08578  0.52929  1.0000
  H   H1242     1.0  0.95019  0.43414  0.89225  1.0000
  H   H1243     1.0  0.69413  0.00966  0.98626  1.0000
  C   C716      1.0  0.77660  0.22959  0.53292  1.0000
  H   H1244     1.0  0.83939  0.29335  0.83391  1.0000
  S   S164      1.0  0.68170  0.13945  0.85455  1.0000
  Fe  Fe84      1.0  0.69582  0.08551  0.90669  1.0000
  H   H1245     1.0  0.92035  0.38725  0.86144  1.0000
  H   H1246     1.0  0.95446  0.31246  0.80545  1.0000
  H   H1247     1.0  0.92111  0.29201  0.85122  1.0000
  H   H1248     1.0  0.90064  0.34731  0.82888  1.0000
  H   H1249     1.0  0.77968  0.12665  0.92579  1.0000
  C   C717      1.0  0.70256  0.47067  0.69789  1.0000
  C   C718      1.0  0.80944  0.15169  0.87114  1.0000
  N   N40       1.0  0.72064  0.14542  0.50817  1.0000
  H   H1250     1.0  0.79343  0.12709  0.86835  1.0000
  S   S165      1.0  0.70435  0.05437  0.93783  1.0000
  H   H1251     1.0  0.95821  0.49786  0.97499  1.0000
  H   H1252     1.0  0.83463  0.14624  0.90898  1.0000
  H   H1253     1.0  0.79333  0.22485  0.54446  1.0000
  H   H1254     1.0  0.97408  0.42064  0.90789  1.0000
  H   H1255     1.0  0.97286  0.46454  0.84027  1.0000
  H   H1256     1.0  0.79758  0.16434  0.86578  1.0000
  H   H1257     1.0  0.92463  0.27052  0.93590  1.0000
  C   C719      1.0  0.68807  0.08727  0.57960  1.0000
  H   H1258     1.0  0.69322  0.41725  0.72791  1.0000
  C   C720      1.0  0.68657  0.43775  0.68484  1.0000
  H   H1259     1.0  0.69074  0.16387  0.51091  1.0000
  H   H1260     1.0  0.82785  0.15847  0.85326  1.0000
  H   H1261     1.0  0.87340  0.29413  0.87668  1.0000
  C   C721      1.0  0.67528  0.03536  0.96608  1.0000
  H   H1262     1.0  0.90663  0.25597  0.89740  1.0000
  H   H1263     1.0  0.95932  0.31696  0.86142  1.0000
  H   H1264     1.0  0.73580  0.14128  0.55581  1.0000
  C   C722      1.0  0.69461  0.14836  0.49550  1.0000
  H   H1265     1.0  0.85536  0.18486  0.96174  1.0000
  H   H1266     1.0  0.95321  0.48825  0.57717  1.0000
  H   H1267     1.0  0.85921  0.44364  0.51286  1.0000
  H   H1268     1.0  0.94721  0.27368  0.90117  1.0000
  H   H1269     1.0  0.75897  0.12262  0.51752  1.0000
  H   H1270     1.0  0.94921  0.32235  0.91634  1.0000
  H   H1271     1.0  0.83372  0.13237  0.95871  1.0000
  H   H1272     1.0  0.92755  0.32014  0.78624  1.0000
  H   H1273     1.0  0.98970  0.31333  0.58686  1.0000
  H   H1274     1.0  0.74248  0.11803  0.95853  1.0000
  H   H1275     1.0  0.93469  0.40233  0.91896  1.0000
  C   C723      1.0  0.95344  0.26409  0.55386  1.0000
  H   H1276     1.0  0.70278  0.02903  0.87042  1.0000
  H   H1277     1.0  0.90960  0.30461  0.91069  1.0000
  H   H1278     1.0  0.88212  0.33177  0.88861  1.0000
  H   H1279     1.0  0.73043  0.20741  0.51888  1.0000
  H   H1280     1.0  0.83296  0.20172  0.95402  1.0000
  C   C724      1.0  0.95105  0.41363  0.89902  1.0000
  H   H1281     1.0  0.99965  0.46351  0.55193  1.0000
  C   C725      1.0  0.67449  0.41490  0.71244  1.0000
  H   H1282     1.0  0.98843  0.48914  0.89360  1.0000
  C   C726      1.0  0.74807  0.17680  0.50881  1.0000
  H   H1283     1.0  0.75377  0.48145  0.67947  1.0000
  H   H1284     1.0  0.97295  0.41650  0.72531  1.0000
  H   H1285     1.0  0.93931  0.24993  0.53347  1.0000
  H   H1286     1.0  0.99580  0.41901  0.69117  1.0000
  H   H1287     1.0  0.96674  0.37031  0.88672  1.0000
  C   C727      1.0  0.92220  0.49738  0.55142  1.0000
  H   H1288     1.0  0.96960  0.36548  0.75957  1.0000
  H   H1289     1.0  0.96920  0.33095  0.74973  1.0000
  H   H1290     1.0  0.84802  0.33108  0.84557  1.0000
  H   H1291     1.0  0.92959  0.35464  0.90102  1.0000
  H   H1292     1.0  0.71743  0.47163  0.71793  1.0000
  C   C728      1.0  0.89569  0.48470  0.53318  1.0000
  C   C729      1.0  0.94300  0.39255  0.86983  1.0000
  N   N41       1.0  0.93331  0.33922  0.85322  1.0000
  C   C730      1.0  0.94342  0.36339  0.87895  1.0000
  C   C731      1.0  0.93604  0.31278  0.86541  1.0000
  C   C732      1.0  0.95428  0.35283  0.82470  1.0000
  C   C733      1.0  0.90163  0.32882  0.84186  1.0000
  C   C734      1.0  0.87673  0.31605  0.86797  1.0000
  H   H1293     1.0  0.82900  0.30003  0.87329  1.0000
  C   C735      1.0  0.95043  0.33067  0.79686  1.0000
  C   C736      1.0  0.93009  0.30502  0.90191  1.0000
  C   C737      1.0  0.92696  0.27436  0.90940  1.0000
  C   C738      1.0  0.83482  0.18516  0.96992  1.0000
  H   H1294     1.0  0.94067  0.27311  0.56694  1.0000
  C   C739      1.0  0.75141  0.12141  0.98345  1.0000
  H   H1295     1.0  0.67761  0.06232  0.58116  1.0000
  H   H1296     1.0  0.99793  0.44423  0.51489  1.0000
  H   H1297     1.0  0.68709  0.00284  0.83691  1.0000
  C   C740      1.0  0.98306  0.29002  0.54093  1.0000
  H   H1298     1.0  0.79528  0.10706  0.96600  1.0000
  H   H1299     1.0  0.97727  0.30311  0.52431  1.0000
  H   H1300     1.0  0.99440  0.27995  0.52701  1.0000
  C   C741      1.0  0.79776  0.23849  0.97794  1.0000
  C   C742      1.0  0.67557  0.01399  0.98705  1.0000
  C   C743      1.0  0.98924  0.48149  0.50964  1.0000
  C   C744      1.0  0.99489  0.48567  0.84300  1.0000
  H   H1301     1.0  0.88724  0.49892  0.52433  1.0000
  C   C745      1.0  0.78167  0.15160  0.98623  1.0000
  H   H1302     1.0  0.67099  0.09334  0.58712  1.0000
  H   H1303     1.0  0.78682  0.50137  0.61009  1.0000
  Fe  Fe85      1.0  0.89072  0.60608  0.04538  1.0000
  S   S166      1.0  0.91554  0.59401  0.08178  1.0000
  S   S167      1.0  0.84935  0.61218  0.05318  1.0000
  H   H1304     1.0  0.70870  0.68457  0.48147  1.0000
  S   S168      1.0  0.95789  0.59328  0.02142  1.0000
  S   S169      1.0  0.95041  0.62559  0.43730  1.0000
  Fe  Fe86      1.0  0.91387  0.56105  0.04448  1.0000
  Fe  Fe87      1.0  0.95774  0.62721  0.05575  1.0000
  C   C746      1.0  0.87062  0.73785  0.29083  1.0000
  H   H1305     1.0  0.95816  0.55276  0.09873  1.0000
  S   S170      1.0  0.93367  0.64227  0.02185  1.0000
  H   H1306     1.0  0.69116  0.74003  0.05641  1.0000
  C   C747      1.0  0.84488  0.70571  0.28452  1.0000
  S   S171      1.0  0.70843  0.64017  0.19739  1.0000
  H   H1307     1.0  0.73291  0.54055  0.22318  1.0000
  Fe  Fe88      1.0  0.72222  0.60628  0.18119  1.0000
  S   S172      1.0  0.77028  0.61425  0.17327  1.0000
  H   H1308     1.0  0.81776  0.72507  0.26939  1.0000
  H   H1309     1.0  0.75946  0.61543  0.24722  1.0000
  H   H1310     1.0  0.73010  0.55934  0.10972  1.0000
  C   C748      1.0  0.82745  0.61206  0.08709  1.0000
  C   C749      1.0  0.80179  0.61480  0.08159  1.0000
  C   C750      1.0  0.78384  0.61505  0.10744  1.0000
  C   C751      1.0  0.79123  0.61258  0.13938  1.0000
  C   C752      1.0  0.81684  0.60980  0.14490  1.0000
  C   C753      1.0  0.83470  0.60937  0.11904  1.0000
  H   H1311     1.0  0.79590  0.61702  0.05709  1.0000
  H   H1312     1.0  0.76469  0.61787  0.10269  1.0000
  H   H1313     1.0  0.82305  0.60809  0.16942  1.0000
  H   H1314     1.0  0.85428  0.60726  0.12386  1.0000
  H   H1315     1.0  0.88501  0.55475  0.14431  1.0000
  H   H1316     1.0  0.98501  0.52214  0.14789  1.0000
  N   N42       1.0  0.71549  0.51175  0.11243  1.0000
  H   H1317     1.0  0.74406  0.57032  0.28116  1.0000
  H   H1318     1.0  0.96814  0.62805  0.37096  1.0000
  N   N43       1.0  0.66830  0.76050  0.08063  1.0000
  H   H1319     1.0  0.67733  0.70989  0.10304  1.0000
  H   H1320     1.0  0.74509  0.51035  0.05410  1.0000
  H   H1321     1.0  0.96204  0.64803  0.12925  1.0000
  H   H1322     1.0  0.72593  0.58724  0.06293  1.0000
  C   C754      1.0  0.93319  0.54525  0.15595  1.0000
  H   H1323     1.0  0.89210  0.73774  0.29352  1.0000
  H   H1324     1.0  0.97193  0.56578  0.20004  1.0000
  H   H1325     1.0  0.75743  0.70183  0.23112  1.0000
  H   H1326     1.0  0.71544  0.77438  0.07695  1.0000
  C   C755      1.0  0.69525  0.73375  0.10631  1.0000
  H   H1327     1.0  0.69323  0.80270  0.05442  1.0000
  C   C756      1.0  0.93378  0.50562  0.01256  1.0000
  C   C757      1.0  0.68874  0.97489  0.15727  1.0000
  H   H1328     1.0  0.72462  0.69949  0.29409  1.0000
  H   H1329     1.0  0.78503  0.65169  0.31063  1.0000
  C   C758      1.0  0.67223  0.76761  0.01819  1.0000
  H   H1330     1.0  0.69216  0.98035  0.18341  1.0000
  H   H1331     1.0  0.73871  0.61505  0.28265  1.0000
  C   C759      1.0  0.96971  0.54137  0.44918  1.0000
  H   H1332     1.0  0.98361  0.55217  0.42739  1.0000
  S   S173      1.0  0.69814  0.57540  0.22315  1.0000
  H   H1333     1.0  0.70791  0.67932  0.25695  1.0000
  H   H1334     1.0  0.76484  0.59390  0.31493  1.0000
  H   H1335     1.0  0.77523  0.72443  0.26680  1.0000
  C   C760      1.0  0.70992  0.53719  0.10373  1.0000
  H   H1336     1.0  0.80758  0.70695  0.30715  1.0000
  C   C761      1.0  0.79108  0.53145  0.06871  1.0000
  H   H1337     1.0  0.82076  0.68235  0.17020  1.0000
  H   H1338     1.0  0.85000  0.69712  0.26217  1.0000
  C   C762      1.0  0.81408  0.70446  0.28211  1.0000
  H   H1339     1.0  0.69157  0.53622  0.11892  1.0000
  C   C763      1.0  0.69327  0.75307  0.07873  1.0000
  S   S174      1.0  0.68263  0.58170  0.14785  1.0000
  C   C764      1.0  0.98665  0.65194  0.17297  1.0000
  H   H1340     1.0  0.80695  0.54829  0.08636  1.0000
  H   H1341     1.0  0.80356  0.71914  0.21544  1.0000
  H   H1342     1.0  0.69310  0.74140  0.13063  1.0000
  C   C765      1.0  0.75701  0.70234  0.25786  1.0000
  H   H1343     1.0  0.67868  0.63264  0.35779  1.0000
  C   C766      1.0  0.96257  0.52003  0.15072  1.0000
  C   C767      1.0  0.81106  0.69706  0.17541  1.0000
  H   H1344     1.0  0.97639  0.58822  0.11800  1.0000
  H   H1345     1.0  0.69471  0.56796  0.03555  1.0000
  S   S175      1.0  0.68188  0.61939  0.29074  1.0000
  H   H1346     1.0  0.82429  0.71859  0.16205  1.0000
  H   H1347     1.0  0.87039  0.65188  0.99356  1.0000
  H   H1348     1.0  0.80779  0.64826  0.28026  1.0000
  C   C768      1.0  0.93074  0.57377  0.16312  1.0000
  H   H1349     1.0  0.76341  0.54148  0.12034  1.0000
  H   H1350     1.0  0.70489  0.99484  0.11077  1.0000
  H   H1351     1.0  0.69313  0.65356  0.10206  1.0000
  H   H1352     1.0  0.95097  0.50554  0.10014  1.0000
  H   H1353     1.0  0.72945  0.72786  0.08127  1.0000
  C   C769      1.0  0.75982  0.52810  0.07150  1.0000
  C   C770      1.0  0.70057  0.53823  0.06827  1.0000
  H   H1354     1.0  0.88827  0.71360  0.02376  1.0000
  C   C771      1.0  0.87854  0.67636  0.99075  1.0000
  N   N44       1.0  0.78904  0.67632  0.26657  1.0000
  H   H1355     1.0  0.97518  0.50870  0.40459  1.0000
  Fe  Fe89      1.0  0.68165  0.60740  0.23707  1.0000
  S   S176      1.0  0.88644  0.57074  0.00944  1.0000
  H   H1356     1.0  0.92243  0.52948  0.17660  1.0000
  C   C772      1.0  0.76381  0.59236  0.28815  1.0000
  H   H1357     1.0  0.78743  0.68568  0.16651  1.0000
  H   H1358     1.0  0.72515  0.71829  0.12351  1.0000
  H   H1359     1.0  0.94605  0.52618  0.44158  1.0000
  H   H1360     1.0  0.80024  0.53932  0.04409  1.0000
  H   H1361     1.0  0.96828  0.64825  0.18872  1.0000
  H   H1362     1.0  0.87302  0.75285  0.27032  1.0000
  H   H1363     1.0  0.74070  0.65510  0.26057  1.0000
  C   C773      1.0  0.72538  0.73446  0.10551  1.0000
  C   C774      1.0  0.81222  0.70348  0.21162  1.0000
  N   N45       1.0  0.96460  0.55053  0.15013  1.0000
  H   H1364     1.0  0.80677  0.66122  0.22746  1.0000
  H   H1365     1.0  0.71989  0.95757  0.15704  1.0000
  C   C775      1.0  0.79433  0.67369  0.23104  1.0000
  H   H1366     1.0  0.77242  0.65953  0.21854  1.0000
  H   H1367     1.0  0.91853  0.53413  0.13458  1.0000
  H   H1368     1.0  0.69336  0.76701  0.01444  1.0000
  C   C776      1.0  0.72839  0.53120  0.17176  1.0000
  H   H1369     1.0  0.75272  0.53877  0.17024  1.0000
  C   C777      1.0  0.76047  0.61802  0.27384  1.0000
  C   C778      1.0  0.70238  0.56831  0.06071  1.0000
  H   H1370     1.0  0.74414  0.75745  0.11149  1.0000
  C   C779      1.0  0.68220  0.66906  0.05828  1.0000
  C   C780      1.0  0.97506  0.56586  0.11780  1.0000
  C   C781      1.0  0.71900  0.52136  0.20667  1.0000
  H   H1371     1.0  0.72517  0.55067  0.16680  1.0000
  C   C782      1.0  0.98303  0.65165  0.13937  1.0000
  C   C783      1.0  0.70935  0.50487  0.14803  1.0000
  C   C784      1.0  0.67549  0.65390  0.08812  1.0000
  H   H1372     1.0  0.75424  0.67397  0.29807  1.0000
  H   H1373     1.0  0.94251  0.58509  0.18583  1.0000
  H   H1374     1.0  0.72621  0.71986  0.25803  1.0000
  H   H1375     1.0  0.78447  0.59311  0.27881  1.0000
  H   H1376     1.0  0.69603  0.79798  0.11240  1.0000
  C   C785      1.0  0.78691  0.64939  0.28405  1.0000
  H   H1377     1.0  0.94058  0.59032  0.14334  1.0000
  H   H1378     1.0  0.70501  0.68021  0.04914  1.0000
  H   H1379     1.0  0.89675  0.58643  0.17124  1.0000
  H   H1380     1.0  0.68944  0.81108  0.99397  1.0000
  H   H1381     1.0  0.98571  0.68874  0.29323  1.0000
  H   H1382     1.0  0.89650  0.68555  0.03982  1.0000
  H   H1383     1.0  0.93989  0.52797  0.00419  1.0000
  H   H1384     1.0  0.68770  0.57233  0.07722  1.0000
  H   H1385     1.0  0.88718  0.54997  0.18737  1.0000
  H   H1386     1.0  0.84442  0.69142  0.30494  1.0000
  C   C786      1.0  0.74801  0.52065  0.10662  1.0000
  H   H1387     1.0  0.96103  0.57819  0.45558  1.0000
  C   C787      1.0  0.72714  0.70004  0.26741  1.0000
  H   H1388     1.0  0.67692  0.52013  0.06412  1.0000
  H   H1389     1.0  0.78988  0.50945  0.07304  1.0000
  H   H1390     1.0  0.86648  0.74701  0.31340  1.0000
  C   C788      1.0  0.89785  0.56559  0.16674  1.0000
  C   C789      1.0  0.98812  0.63537  0.38554  1.0000
  C   C790      1.0  0.98489  0.57041  0.17710  1.0000
  C   C791      1.0  0.75955  0.67564  0.27176  1.0000
  H   H1391     1.0  0.83627  0.71553  0.21888  1.0000
  C   C792      1.0  0.69601  0.94980  0.15099  1.0000
  C   C793      1.0  0.98582  0.63552  0.41941  1.0000
  H   H1392     1.0  0.99470  0.56486  0.05493  1.0000
  C   C794      1.0  0.98236  0.52404  0.46816  1.0000
  C   C795      1.0  0.88066  0.68911  0.02470  1.0000
  H   H1393     1.0  0.95433  0.50939  0.17482  1.0000
  H   H1394     1.0  0.71474  0.53495  0.05051  1.0000
  H   H1395     1.0  0.68134  0.92999  0.16633  1.0000
  H   H1396     1.0  0.75223  0.50260  0.11573  1.0000
  H   H1397     1.0  0.76206  0.55001  0.06422  1.0000
  C   C796      1.0  0.97030  0.56640  0.46975  1.0000
  H   H1398     1.0  0.99369  0.58308  0.47713  1.0000
  H   H1399     1.0  0.74025  0.68460  0.46187  1.0000
  S   S177      1.0  0.90226  0.51449  0.06168  1.0000
  C   C797      1.0  0.73350  0.69411  0.48221  1.0000
  H   H1400     1.0  0.69491  0.51433  0.21035  1.0000
  H   H1401     1.0  0.66934  0.76529  0.13285  1.0000
  H   H1402     1.0  0.99321  0.59466  0.17160  1.0000
  H   H1403     1.0  0.85814  0.67713  0.03638  1.0000
  H   H1404     1.0  0.69164  0.94245  0.12532  1.0000
  H   H1405     1.0  0.74447  0.71898  0.47907  1.0000
  C   C798      1.0  0.67075  0.78738  0.99147  1.0000
  C   C799      1.0  0.67198  0.78051  0.05210  1.0000
  H   H1406     1.0  0.99636  0.72688  0.45783  1.0000
  H   H1407     1.0  0.99341  0.69021  0.45534  1.0000
  H   H1408     1.0  0.99611  0.69533  0.35127  1.0000
  S   S178      1.0  0.66894  0.69332  0.00598  1.0000
  H   H1409     1.0  0.67486  0.82111  0.15523  1.0000
  C   C800      1.0  0.67241  0.77876  0.11084  1.0000
  H   H1410     1.0  0.92392  0.68646  0.98926  1.0000
  Fe  Fe90      1.0  0.88631  0.59550  0.54165  1.0000
  S   S179      1.0  0.91523  0.59378  0.58129  1.0000
  S   S180      1.0  0.83696  0.58364  0.54951  1.0000
  C   C801      1.0  0.66853  0.90586  0.64686  1.0000
  S   S181      1.0  0.96981  0.61502  0.52765  1.0000
  S   S182      1.0  0.93924  0.61136  0.93426  1.0000
  Fe  Fe91      1.0  0.93054  0.57133  0.54512  1.0000
  Fe  Fe92      1.0  0.95187  0.63715  0.56034  1.0000
  H   H1411     1.0  0.78702  0.57416  0.71131  1.0000
  C   C802      1.0  0.79713  0.51433  0.63261  1.0000
  S   S183      1.0  0.92240  0.64059  0.52245  1.0000
  S   S184      1.0  0.69880  0.57408  0.72293  1.0000
  H   H1412     1.0  0.67858  0.92032  0.74800  1.0000
  S   S185      1.0  0.70506  0.63166  0.68222  1.0000
  H   H1413     1.0  0.98428  0.55658  0.87327  1.0000
  Fe  Fe93      1.0  0.72082  0.59767  0.67636  1.0000
  S   S186      1.0  0.76972  0.60937  0.66583  1.0000
  H   H1414     1.0  0.72257  0.86706  0.68972  1.0000
  H   H1415     1.0  0.89619  0.66112  0.63628  1.0000
  C   C803      1.0  0.69135  0.58717  0.53801  1.0000
  C   C804      1.0  0.81874  0.59064  0.58248  1.0000
  C   C805      1.0  0.78821  0.58240  0.57940  1.0000
  C   C806      1.0  0.77294  0.58803  0.60448  1.0000
  C   C807      1.0  0.78783  0.60159  0.63333  1.0000
  C   C808      1.0  0.81829  0.60956  0.63657  1.0000
  C   C809      1.0  0.83366  0.60418  0.61135  1.0000
  H   H1416     1.0  0.77641  0.57195  0.55721  1.0000
  H   H1417     1.0  0.74978  0.58225  0.60128  1.0000
  H   H1418     1.0  0.83018  0.62024  0.65864  1.0000
  H   H1419     1.0  0.85708  0.61066  0.61406  1.0000
  C   C810      1.0  0.97530  0.62943  0.91536  1.0000
  H   H1420     1.0  0.81703  0.63993  0.54321  1.0000
  C   C811      1.0  0.97714  0.62985  0.88141  1.0000
  H   H1421     1.0  0.76789  0.68616  0.56752  1.0000
  H   H1422     1.0  0.95665  0.61891  0.86729  1.0000
  Fe  Fe94      1.0  0.67998  0.60557  0.72692  1.0000
  H   H1423     1.0  0.67278  0.77871  0.96756  1.0000
  H   H1424     1.0  0.91759  0.71073  0.87358  1.0000
  H   H1425     1.0  0.84455  0.52631  0.73939  1.0000
  C   C812      1.0  0.70927  0.61324  0.56252  1.0000
  H   H1426     1.0  0.93215  0.64198  0.63697  1.0000
  S   S187      1.0  0.68251  0.62571  0.77733  1.0000
  Fe  Fe95      1.0  0.93779  0.61479  0.49080  1.0000
  C   C813      1.0  0.69929  0.92649  0.59567  1.0000
  H   H1427     1.0  0.67394  0.98568  0.90872  1.0000
  H   H1428     1.0  0.83196  0.58073  0.92742  1.0000
  H   H1429     1.0  0.74913  0.61591  0.51744  1.0000
  H   H1430     1.0  0.90535  0.64162  0.95794  1.0000
  H   H1431     1.0  0.73153  0.66993  0.58401  1.0000
  H   H1432     1.0  0.70452  0.57608  0.53161  1.0000
  H   H1433     1.0  0.95031  0.66459  0.67213  1.0000
  H   H1434     1.0  0.99810  0.60265  0.65115  1.0000
  C   C814      1.0  0.76037  0.65569  0.60646  1.0000
  H   H1435     1.0  0.68421  0.64479  0.84293  1.0000
  S   S188      1.0  0.67804  0.71052  0.51964  1.0000
  C   C815      1.0  0.77367  0.68160  0.63094  1.0000
  H   H1436     1.0  0.90495  0.53541  0.62955  1.0000
  C   C816      1.0  0.68350  0.68313  0.57424  1.0000
  N   N46       1.0  0.73629  0.64121  0.54919  1.0000
  C   C817      1.0  0.67542  0.93697  0.73405  1.0000
  H   H1437     1.0  0.79998  0.67712  0.54299  1.0000
  H   H1438     1.0  0.73818  0.69929  0.53364  1.0000
  C   C818      1.0  0.96602  0.69685  0.94849  1.0000
  C   C819      1.0  0.69663  0.96854  0.74754  1.0000
  H   H1439     1.0  0.72484  0.64068  0.49866  1.0000
  H   H1440     1.0  0.83141  0.55309  0.74367  1.0000
  H   H1441     1.0  0.76771  0.69643  0.51374  1.0000
  C   C820      1.0  0.72464  0.88043  0.71176  1.0000
  H   H1442     1.0  0.95603  0.55676  0.49153  1.0000
  H   H1443     1.0  0.72249  0.93920  0.58575  1.0000
  S   S189      1.0  0.89899  0.56951  0.50641  1.0000
  H   H1444     1.0  0.77828  0.65044  0.60021  1.0000
  H   H1445     1.0  0.71929  0.53825  0.62975  1.0000
  C   C821      1.0  0.89920  0.64989  0.93603  1.0000
  S   S190      1.0  0.68098  0.56572  0.64669  1.0000
  H   H1446     1.0  0.77012  0.53528  0.63392  1.0000
  C   C822      1.0  0.76933  0.56316  0.73008  1.0000
  C   C823      1.0  0.75870  0.63236  0.53773  1.0000
  H   H1447     1.0  0.78121  0.67459  0.65272  1.0000
  H   H1448     1.0  0.75636  0.57512  0.73171  1.0000
  H   H1449     1.0  0.67540  0.86701  0.67868  1.0000
  H   H1450     1.0  0.94114  0.56003  0.89491  1.0000
  H   H1451     1.0  0.69332  0.61937  0.57373  1.0000
  H   H1452     1.0  0.72753  0.91809  0.68607  1.0000
  H   H1453     1.0  0.74453  0.54436  0.67393  1.0000
  H   H1454     1.0  0.95090  0.72546  0.92711  1.0000
  H   H1455     1.0  0.84836  0.67303  0.86981  1.0000
  C   C824      1.0  0.74888  0.66441  0.57601  1.0000
  H   H1456     1.0  0.85064  0.63326  0.94592  1.0000
  H   H1457     1.0  0.70180  0.64729  0.52565  1.0000
  N   N47       1.0  0.91043  0.68337  0.93919  1.0000
  H   H1458     1.0  0.69135  0.96955  0.77337  1.0000
  H   H1459     1.0  0.93487  0.69099  0.63417  1.0000
  H   H1460     1.0  0.87056  0.71394  0.86967  1.0000
  H   H1461     1.0  0.71236  0.91025  0.63626  1.0000
  H   H1462     1.0  0.78050  0.56536  0.75368  1.0000
  H   H1463     1.0  0.75647  0.68750  0.63849  1.0000
  C   C825      1.0  0.70058  0.92313  0.63222  1.0000
  C   C826      1.0  0.71330  0.90241  0.70519  1.0000
  H   H1464     1.0  0.74876  0.89324  0.71888  1.0000
  H   H1465     1.0  0.74180  0.63594  0.61884  1.0000
  S   S191      1.0  0.98287  0.67649  0.59212  1.0000
  H   H1466     1.0  0.76309  0.62008  0.55704  1.0000
  S   S192      1.0  0.94301  0.53638  0.56055  1.0000
  C   C827      1.0  0.81156  0.64693  0.52000  1.0000
  C   C828      1.0  0.78934  0.65818  0.52552  1.0000
  C   C829      1.0  0.97606  0.65580  0.75574  1.0000
  H   H1467     1.0  0.71404  0.94621  0.64236  1.0000
  H   H1468     1.0  0.89546  0.67028  0.87486  1.0000
  H   H1469     1.0  0.85924  0.63132  0.90455  1.0000
  C   C830      1.0  0.72549  0.65262  0.52143  1.0000
  H   H1470     1.0  0.94225  0.65979  0.72958  1.0000
  H   H1471     1.0  0.91452  0.68402  0.67164  1.0000
  H   H1472     1.0  0.70432  0.70405  0.57855  1.0000
  H   H1473     1.0  0.92793  0.62897  0.75789  1.0000
  H   H1474     1.0  0.95053  0.55533  0.93554  1.0000
  H   H1475     1.0  0.68746  0.93905  0.58975  1.0000
  H   H1476     1.0  0.71164  0.86478  0.73169  1.0000
  H   H1477     1.0  0.99615  0.58657  0.90224  1.0000
  H   H1478     1.0  0.79341  0.70186  0.62056  1.0000
  H   H1479     1.0  0.71595  0.60307  0.58218  1.0000
  H   H1480     1.0  0.81767  0.53581  0.62585  1.0000
  N   N48       1.0  0.91377  0.60336  0.69373  1.0000
  C   C831      1.0  0.88957  0.58175  0.71643  1.0000
  C   C832      1.0  0.94324  0.61950  0.71186  1.0000
  C   C833      1.0  0.90477  0.62533  0.68101  1.0000
  C   C834      1.0  0.91752  0.58684  0.66554  1.0000
  C   C835      1.0  0.92419  0.56123  0.67398  1.0000
  C   C836      1.0  0.85865  0.55959  0.70073  1.0000
  C   C837      1.0  0.92841  0.65124  0.65959  1.0000
  C   C838      1.0  0.94527  0.64126  0.73917  1.0000
  C   C839      1.0  0.85603  0.59553  0.93396  1.0000
  C   C840      1.0  0.92642  0.54572  0.64336  1.0000
  H   H1481     1.0  0.84893  0.57196  0.68839  1.0000
  C   C841      1.0  0.91769  0.67310  0.64995  1.0000
  H   H1482     1.0  0.88504  0.59453  0.73525  1.0000
  H   H1483     1.0  0.89738  0.56818  0.72998  1.0000
  H   H1484     1.0  0.94838  0.60294  0.72326  1.0000
  H   H1485     1.0  0.96221  0.63248  0.69494  1.0000
  H   H1486     1.0  0.89844  0.63549  0.70116  1.0000
  H   H1487     1.0  0.88417  0.61330  0.66587  1.0000
  H   H1488     1.0  0.89743  0.57742  0.64947  1.0000
  H   H1489     1.0  0.93659  0.60288  0.65019  1.0000
  H   H1490     1.0  0.90627  0.54369  0.68929  1.0000
  H   H1491     1.0  0.94603  0.57043  0.68683  1.0000
  H   H1492     1.0  0.71720  0.91603  0.72742  1.0000
  H   H1493     1.0  0.71115  0.99896  0.86585  1.0000
  H   H1494     1.0  0.70534  0.94769  0.69317  1.0000
  H   H1495     1.0  0.97075  0.70961  0.97153  1.0000
  H   H1496     1.0  0.86075  0.54458  0.68283  1.0000
  H   H1497     1.0  0.71093  0.52775  0.69617  1.0000
  C   C842      1.0  0.83595  0.53933  0.72619  1.0000
  H   H1498     1.0  0.85902  0.59114  0.95953  1.0000
  H   H1499     1.0  0.98032  0.63827  0.76612  1.0000
  H   H1500     1.0  0.93797  0.52466  0.90664  1.0000
  C   C843      1.0  0.73068  0.52514  0.69017  1.0000
  H   H1501     1.0  0.91082  0.64545  0.91582  1.0000
  C   C844      1.0  0.86497  0.62865  0.92968  1.0000
  H   H1502     1.0  0.87415  0.69239  0.83721  1.0000
  H   H1503     1.0  0.72044  0.97406  0.74563  1.0000
  H   H1504     1.0  0.93136  0.52758  0.64975  1.0000
  H   H1505     1.0  0.86996  0.58966  0.91831  1.0000
  H   H1506     1.0  0.99426  0.66954  0.73827  1.0000
  H   H1507     1.0  0.78622  0.66665  0.50206  1.0000
  C   C845      1.0  0.89270  0.69349  0.91892  1.0000
  H   H1508     1.0  0.78709  0.53554  0.67138  1.0000
  C   C846      1.0  0.99954  0.54815  0.92009  1.0000
  H   H1509     1.0  0.68739  0.90395  0.58379  1.0000
  H   H1510     1.0  0.86842  0.68077  0.92509  1.0000
  C   C847      1.0  0.68071  0.93519  0.69736  1.0000
  C   C848      1.0  0.99812  0.66513  0.62331  1.0000
  C   C849      1.0  0.90966  0.69201  0.97393  1.0000
  H   H1511     1.0  0.76253  0.51891  0.72088  1.0000
  C   C850      1.0  0.77512  0.52131  0.65015  1.0000
  H   H1512     1.0  0.69373  0.98573  0.73417  1.0000
  H   H1513     1.0  0.67231  0.94876  0.68469  1.0000
  C   C851      1.0  0.74307  0.68708  0.51447  1.0000
  C   C852      1.0  0.95143  0.54956  0.90981  1.0000
  C   C853      1.0  0.87063  0.69280  0.86364  1.0000
  H   H1514     1.0  0.69557  0.52749  0.57646  1.0000
  H   H1515     1.0  0.97694  0.67085  0.77561  1.0000
  H   H1516     1.0  0.94491  0.56222  0.62765  1.0000
  H   H1517     1.0  0.91946  0.71695  0.97600  1.0000
  H   H1518     1.0  0.89980  0.71750  0.92447  1.0000
  C   C854      1.0  0.94287  0.70077  0.92802  1.0000
  H   H1519     1.0  0.81443  0.52303  0.71430  1.0000
  H   H1520     1.0  0.94478  0.69403  0.90293  1.0000
  C   C855      1.0  0.99310  0.63566  0.62393  1.0000
  H   H1521     1.0  0.98285  0.52408  0.92451  1.0000
  C   C856      1.0  0.67413  0.65884  0.59584  1.0000
  C   C857      1.0  0.89580  0.69141  0.88183  1.0000
  H   H1522     1.0  0.68604  0.59521  0.51549  1.0000
  H   H1523     1.0  0.97253  0.52041  0.49289  1.0000
  H   H1524     1.0  0.95759  0.67278  0.95418  1.0000
  H   H1525     1.0  0.73240  0.51932  0.74236  1.0000
  C   C858      1.0  0.74854  0.52978  0.72205  1.0000
  H   H1526     1.0  0.68764  0.66096  0.61680  1.0000
  C   C859      1.0  0.67928  0.88519  0.69622  1.0000
  H   H1527     1.0  0.98095  0.62015  0.60445  1.0000
  C   C860      1.0  0.98404  0.56162  0.89929  1.0000
  H   H1528     1.0  0.99849  0.50431  0.52056  1.0000
  H   H1529     1.0  0.86166  0.67941  0.97721  1.0000
  H   H1530     1.0  0.97494  0.50788  0.86818  1.0000
  H   H1531     1.0  0.83284  0.66536  0.50966  1.0000
  C   C861      1.0  0.99605  0.70904  0.93080  1.0000
  H   H1532     1.0  0.80212  0.62747  0.50299  1.0000
  C   C862      1.0  0.71099  0.51541  0.61960  1.0000
  H   H1533     1.0  0.72916  0.51457  0.60602  1.0000
  C   C863      1.0  0.99388  0.50365  0.87207  1.0000
  H   H1534     1.0  0.68136  0.94828  0.50012  1.0000
  H   H1535     1.0  0.99308  0.69609  0.90817  1.0000
  H   H1536     1.0  0.00105  0.64349  0.95936  1.0000
  C   C864      1.0  0.68631  0.50955  0.59515  1.0000
  Fe  Fe96      1.0  0.93129  0.60603  0.98890  1.0000
