data_image0
_chemical_formula_structural       CSHFeS2FeSFeS3FeS2FeS2FeSFeS3HCSC7H4C2HCH5C6H4C2HCFeCHCH2CHCNC2H7C2H2C2H2CH2C2H5NH5CHCH5C2HC3H3C3H2CH2CHC2HC3H10C2H4CH3CNCHC4H2C2H12CH2CH6CHC2H3CHCH3C2H5CSHC4H2C2H4CHC2HCHNCHNH4C2H3CH3CH4C4H3NCNCHSHCH3C2H5CH3CH2C2H2C2H6SH3CH4CH9CHCH3CHSCHCH2CHCH2CH8FeS2HCHFeSFeS3FeCFeS2FeS2H2FeS2FeS2FeSFeS3FeS2FeS2FeSFeS3C6H4C6H4C6H4C6H3CHC5H4C6H6CH2C2HC6H4C4H2CH2CHC2H3NC4H12C2SCHC2HSCH4CSHC3H4CSCNH2CHFeH2CH3NC4HCHC2H2CH16NC9H18NC6HC3H3CH21C2H8SHCH2CH3C2H2CH3C3H4CH8C3FeHC2H2C2HS2C2H2C2H3C2H4CHCH7NC2H2CH3CH2CH3CHCHSH5C3HC2HC2NHSH2CH6C3H3C2H5CH2C2H5C2HCHCSC2HC2H2CH6C2H11CH3C3HC2H2CHCHCNH3NSHC3HC2H3CH5SH2SH2CH2C2H2CH2CH10C3HCH3CH2C2H4CH4CFeCNCH2CH5CH5CHNHCH8CHCHNH4CH2CH7FeH3C2FeH3CH4CH5CSHCSCH3C2H5C2H4CSNH2CHCHCHCH2CFeS2FeS2FeSFeS3HCH3SFeSH12SCSHFeH3FeS2FeS2FeSFeS2FeS2FeS3HFeS4C6H4C6H4CH2C6H9CH4C7H4C6H4C6H5CSHFeH4CHC2H4C6H3NHCH3FeCHCHCHCHNC8HC3H3SH2CSH11C2SH3C2HSCHCHC4NC12H20FeH9C2HNCSC6H13CHSH3CH4CHFeH6NC9H12CH5CHSCH2CHCH2CFeH11CHCHC3H3SHC2H2CH2CHC2H3SFeH2C2SH2CH2NHC3H2C2H3CH4CSH5CH8C2H5CHC3H3CH3CH2CH2C2HCHCHC2HFe2H3CH3NH4CH5C3H3CH2CHCHSHNHC2H10NC2H3CHCH2CH3CHC2H5CH2CH2SHCH4CFeH4CHNCH3CHFeS2NHCH3CHFeS2FeH2FeHFeS3CHFeS2FeSFeSFeS3C3SC3H4C2H2NC6H8C2H3SHCH2CH3CHC2H4C6H4CH2C2HCH5C3H2CH2C2NC4HSH2C3H3SCHSH3CHCH2C2HCH3CHSH4CFeH7SH6CH2CH4CH4C2H3C4H8C4HCH3C6HCH7CH2CH2CHCH4CNHCH4C3H2C2H2CH4NC4HCHC4H5C2H2CH7CHC2H5CHCH16CHCH4CH2CH4SH4C4H3C2FeS2FeSFeSFeHS2CSCH3CH3CH2CSH4CH2CSH2CH3CH6CHFeHCH2C7H2CHCHC6H6CH2CH7CN2C3HCHCHC2HCSH6CHCH2SCH4C2H5NHC6H4SHCH12SHC2H6C5FeCHCH5C2HCH4FeH4NCH4CFeH2SC2H4CSCH4CHCFeS2FeS2FeSFeS2HC2SHFeSFeS2FeSFeS3H4CHC3H2CH2SH4S2HSFeS2FeS2FeS2FeSFeS3C6H4C6H4SH2CHSC4H7C6H4C6H4CH2C7H6C8H4C3H2CH4C2HC4H5CHCHC3H3CH8NH2CH6S2H2C2HCFeHCH2C2HCH3CH4FeHCH7C2H2CHCHC2HSHNC12H19CH8C5H10NC5HC3H11CH12CH3SNCHC5H2C3H7NHCH4CH2CSH2CH6NC11H29NC11H23NC6HC3HFeH3CH20CH2CH4SHCH7CFeH2C2HSC4H4C2HCH5CH3SH2CH3CH6CHCSNCHC3HCH11NH2CH3CH2CHC3HSH2C2SHCHCHCH4NH2FeHC3HC2H2C2HCHFeH2CHCH5CHC2SC2H3CH3C2SH3C3H7CH3CHCH2CH2CNCHCHCHC2H2N2HCH2C3H7CHCH5CHCNC2H3C2HSH8SCHCH3CH2CHCH2SHCH6SH3CH3C2HCHCHCHFeH5SC2HSCHCFeS2CHCFeSFeS3H2CHFeHSC2HCFe2HSHCFeSHSH2C4HSH8CHCHSC6H4C2H2SCH4C6H4CH2C2H3C2FeH2C2H2C3H4CH2CSH2C2HCH7SCHSHCHC2H2SH4CSH4CHSCSHCNC2HCH3CHCFeHSHSCHCNCH2CH6C6H15NC5HC3H2CH6CHCSH10FeHCH4CH3SH5CHFeCHCHCH2FeH2SH4C2HFeCH2C3H2CH6C2NC2HC2HSCH4CH6CH2NH3CH2CFeH3C2H3CH2CHC2H2CHNSC2HCH3CHCHCFeCSHCSC2H2C4H5CH2CHCHFeC3H4SH3C2H2C4H2NCSCHCH2CSFeHCH2CH4NC2H4CHCH2CH2CH2C2H2CH2C2H12CH3SCH4SCS2CHC2H9SHCHCFeCHSFeHSH2C2HCFeSHSCFeS2FeSCFeSFeS3FeCSHCH2SFeCHC2SHCH4C3HC7HCSHC6H6C3H3C2H2C2HNC7HCH17SH7CFeCH3CHCH3CHCHC3HSHC2HC2NCH6FeHCHCHSHSH10CH2SCH2FeH2CH7C2H2SH2SC2HNHFeH8CH5FeCHCHCH2CH7NCH3CHC2H5C2H2CHFeS2FeS2FeSH2S2H2C2FeS2FeCSFeC2HCSHSHFeS2FeHFeS3H6FeS2C2FeSFeHS2HC2HC3H7C2H2CHCSC6H4C6H4C3H5SFeH2NHC6H6C4HC2H4SH11SHCSHFe2CH2C4H2NC2H2CH2C3HNC12H29SH3CHCHCHCH2SHCHCH3C3HCH7CH3CH4CHCH2CHSC2H5CFeH3CHNC3HSCHCH6C2FeH5SH2C2HCNHFeH5CS2H2NC2HFeHSCH2C2HFeHFeHCH3FeH2C2HCHCH5CH4CHCH2SCH3CHCHC2SH4CHC2HCH2CH4CH2C2H4C2HCH2CH4S2CHC2H3C3H4CHSCFeC2H4CH2CH2CHCHSFeHC2SCHC2H5CH2C2HFeHSH3CH2NH2CHSH7CH2C2HFe2NH5FeHSHCS2C2SC2SCH6C3HCSFe3HFeCH3CS2CHFeHC2SHCHC2HCHCHC2H2SH4NHC3SC7H8CH6CHSH4CHCH4S2CHSHCHFeHCH5SH2CHFeHFeC2H2CHC2H3CH6CH3SHC2H3CH8CHC2HCH3FeS2FeSHFeHFeS3FeS2FeS2Fe3CS2H3S2CH6CHCHCH2CHCH2C2HFeCHCH2CH6CHCH4FeCH7C7HCH2CH5NCH2C6H4C6H4CHC2H4SC2H7CH2CH2CSNHCH11C3H3CH2SH6C2H4CH2CFeHCH6C2NH2NH4CSHCHSC2NH2CH2CHCSCH5SHC2H2CSHCHCHCSH4C2NH4C2H5CH3CHC3HCHFeS2HSFeSHSHNH2FeS2FeSFeS3FeSFeSHFeSFeS3H6SHFe2S2FeS2FeS2FeSFeS3FeS2FeS2FeSFeS3H2C8H4C6H4C6HCH2C2HC7H6C2HCH2C2HC7H5SCH2CH2CH2C6H4C6H4CH2FeCHFeH2C6H4CHC3FeHC2HCH2CHCHC3H2NHCH3C5H6C3HCH4CH9CHSHCHNH4CH2FeHC2HCH3FeH3C3SCH7CHC2HCHCH5CH3CH3CH2CHSH8C4H8CHSHCFeHC2H6CNC9H18C5H10CH2NC6HCHC3H19C2H7C2H6NC3H2CH4CH8CNH3S2HSH18CH3CH2SH4FeNH4CHCH2CH2CH2CH7CHSHCH2CH2NCSFeHCSCH2C7HCHCH2CHCH5CH7CH4CH4CH5CSCHC2H5SHC2HC3HCH2C3FeNCH4SH2CH2C2HC2HNC3H2CH2SCH2CH8C2HC2H2C2H2S2CH2CH2CH4CH2CHSCH6NHCHC3H5CS2HCHSH2CFeC2HCHC2HC2H2CHC2HCHCHSH3FeH3NFeHC3HC3H2CH10C3H2C3HFeCH3NCHCH2CSH3CH6SCHNCSCH3FeS2FeS2FeSFeS3FeS2C2FeSFeS3CH2FeS2FeSHSCFeS2FeSHFeSFeS3H2CHSH2FeS2FeSFeSFeS3C5H2CH8C6H6CHC7H5SH2CH5SH2C6H4C7FeH3C6H4C6H4C6H9CHCH4SH2CH3CH4C2H2CHCNH4C4H2FeCHC4NCHCH9C4H6NC12H27C4H6SH4C2HCNHSC3HCH2SCH2SH9NSHCH6SCH2CHCHCSCNCHFeH2CH4C2NC10H26C3FeH3FeSCH6C2H2CH2C4H7SH3CHCHSC2HCH10SCH4CH5CNH2CH2CH5CFeC3HCHC2HC2HSCH2NH2CH4CH2CH3CH3CH2SFeH5FeC3SHCH2CHNSHCSH2CH2CH2CH4FeCH7NH5C5HCHCH2CH4C3H4C2HCH3C3H4SCHC3HCHCFeCH3CH5SCH3CHC3FeH2CH3SH2SH2CH5CHCHC2H5CH4CH2C2HCHC2H2CH2FeHSFeCS2H3S2FeS2FeHCFeHFeCS2H3CHCH2CH4C3HCH2CFeC6H4C2HCH6C2H3CH2SHC2HCH8C4H5NC12H33C2HC2NHC2H3CH2SFeH2CHNCH3C2HSH6C2H5CSCH4CH2C2H2C2H4FeC2H2C2HNC2HC2H3CSCH2C2HCH3CH4CH2CHC2H3CHSH2SC2SCHCHCSHFeS2FeS2FeSFeS3FeS2FeS2FeSFeCS2CS2HFeS2FeSFeHFeS2CH3CNH2C2HCH5CHCH3C6H4C6H4C6H4CHC2H2CH2CH10CH2NCH2CHCHC2NC12H29NH4CH2C3H11C2H2CH2CH2CHCHCH3C2H3CHC6H4C2HCH4CH4C2H4C2H4CHCH5CH6CHCHCHCHC2HC2SH2C2HCHNC8HC3H17CH3NH12C4HC4H4CHCH4CSH3CHCH2NC6H6C2H2SHSH4CHCH4CH2CHCHCHC2H3CH5FeCSFeS2FeS2FeSH2FeS3FeS2FeS2FeSFeS3FeS2FeS2FeSFeNSCSFeSHFeS2Fe2S4FeS2FeS2FeSFeS3FeS2Fe2S2HCHNC2HCH2C7H4C4H2C6H4C6H5CH2CH3C6H2C6H4C6H4C6H4CH2CH2CH3C6HCH2CHNC2HSH5CHC2H3C2H3CSHCHCHCHCH2NC2HCSH3C2H2NHC2HC3H4CH4C2HCH5CH18CHC2HCHCHCH3NH2CH5CH4CH4CHCHC3HCH6CH3CH6NC9H20CHCH3NC9H23NC8H17NC11H21SH4SCHC2H4NCH2CSCH4CHCHCH4CH2C2H2C2H3CH5SFeHCH3FeH2NH3CH2FeSH3CH3CH2C2H4CH2CH5C2HC5HC2H5NH2C3H2CHC2H5CH2C2H2CSHCH3CHNH2C2HCH2CNH3SH4CFeCH4C2H4CH2C3H4CH2CH3CH2C2H3CH8CHCH2C2H3C3HC2H2CH3CH9C2HCH3SHCH7C2H6CNCH6C2H2CNCHCHCHCH4C2H2CH3SCH3SHCHCH3C3SCHC2H3CHCH3CHFeCH8CHC2H7C2H3C4HFeH2SH2C2HCH2C2HFeCH4FeS2FeSFeSH2SHFeS2FeS2CHFeS3H3CH4FeHC3H2CFeS2NSHFeSFeS2H2C3H5CSH2C2H6CHNH2CSH2C6H5CHCH4SHC6H4C6HC3NHC2H3C6H5C3H9CHSHC2H9CH3C3H7CSH3C3H5NSH2CH2CH5CH6C2H3C3H2CHCH2CHCH2CHC2HCHCH3CH2CH8C2H3C3HCHSHC2H2CH2CH4CH3C4HCH2NH4CHCNC2HCH3C2HNHC2H2CH3CHS2H2CH2C2HC4H9CHCH2CH5CHC5H4CH2CH2CH2SH5C2HCH6C2HCHCFeHFeH2CH2NCH2CHC2HCFeS2H2CFeHCH2FeHSFeNHC2S2FeS2H3FeSFeSHCFeS2FeS2FeSFeCS2CH3C2HSFeS2FeS2FeSFeS4C2H2C3H2C6H4C3HC4H3CHC2H2CH2C7H4C6H7C4H4CH7CNC4FeH8C2H5C3HCHFeH2CH2CH4C2H5CHC3H4SHNH2NCHFeHC2H4C3H7CH3CH2C3H4CH5CH3C4HC3HCHCH3CHNH5CH3CH7FeC2HC4HCHC3HC3HN2HC2H3CHC2H4CH3CHNHCSH3CH3CH2CH7SCHCSCHCHSH10CH3CHC3H3CH2CH3C4H7CHCH4SCSCHCHNH5CH8CHC2HCH4CH3C2H2SCHCHCH2CH4CH4C3H2CHCSC3SH4CH3C2H10CNC2H2CH7SCH6CHCH2CHCHCH7C2H2CHSCHC2H2FeH2SH5SFeNH2SCSHFeHSFeHSFeH2SHCH2C3H4CSHC2H2FeCH2CHC7H3CH2CSHC3H2SHCHC2H3CHCH3C2H2CHCSCHFeHC2H2CHFeHCHSH9SCFeH3NHC3H5C3HCH3C2H5SHC2HNCNC4H3CHCHCFeHS2HCH3C2H2CHC2H3SH3CH3CH2CHCSCH2SHSCHCH2CH6CH4C2H8CH2C2HFeHFeH8C2H2CFeH3SHFeS2FeS2FeSFeS3HSFeS2FeS2FeSFeS3HC5H3CH2CFeSH12CH2NHCHCHC6H4CH4C2H3C6H4C6H4C6H4C6H5CHC2H2CHC3H10C3H4CH5CH2SHNC8H13CH2CHNHCHC2H2CHCHC2HC2H8NH3FeCH7CH4CHCH3CH4CH4CHCH3CH2CHCH4C2HCH6CHNHCSH7CH2C2H6CH7C2H2C3H2CH2CNC11H25SHCHC4HCH2CHCH3CH4C4HCSNHCHCH3NC4HCHC2H3CHSHSCH2CH4NCH3C3HCH3C2H7CHCSH6C3H6C2H10C2H6NH2CH2CH2CH2CH3C2H7C2H3CHC2H3FeH3CHCH4CH4C2HCH3CH3CHSH2FeCHCFeS2FeS2FeCS3CH3S2H5CHSCHSH2CFeCSFeHSH2FeH2SH5C2H2FeH2CHCHC2H7NCH6CHSH3SHC6H8C2HC9H4C6H13CH2CH10C2HSHCHCSCH6SC3SCHCH2CH2CFeCHC2H3NC2H5CNCFeH6CHCH2C2H4SH2CH3C3HC2HC3H2CHC2H2CHCH3CHCH2SC2H5CHCHCH3CHCSC2FeSHCHCSCH2CSCH2CH3CFeS2FeS2FeSFeS5FeS2FeSHFeSFeS3C6H4C6H4C6H4C7H3C2HCH2SFeC2H3NHCH3CH2C5SH2FeC2NCH2CSHNHCSC4H8C2H2C2HCNC3H2C4HC3H9CH3CHFeCHCHCH10C2H2FeSCH2CHCH4C2H13CH2C2SNC8HC3H28C2SHCSNCHSC3H3C2FeCH4CHC2NC4H2C2HSHCH14CH2C2HNH3FeCNC6HC3H21CHCH4NHCH2CH2C3H2CH3NCHCHC2HCHCH2CSCHC2H7FeH2CH3C2HCH8C2HCH2CSH4CH2CHC2HSFeH2C3HCH3FeHC2H4CHC2H5SHSHCH5CH5C2HCH7SCHCH5C3H3CH5FeCH3CH4FeHFeH6CH3CH2CH3C2HSCHNCSHCHC2H2SHCH2CH4CHFeH3CSCHC2H3C2HCFeHSC2SH2C2SCH5SHC2Fe2SFeSHSHCH4C2HCHCHC5HC2H2C3SCH5C3HCFeH3FeCH4NSH3CNC2HC2H2CHC3H2CNH13CH5NHC2H4SH3CHCH3C2H2CHCSH4C2HC2HFeCH3C5H3CHSHSCHCH2CH3CH2CHCH9CHC2H2CHCH2CSH2SH5C2S2HCHCH2CFeC2H2CSH7CH4CHCHFeHCHSCHC2H2SFeS2CHFeHFeS4FeS2FeHCHFeSHSC3HCH3CSC6H3C7H3C7H6C3HCH4CH13CH11C3H2C3H2SC2SNC6HCFeC2H2CSH2CH8CH10CH2C2NH3C2HNH2CH3CHNHCHCH6C2H2CHC2H2CH4C2H6C2H2C2H2CH3SH2FeH3C3HCHC2NH5SCH2CSHCH2FeH2NH4CH5CH3SH3CH2C2H2FeH3CH4
_chemical_formula_sum              "C3456 S768 H6144 Fe384 N192"
_cell_length_a       82.2864
_cell_length_b       82.3009
_cell_length_c       81.921
_cell_angle_alpha    73.5184
_cell_angle_beta     74.1209
_cell_angle_gamma    73.5498

_space_group_name_H-M_alt    "P 1"
_space_group_IT_number       1

loop_
  _space_group_symop_operation_xyz
  'x, y, z'

loop_
  _atom_site_type_symbol
  _atom_site_label
  _atom_site_symmetry_multiplicity
  _atom_site_fract_x
  _atom_site_fract_y
  _atom_site_fract_z
  _atom_site_occupancy
  C   C1        1.0  0.15990  0.39134  0.01387  1.0000
  S   S1        1.0  0.23326  0.37428  0.01613  1.0000
  H   H1        1.0  0.18683  0.40409  0.07793  1.0000
  Fe  Fe1       1.0  0.22511  0.41391  0.03617  1.0000
  S   S2        1.0  0.24212  0.38835  0.04600  1.0000
  S   S3        1.0  0.22095  0.43681  0.04775  1.0000
  Fe  Fe2       1.0  0.25268  0.38797  0.01776  1.0000
  S   S4        1.0  0.28117  0.38107  0.00538  1.0000
  Fe  Fe3       1.0  0.22127  0.37709  0.04363  1.0000
  S   S5        1.0  0.21314  0.35452  0.06398  1.0000
  S   S6        1.0  0.23721  0.41441  0.00804  1.0000
  S   S7        1.0  0.20328  0.40271  0.03629  1.0000
  Fe  Fe4       1.0  0.11707  0.37647  0.10312  1.0000
  S   S8        1.0  0.12705  0.38678  0.12021  1.0000
  S   S9        1.0  0.13334  0.35469  0.09035  1.0000
  Fe  Fe5       1.0  0.08197  0.40150  0.10703  1.0000
  S   S10       1.0  0.08903  0.41403  0.12429  1.0000
  S   S11       1.0  0.05570  0.41404  0.10054  1.0000
  Fe  Fe6       1.0  0.11451  0.41262  0.10554  1.0000
  S   S12       1.0  0.12563  0.43619  0.09534  1.0000
  Fe  Fe7       1.0  0.10058  0.38709  0.13749  1.0000
  S   S13       1.0  0.09286  0.37991  0.16681  1.0000
  S   S14       1.0  0.10668  0.40241  0.08701  1.0000
  S   S15       1.0  0.09147  0.37445  0.12167  1.0000
  H   H2        1.0  0.19487  0.42650  0.10633  1.0000
  C   C2        1.0  0.16730  0.42587  0.06929  1.0000
  S   S16       1.0  0.13718  0.38802  0.21522  1.0000
  C   C3        1.0  0.02491  0.40835  0.10026  1.0000
  C   C4        1.0  0.10601  0.38139  0.17989  1.0000
  C   C5        1.0  0.12251  0.38495  0.17282  1.0000
  C   C6        1.0  0.13239  0.38626  0.18380  1.0000
  C   C7        1.0  0.12553  0.38471  0.20173  1.0000
  C   C8        1.0  0.10911  0.38106  0.20873  1.0000
  C   C9        1.0  0.09954  0.37914  0.19790  1.0000
  H   H3        1.0  0.12767  0.38654  0.15897  1.0000
  H   H4        1.0  0.14518  0.38883  0.17840  1.0000
  H   H5        1.0  0.10382  0.37952  0.22256  1.0000
  H   H6        1.0  0.08696  0.37607  0.20352  1.0000
  C   C10       1.0  0.04247  0.40088  0.09992  1.0000
  C   C11       1.0  0.04904  0.38360  0.09843  1.0000
  H   H7        1.0  0.06263  0.37773  0.09815  1.0000
  C   C12       1.0  0.15853  0.41516  0.02852  1.0000
  H   H8        1.0  0.21007  0.46982  0.99052  1.0000
  H   H9        1.0  0.25511  0.46982  0.04460  1.0000
  H   H10       1.0  0.06638  0.43190  0.15633  1.0000
  H   H11       1.0  0.16426  0.37707  0.12804  1.0000
  H   H12       1.0  0.22302  0.42974  0.08699  1.0000
  C   C13       1.0  0.19078  0.35527  0.07041  1.0000
  C   C14       1.0  0.18530  0.33960  0.07644  1.0000
  C   C15       1.0  0.16764  0.33963  0.08225  1.0000
  C   C16       1.0  0.15533  0.35530  0.08264  1.0000
  C   C17       1.0  0.16072  0.37105  0.07665  1.0000
  C   C18       1.0  0.17845  0.37103  0.07033  1.0000
  H   H13       1.0  0.19476  0.32739  0.07663  1.0000
  H   H14       1.0  0.16352  0.32745  0.08686  1.0000
  H   H15       1.0  0.15122  0.38320  0.07686  1.0000
  H   H16       1.0  0.18258  0.38314  0.06583  1.0000
  C   C19       1.0  0.29376  0.39209  0.01080  1.0000
  C   C20       1.0  0.28664  0.40151  0.02383  1.0000
  H   H17       1.0  0.00418  0.36432  0.18908  1.0000
  C   C21       1.0  0.01399  0.39895  0.09852  1.0000
  Fe  Fe8       1.0  0.21681  0.40094  0.00889  1.0000
  C   C22       1.0  0.31102  0.39164  0.00191  1.0000
  H   H18       1.0  0.29077  0.41831  0.03753  1.0000
  C   C23       1.0  0.28549  0.35151  0.04661  1.0000
  H   H19       1.0  0.19642  0.38409  0.09947  1.0000
  H   H20       1.0  0.12216  0.44125  0.15410  1.0000
  C   C24       1.0  0.11282  0.46585  0.13793  1.0000
  H   H21       1.0  0.16643  0.41307  0.16437  1.0000
  C   C25       1.0  0.01151  0.36731  0.21856  1.0000
  N   N1        1.0  0.12558  0.48463  0.20459  1.0000
  C   C26       1.0  0.03801  0.37405  0.09683  1.0000
  C   C27       1.0  0.15794  0.42203  0.15556  1.0000
  H   H22       1.0  0.16034  0.43881  0.07199  1.0000
  H   H23       1.0  0.01979  0.42157  0.10159  1.0000
  H   H24       1.0  0.26156  0.43138  0.01341  1.0000
  H   H25       1.0  0.16637  0.42884  0.10218  1.0000
  H   H26       1.0  0.18997  0.42512  0.07749  1.0000
  H   H27       1.0  0.24015  0.41080  0.08461  1.0000
  H   H28       1.0  0.15911  0.40245  0.13316  1.0000
  C   C28       1.0  0.22832  0.41620  0.09358  1.0000
  C   C29       1.0  0.17140  0.41529  0.10041  1.0000
  H   H29       1.0  0.19651  0.37848  0.12199  1.0000
  H   H30       1.0  0.14516  0.33718  0.06043  1.0000
  C   C30       1.0  0.29651  0.41080  0.02765  1.0000
  C   C31       1.0  0.21502  0.40509  0.09780  1.0000
  H   H31       1.0  0.22109  0.39160  0.10383  1.0000
  H   H32       1.0  0.06434  0.44676  0.12556  1.0000
  C   C32       1.0  0.29425  0.46716  0.01796  1.0000
  H   H33       1.0  0.08055  0.45622  0.14227  1.0000
  H   H34       1.0  0.02046  0.42177  0.05033  1.0000
  C   C33       1.0  0.16742  0.42346  0.13651  1.0000
  C   C34       1.0  0.26878  0.46193  0.01212  1.0000
  H   H35       1.0  0.14495  0.39472  0.03995  1.0000
  H   H36       1.0  0.05266  0.41502  0.14714  1.0000
  H   H37       1.0  0.17850  0.39572  0.14136  1.0000
  H   H38       1.0  0.25528  0.46781  0.01019  1.0000
  H   H39       1.0  0.26719  0.45336  0.02541  1.0000
  N   N2        1.0  0.18258  0.40472  0.11330  1.0000
  H   H40       1.0  0.03051  0.46282  0.19562  1.0000
  H   H41       1.0  0.12788  0.42468  0.13134  1.0000
  H   H42       1.0  0.99597  0.41340  0.18440  1.0000
  H   H43       1.0  0.01945  0.47874  0.04178  1.0000
  H   H44       1.0  0.15273  0.36508  0.04256  1.0000
  C   C35       1.0  0.01420  0.46012  0.09653  1.0000
  H   H45       1.0  0.05585  0.45458  0.08011  1.0000
  C   C36       1.0  0.99595  0.39638  0.16756  1.0000
  H   H46       1.0  0.17520  0.45745  0.10457  1.0000
  H   H47       1.0  0.00334  0.43761  0.12669  1.0000
  H   H48       1.0  0.01040  0.48053  0.15234  1.0000
  H   H49       1.0  0.11432  0.46197  0.21445  1.0000
  H   H50       1.0  0.25468  0.44612  0.99431  1.0000
  C   C37       1.0  0.01790  0.44281  0.06261  1.0000
  C   C38       1.0  0.21799  0.45583  0.03145  1.0000
  H   H51       1.0  0.02671  0.36330  0.18607  1.0000
  C   C39       1.0  0.14113  0.45217  0.21393  1.0000
  C   C40       1.0  0.06280  0.47799  0.07952  1.0000
  C   C41       1.0  0.26695  0.33978  0.99849  1.0000
  H   H52       1.0  0.30311  0.45829  0.00971  1.0000
  H   H53       1.0  0.15664  0.41837  0.04126  1.0000
  H   H54       1.0  0.16797  0.38794  0.03845  1.0000
  C   C42       1.0  0.02898  0.42805  0.05377  1.0000
  C   C43       1.0  0.06002  0.44425  0.16071  1.0000
  C   C44       1.0  0.11995  0.44741  0.11193  1.0000
  H   H55       1.0  0.26709  0.34759  0.00749  1.0000
  H   H56       1.0  0.31660  0.38441  0.99178  1.0000
  C   C45       1.0  0.21303  0.47025  0.00244  1.0000
  H   H57       1.0  0.15956  0.41022  0.10287  1.0000
  H   H58       1.0  0.03908  0.45534  0.05638  1.0000
  C   C46       1.0  0.05803  0.46044  0.18302  1.0000
  H   H59       1.0  0.12904  0.47151  0.03802  1.0000
  C   C47       1.0  0.06017  0.45957  0.12910  1.0000
  C   C48       1.0  0.01849  0.37368  0.15503  1.0000
  H   H60       1.0  0.10991  0.47198  0.09590  1.0000
  C   C49       1.0  0.12270  0.43858  0.12857  1.0000
  C   C50       1.0  0.18033  0.41694  0.08097  1.0000
  C   C51       1.0  0.27789  0.44969  0.99937  1.0000
  H   H61       1.0  0.08959  0.44818  0.16812  1.0000
  H   H62       1.0  0.99315  0.36637  0.16249  1.0000
  H   H63       1.0  0.03719  0.44072  0.07682  1.0000
  H   H64       1.0  0.15378  0.35945  0.99830  1.0000
  H   H65       1.0  0.15776  0.41783  0.07150  1.0000
  H   H66       1.0  0.04309  0.36072  0.09553  1.0000
  H   H67       1.0  0.17915  0.42829  0.13497  1.0000
  H   H68       1.0  0.15883  0.43342  0.12845  1.0000
  H   H69       1.0  0.27339  0.40192  0.03079  1.0000
  H   H70       1.0  0.99538  0.38805  0.20372  1.0000
  C   C52       1.0  0.19830  0.41206  0.11059  1.0000
  C   C53       1.0  0.14900  0.48564  0.05121  1.0000
  H   H71       1.0  0.17926  0.34960  0.00864  1.0000
  H   H72       1.0  0.14606  0.41712  0.15796  1.0000
  H   H73       1.0  0.12346  0.45588  0.05786  1.0000
  H   H74       1.0  0.12893  0.43027  0.22008  1.0000
  C   C54       1.0  0.02045  0.38175  0.09685  1.0000
  H   H75       1.0  0.14584  0.45451  0.04691  1.0000
  H   H76       1.0  0.14368  0.43300  0.19905  1.0000
  H   H77       1.0  0.01049  0.45230  0.05314  1.0000
  C   C55       1.0  0.11938  0.44789  0.14148  1.0000
  N   N3        1.0  0.06398  0.44308  0.17799  1.0000
  C   C56       1.0  0.08336  0.43738  0.17636  1.0000
  H   H78       1.0  0.15410  0.43503  0.15874  1.0000
  C   C57       1.0  0.30490  0.47959  0.01889  1.0000
  C   C58       1.0  0.05471  0.43030  0.19179  1.0000
  C   C59       1.0  0.05943  0.41169  0.18860  1.0000
  C   C60       1.0  0.08982  0.43134  0.19368  1.0000
  H   H79       1.0  0.20250  0.40923  0.12314  1.0000
  H   H80       1.0  0.19121  0.35475  0.10439  1.0000
  C   C61       1.0  0.05142  0.39909  0.20428  1.0000
  C   C62       1.0  0.10932  0.42975  0.19030  1.0000
  H   H81       1.0  0.03360  0.43930  0.23055  1.0000
  H   H82       1.0  0.23196  0.41633  0.10563  1.0000
  H   H83       1.0  0.08901  0.42661  0.16931  1.0000
  H   H84       1.0  0.17044  0.35052  0.11658  1.0000
  H   H85       1.0  0.21253  0.40477  0.08531  1.0000
  H   H86       1.0  0.06018  0.45910  0.19620  1.0000
  H   H87       1.0  0.05697  0.42950  0.20480  1.0000
  H   H88       1.0  0.04043  0.43480  0.19299  1.0000
  H   H89       1.0  0.07360  0.40665  0.18598  1.0000
  H   H90       1.0  0.05455  0.41159  0.17729  1.0000
  H   H91       1.0  0.08347  0.44048  0.20239  1.0000
  H   H92       1.0  0.08717  0.41837  0.20071  1.0000
  C   C63       1.0  0.17861  0.36188  0.01223  1.0000
  H   H93       1.0  0.18649  0.35037  0.12788  1.0000
  H   H94       1.0  0.21121  0.44385  0.01479  1.0000
  C   C64       1.0  0.17185  0.40563  0.13140  1.0000
  H   H95       1.0  0.03712  0.40365  0.20742  1.0000
  H   H96       1.0  0.05456  0.38606  0.20129  1.0000
  H   H97       1.0  0.05677  0.39778  0.21577  1.0000
  H   H98       1.0  0.11389  0.42383  0.20263  1.0000
  H   H99       1.0  0.11630  0.42125  0.18105  1.0000
  H   H100      1.0  0.11246  0.44276  0.18498  1.0000
  C   C65       1.0  0.18094  0.35678  0.11610  1.0000
  H   H101      1.0  0.03220  0.36615  0.15409  1.0000
  C   C66       1.0  0.17354  0.37615  0.11550  1.0000
  C   C67       1.0  0.18820  0.38579  0.11236  1.0000
  H   H102      1.0  0.16638  0.38155  0.10479  1.0000
  H   H103      1.0  0.17420  0.42777  0.05544  1.0000
  H   H104      1.0  0.17129  0.41744  0.02049  1.0000
  C   C68       1.0  0.03960  0.42033  0.14403  1.0000
  H   H105      1.0  0.04098  0.42849  0.13060  1.0000
  C   C69       1.0  0.06619  0.45877  0.14544  1.0000
  H   H106      1.0  0.12187  0.48426  0.06377  1.0000
  H   H107      1.0  0.03135  0.42871  0.15302  1.0000
  H   H108      1.0  0.28113  0.34554  0.03845  1.0000
  C   C70       1.0  0.03143  0.40540  0.14535  1.0000
  C   C71       1.0  0.21387  0.45548  0.01611  1.0000
  H   H109      1.0  0.01744  0.39015  0.20012  1.0000
  H   H110      1.0  0.12713  0.46359  0.19291  1.0000
  H   H111      1.0  0.06597  0.46902  0.11801  1.0000
  H   H112      1.0  0.11504  0.47971  0.23231  1.0000
  H   H113      1.0  0.01947  0.41085  0.14009  1.0000
  C   C72       1.0  0.15329  0.37289  0.99900  1.0000
  S   S17       1.0  0.00230  0.43346  0.22576  1.0000
  H   H114      1.0  0.04055  0.39684  0.13686  1.0000
  C   C73       1.0  0.11281  0.46527  0.10852  1.0000
  C   C74       1.0  0.14139  0.43388  0.21281  1.0000
  C   C75       1.0  0.26614  0.43816  0.99980  1.0000
  C   C76       1.0  0.00576  0.47834  0.06916  1.0000
  H   H115      1.0  0.04583  0.46383  0.13113  1.0000
  H   H116      1.0  0.21124  0.34097  0.03568  1.0000
  C   C77       1.0  0.00273  0.47033  0.15689  1.0000
  C   C78       1.0  0.21608  0.48551  0.00411  1.0000
  H   H117      1.0  0.01790  0.38212  0.14178  1.0000
  H   H118      1.0  0.17177  0.39527  0.00505  1.0000
  H   H119      1.0  0.13940  0.34622  0.02313  1.0000
  H   H120      1.0  0.00804  0.37371  0.22968  1.0000
  C   C79       1.0  0.03382  0.47676  0.07496  1.0000
  H   H121      1.0  0.29140  0.45848  0.03107  1.0000
  C   C80       1.0  0.04927  0.46706  0.08408  1.0000
  C   C81       1.0  0.00705  0.36053  0.15820  1.0000
  H   H122      1.0  0.04475  0.46424  0.09845  1.0000
  C   C82       1.0  0.32106  0.46943  0.02609  1.0000
  H   H123      1.0  0.15191  0.46382  0.10748  1.0000
  N   N4        1.0  0.27791  0.47581  0.01110  1.0000
  C   C83       1.0  0.12637  0.46572  0.20600  1.0000
  H   H124      1.0  0.19057  0.36883  0.02939  1.0000
  N   N5        1.0  0.16029  0.37269  0.01433  1.0000
  H   H125      1.0  0.28066  0.34578  0.06053  1.0000
  H   H126      1.0  0.17878  0.47967  0.07748  1.0000
  H   H127      1.0  0.25344  0.33877  0.99985  1.0000
  H   H128      1.0  0.00349  0.36532  0.13186  1.0000
  C   C84       1.0  0.22042  0.47127  0.03343  1.0000
  C   C85       1.0  0.99239  0.41440  0.17202  1.0000
  H   H129      1.0  0.29005  0.44124  0.00304  1.0000
  H   H130      1.0  0.30932  0.35289  0.02805  1.0000
  H   H131      1.0  0.21342  0.34889  0.01249  1.0000
  C   C86       1.0  0.02941  0.45129  0.06834  1.0000
  H   H132      1.0  0.04029  0.38546  0.16661  1.0000
  H   H133      1.0  0.04593  0.44560  0.16197  1.0000
  H   H134      1.0  0.22331  0.47165  0.04540  1.0000
  C   C87       1.0  0.14692  0.34634  0.03246  1.0000
  H   H135      1.0  0.02395  0.44885  0.10196  1.0000
  H   H136      1.0  0.02492  0.40328  0.17335  1.0000
  H   H137      1.0  0.00536  0.46443  0.18326  1.0000
  H   H138      1.0  0.00867  0.43710  0.07376  1.0000
  C   C88       1.0  0.02777  0.39457  0.16431  1.0000
  C   C89       1.0  0.00918  0.38103  0.20180  1.0000
  C   C90       1.0  0.20467  0.34382  0.02470  1.0000
  C   C91       1.0  0.26112  0.48108  0.04161  1.0000
  H   H139      1.0  0.06611  0.46964  0.17431  1.0000
  H   H140      1.0  0.31246  0.32964  0.07935  1.0000
  H   H141      1.0  0.03673  0.41798  0.06266  1.0000
  N   N6        1.0  0.02055  0.46636  0.07713  1.0000
  C   C92       1.0  0.31364  0.41064  0.01855  1.0000
  N   N7        1.0  0.01375  0.38466  0.16836  1.0000
  C   C93       1.0  0.13324  0.46363  0.05022  1.0000
  H   H142      1.0  0.00068  0.40522  0.09791  1.0000
  S   S18       1.0  0.00652  0.36993  0.09493  1.0000
  H   H143      1.0  0.03788  0.43310  0.04168  1.0000
  C   C94       1.0  0.01380  0.37248  0.18605  1.0000
  H   H144      1.0  0.01304  0.47043  0.10345  1.0000
  H   H145      1.0  0.14887  0.40038  0.00819  1.0000
  H   H146      1.0  0.13893  0.45197  0.22798  1.0000
  C   C95       1.0  0.18753  0.35714  0.02783  1.0000
  C   C96       1.0  0.28267  0.48575  0.99259  1.0000
  H   H147      1.0  0.03427  0.46888  0.17219  1.0000
  H   H148      1.0  0.13523  0.37353  0.03181  1.0000
  H   H149      1.0  0.21792  0.37527  0.98692  1.0000
  H   H150      1.0  0.09134  0.47846  0.20538  1.0000
  H   H151      1.0  0.15346  0.48222  0.19718  1.0000
  C   C97       1.0  0.14857  0.36511  0.03074  1.0000
  H   H152      1.0  0.14812  0.42398  0.02190  1.0000
  H   H153      1.0  0.12456  0.34776  0.05426  1.0000
  H   H154      1.0  0.17951  0.35127  0.04013  1.0000
  C   C98       1.0  0.00909  0.35438  0.14169  1.0000
  H   H155      1.0  0.13934  0.37973  0.00063  1.0000
  H   H156      1.0  0.15193  0.42432  0.21874  1.0000
  C   C99       1.0  0.15776  0.39618  0.03142  1.0000
  C   C100      1.0  0.10895  0.47442  0.12164  1.0000
  H   H157      1.0  0.01148  0.45787  0.15443  1.0000
  H   H158      1.0  0.99453  0.46855  0.20896  1.0000
  C   C101      1.0  0.03860  0.46932  0.18367  1.0000
  C   C102      1.0  0.13734  0.33896  0.05070  1.0000
  H   H159      1.0  0.30803  0.37202  0.04529  1.0000
  H   H160      1.0  0.15980  0.33742  0.03003  1.0000
  H   H161      1.0  0.15405  0.45481  0.20714  1.0000
  H   H162      1.0  0.13517  0.32609  0.05124  1.0000
  H   H163      1.0  0.20231  0.33146  0.02389  1.0000
  H   H164      1.0  0.31718  0.38885  0.05508  1.0000
  S   S19       1.0  0.20134  0.41138  0.98790  1.0000
  H   H165      1.0  0.03227  0.47113  0.22798  1.0000
  H   H166      1.0  0.27491  0.32652  0.00232  1.0000
  H   H167      1.0  0.99987  0.42304  0.16159  1.0000
  C   C103      1.0  0.30528  0.34816  0.04233  1.0000
  H   H168      1.0  0.18722  0.36872  0.00109  1.0000
  H   H169      1.0  0.31744  0.46175  0.03954  1.0000
  H   H170      1.0  0.02521  0.35995  0.21752  1.0000
  H   H171      1.0  0.07374  0.47065  0.08607  1.0000
  C   C104      1.0  0.31164  0.35811  0.05192  1.0000
  H   H172      1.0  0.16632  0.46537  0.07636  1.0000
  H   H173      1.0  0.05414  0.47420  0.22133  1.0000
  H   H174      1.0  0.27969  0.36568  0.04386  1.0000
  H   H175      1.0  0.06804  0.48097  0.06526  1.0000
  H   H176      1.0  0.30354  0.35726  0.06534  1.0000
  H   H177      1.0  0.14930  0.47409  0.22739  1.0000
  H   H178      1.0  0.27332  0.42828  0.99200  1.0000
  H   H179      1.0  0.06099  0.47174  0.14858  1.0000
  H   H180      1.0  0.02296  0.34935  0.13618  1.0000
  C   C105      1.0  0.99631  0.45508  0.10282  1.0000
  H   H181      1.0  0.03958  0.48116  0.06095  1.0000
  C   C106      1.0  0.99244  0.44811  0.12254  1.0000
  H   H182      1.0  0.27278  0.47692  0.04737  1.0000
  H   H183      1.0  0.99249  0.47390  0.14925  1.0000
  H   H184      1.0  0.13779  0.46707  0.07347  1.0000
  C   C107      1.0  0.16607  0.47593  0.08238  1.0000
  H   H185      1.0  0.31023  0.33393  0.04589  1.0000
  S   S20       1.0  0.10974  0.47755  0.15378  1.0000
  C   C108      1.0  0.32094  0.40094  0.00573  1.0000
  H   H186      1.0  0.99566  0.47129  0.07033  1.0000
  C   C109      1.0  0.13472  0.47539  0.06098  1.0000
  H   H187      1.0  0.00293  0.35814  0.22140  1.0000
  H   H188      1.0  0.16164  0.47611  0.04922  1.0000
  C   C110      1.0  0.04189  0.47615  0.23122  1.0000
  H   H189      1.0  0.32461  0.36079  0.07704  1.0000
  C   C111      1.0  0.16413  0.46852  0.10200  1.0000
  H   H190      1.0  0.01095  0.34890  0.16839  1.0000
  H   H191      1.0  0.16396  0.47861  0.10868  1.0000
  C   C112      1.0  0.99461  0.46836  0.17632  1.0000
  H   H192      1.0  0.00204  0.34389  0.14460  1.0000
  H   H193      1.0  0.99324  0.39921  0.15430  1.0000
  H   H194      1.0  0.99568  0.44494  0.09686  1.0000
  H   H195      1.0  0.28120  0.45679  0.98568  1.0000
  H   H196      1.0  0.32360  0.38898  0.08292  1.0000
  H   H197      1.0  0.14347  0.48565  0.17963  1.0000
  H   H198      1.0  0.29370  0.47769  0.98499  1.0000
  H   H199      1.0  0.07817  0.34322  0.36369  1.0000
  Fe  Fe9       1.0  0.20671  0.04120  0.36481  1.0000
  S   S21       1.0  0.22512  0.05531  0.36745  1.0000
  S   S22       1.0  0.18952  0.05296  0.34548  1.0000
  H   H200      1.0  0.23993  0.11329  0.36625  1.0000
  C   C113      1.0  0.20706  0.13213  0.36891  1.0000
  H   H201      1.0  0.18795  0.07688  0.44446  1.0000
  Fe  Fe10      1.0  0.21645  0.04495  0.39606  1.0000
  S   S23       1.0  0.20977  0.06443  0.41251  1.0000
  Fe  Fe11      1.0  0.24438  0.02984  0.36846  1.0000
  S   S24       1.0  0.27219  0.02593  0.35423  1.0000
  S   S25       1.0  0.19639  0.03281  0.39340  1.0000
  S   S26       1.0  0.22690  0.01661  0.36283  1.0000
  Fe  Fe12      1.0  0.09905  0.42446  0.25592  1.0000
  C   C114      1.0  0.07796  0.34649  0.30079  1.0000
  Fe  Fe13      1.0  0.08336  0.39357  0.26181  1.0000
  S   S27       1.0  0.10857  0.37423  0.26322  1.0000
  S   S28       1.0  0.05952  0.38382  0.26586  1.0000
  Fe  Fe14      1.0  0.11206  0.39007  0.27978  1.0000
  S   S29       1.0  0.11863  0.37919  0.30651  1.0000
  S   S30       1.0  0.08585  0.40818  0.27983  1.0000
  H   H202      1.0  0.00776  0.21798  0.43171  1.0000
  H   H203      1.0  0.18949  0.12111  0.40215  1.0000
  Fe  Fe15      1.0  0.09326  0.27647  0.40151  1.0000
  S   S31       1.0  0.10573  0.29939  0.38988  1.0000
  S   S32       1.0  0.06573  0.27830  0.41626  1.0000
  Fe  Fe16      1.0  0.12491  0.25066  0.38799  1.0000
  S   S33       1.0  0.14030  0.27104  0.37524  1.0000
  S   S34       1.0  0.13615  0.22336  0.38468  1.0000
  Fe  Fe17      1.0  0.12870  0.28081  0.39978  1.0000
  S   S35       1.0  0.14629  0.28609  0.41337  1.0000
  Fe  Fe18      1.0  0.11611  0.28755  0.36642  1.0000
  S   S36       1.0  0.11659  0.29998  0.33801  1.0000
  S   S37       1.0  0.11529  0.25889  0.41338  1.0000
  S   S38       1.0  0.10169  0.26614  0.37729  1.0000
  Fe  Fe19      1.0  0.08949  0.11608  0.39804  1.0000
  S   S39       1.0  0.08643  0.13036  0.41857  1.0000
  S   S40       1.0  0.07040  0.09956  0.40255  1.0000
  Fe  Fe20      1.0  0.12229  0.12749  0.37747  1.0000
  S   S41       1.0  0.12231  0.14265  0.39617  1.0000
  S   S42       1.0  0.14283  0.12692  0.35309  1.0000
  Fe  Fe21      1.0  0.11488  0.11997  0.41667  1.0000
  S   S43       1.0  0.12602  0.11073  0.44063  1.0000
  Fe  Fe22      1.0  0.09390  0.15207  0.39654  1.0000
  S   S44       1.0  0.08008  0.17967  0.39805  1.0000
  S   S45       1.0  0.11753  0.10371  0.39798  1.0000
  S   S46       1.0  0.09430  0.13880  0.37592  1.0000
  C   C115      1.0  0.03632  0.11628  0.36255  1.0000
  C   C116      1.0  0.03015  0.10785  0.37963  1.0000
  C   C117      1.0  0.04087  0.10228  0.39178  1.0000
  C   C118      1.0  0.05737  0.10596  0.38712  1.0000
  C   C119      1.0  0.06340  0.11455  0.37012  1.0000
  C   C120      1.0  0.05311  0.11918  0.35771  1.0000
  H   H204      1.0  0.02711  0.48350  0.26481  1.0000
  H   H205      1.0  0.03627  0.09541  0.40489  1.0000
  H   H206      1.0  0.07605  0.11751  0.36651  1.0000
  H   H207      1.0  0.05794  0.12552  0.34445  1.0000
  C   C121      1.0  0.12004  0.21211  0.38750  1.0000
  C   C122      1.0  0.12414  0.19750  0.38043  1.0000
  C   C123      1.0  0.11166  0.18792  0.38315  1.0000
  C   C124      1.0  0.09517  0.19263  0.39331  1.0000
  C   C125      1.0  0.09084  0.20760  0.39992  1.0000
  C   C126      1.0  0.10324  0.21745  0.39686  1.0000
  H   H208      1.0  0.13696  0.19363  0.37275  1.0000
  H   H209      1.0  0.11481  0.17694  0.37724  1.0000
  H   H210      1.0  0.07810  0.21131  0.40775  1.0000
  H   H211      1.0  0.09993  0.22893  0.40209  1.0000
  C   C127      1.0  0.03346  0.29731  0.37459  1.0000
  C   C128      1.0  0.05075  0.29857  0.37045  1.0000
  C   C129      1.0  0.06033  0.29330  0.38346  1.0000
  C   C130      1.0  0.05277  0.28670  0.40067  1.0000
  C   C131      1.0  0.03526  0.28602  0.40500  1.0000
  C   C132      1.0  0.02559  0.29126  0.39193  1.0000
  H   H212      1.0  0.05696  0.30300  0.35707  1.0000
  H   H213      1.0  0.07369  0.29418  0.38012  1.0000
  H   H214      1.0  0.02932  0.28105  0.41832  1.0000
  H   H215      1.0  0.24082  0.09409  0.35922  1.0000
  C   C133      1.0  0.12003  0.31662  0.45580  1.0000
  C   C134      1.0  0.11426  0.32151  0.44014  1.0000
  C   C135      1.0  0.12163  0.31152  0.42751  1.0000
  C   C136      1.0  0.13557  0.29735  0.42998  1.0000
  C   C137      1.0  0.14169  0.29278  0.44540  1.0000
  C   C138      1.0  0.13368  0.30216  0.45847  1.0000
  H   H216      1.0  0.10381  0.33276  0.43800  1.0000
  H   H217      1.0  0.11687  0.31498  0.41568  1.0000
  H   H218      1.0  0.15252  0.28184  0.44734  1.0000
  C   C139      1.0  0.06546  0.35297  0.44197  1.0000
  H   H219      1.0  0.04958  0.16832  0.33699  1.0000
  C   C140      1.0  0.12196  0.14158  0.47273  1.0000
  C   C141      1.0  0.12737  0.12763  0.46443  1.0000
  C   C142      1.0  0.12078  0.12865  0.45008  1.0000
  C   C143      1.0  0.10947  0.14392  0.44359  1.0000
  C   C144      1.0  0.10374  0.15762  0.45216  1.0000
  H   H220      1.0  0.05825  0.27604  0.34819  1.0000
  H   H221      1.0  0.13653  0.11607  0.46921  1.0000
  H   H222      1.0  0.10468  0.14512  0.43224  1.0000
  H   H223      1.0  0.09433  0.16896  0.44751  1.0000
  C   C145      1.0  0.11893  0.35698  0.31529  1.0000
  C   C146      1.0  0.11477  0.35083  0.33341  1.0000
  C   C147      1.0  0.11453  0.33318  0.34060  1.0000
  C   C148      1.0  0.11833  0.32171  0.32967  1.0000
  C   C149      1.0  0.12282  0.32779  0.31162  1.0000
  C   C150      1.0  0.12315  0.34536  0.30443  1.0000
  H   H224      1.0  0.11118  0.35986  0.34181  1.0000
  H   H225      1.0  0.11071  0.32853  0.35450  1.0000
  H   H226      1.0  0.12600  0.31887  0.30314  1.0000
  H   H227      1.0  0.12673  0.34990  0.29048  1.0000
  H   H228      1.0  0.06132  0.26159  0.31621  1.0000
  H   H229      1.0  0.21614  0.10239  0.39288  1.0000
  C   C151      1.0  0.00858  0.25855  0.44695  1.0000
  H   H230      1.0  0.01787  0.46938  0.25912  1.0000
  H   H231      1.0  0.18192  0.14615  0.38174  1.0000
  C   C152      1.0  0.02966  0.43958  0.28010  1.0000
  C   C153      1.0  0.23718  0.10011  0.37063  1.0000
  H   H232      1.0  0.28395  0.01613  0.40888  1.0000
  C   C154      1.0  0.17641  0.07330  0.34814  1.0000
  C   C155      1.0  0.17016  0.07720  0.36463  1.0000
  C   C156      1.0  0.15939  0.09353  0.36636  1.0000
  C   C157      1.0  0.15547  0.10612  0.35155  1.0000
  C   C158      1.0  0.16194  0.10225  0.33512  1.0000
  C   C159      1.0  0.17203  0.08574  0.33347  1.0000
  H   H233      1.0  0.17348  0.06758  0.37602  1.0000
  H   H234      1.0  0.15455  0.09656  0.37905  1.0000
  H   H235      1.0  0.15895  0.11196  0.32366  1.0000
  H   H236      1.0  0.17686  0.08276  0.32072  1.0000
  C   C160      1.0  0.15590  0.33580  0.40163  1.0000
  C   C161      1.0  0.27761  0.04463  0.37438  1.0000
  C   C162      1.0  0.28516  0.03292  0.36350  1.0000
  C   C163      1.0  0.03066  0.29960  0.44430  1.0000
  H   H237      1.0  0.14214  0.31109  0.36436  1.0000
  H   H238      1.0  0.26368  0.04919  0.37736  1.0000
  C   C164      1.0  0.16860  0.21846  0.43138  1.0000
  H   H239      1.0  0.05435  0.24946  0.40297  1.0000
  H   H240      1.0  0.04176  0.26333  0.37639  1.0000
  C   C165      1.0  0.01889  0.41980  0.23602  1.0000
  H   H241      1.0  0.19860  0.10401  0.32535  1.0000
  C   C166      1.0  0.22325  0.05958  0.42718  1.0000
  C   C167      1.0  0.19588  0.12330  0.34011  1.0000
  H   H242      1.0  0.22102  0.11125  0.34505  1.0000
  H   H243      1.0  0.01462  0.25262  0.32271  1.0000
  H   H244      1.0  0.07204  0.27721  0.31775  1.0000
  N   N8        1.0  0.06384  0.34842  0.31681  1.0000
  C   C168      1.0  0.04894  0.34099  0.31717  1.0000
  C   C169      1.0  0.08489  0.32790  0.29737  1.0000
  C   C170      1.0  0.04080  0.34831  0.30082  1.0000
  C   C171      1.0  0.09790  0.32804  0.27999  1.0000
  H   H245      1.0  0.16367  0.24343  0.41288  1.0000
  H   H246      1.0  0.03827  0.34344  0.32856  1.0000
  H   H247      1.0  0.05282  0.32657  0.31938  1.0000
  H   H248      1.0  0.04480  0.36985  0.32628  1.0000
  H   H249      1.0  0.05378  0.37476  0.30385  1.0000
  H   H250      1.0  0.07375  0.35531  0.28896  1.0000
  H   H251      1.0  0.07433  0.32238  0.29671  1.0000
  H   H252      1.0  0.03455  0.36233  0.29971  1.0000
  H   H253      1.0  0.05060  0.34685  0.28867  1.0000
  H   H254      1.0  0.05331  0.35496  0.35063  1.0000
  H   H255      1.0  0.09153  0.33599  0.26905  1.0000
  H   H256      1.0  0.10889  0.33348  0.27972  1.0000
  C   C172      1.0  0.08844  0.48082  0.26393  1.0000
  C   C173      1.0  0.01459  0.46480  0.29448  1.0000
  S   S47       1.0  0.10031  0.17243  0.47918  1.0000
  C   C174      1.0  0.11813  0.05390  0.39337  1.0000
  H   H257      1.0  0.14866  0.36511  0.37543  1.0000
  C   C175      1.0  0.11952  0.35530  0.38583  1.0000
  C   C176      1.0  0.15721  0.33150  0.35528  1.0000
  H   H258      1.0  0.05594  0.47114  0.25114  1.0000
  S   S48       1.0  0.25165  0.04881  0.47082  1.0000
  C   C177      1.0  0.10394  0.27026  0.47262  1.0000
  H   H259      1.0  0.01047  0.05825  0.41451  1.0000
  H   H260      1.0  0.08294  0.25599  0.44969  1.0000
  H   H261      1.0  0.19589  0.00541  0.48080  1.0000
  H   H262      1.0  0.00433  0.24277  0.30178  1.0000
  C   C178      1.0  0.07524  0.09606  0.45880  1.0000
  S   S49       1.0  0.00017  0.23049  0.35832  1.0000
  H   H263      1.0  0.24425  0.00285  0.43864  1.0000
  C   C179      1.0  0.24899  0.08898  0.38312  1.0000
  C   C180      1.0  0.08813  0.08527  0.44640  1.0000
  C   C181      1.0  0.04558  0.41495  0.24571  1.0000
  H   H264      1.0  0.15887  0.08389  0.46480  1.0000
  H   H265      1.0  0.28098  0.00461  0.43139  1.0000
  H   H266      1.0  0.01341  0.22952  0.47289  1.0000
  H   H267      1.0  0.09557  0.09854  0.46907  1.0000
  C   C182      1.0  0.23844  0.99126  0.44389  1.0000
  S   S50       1.0  0.31911  0.05307  0.38545  1.0000
  C   C183      1.0  0.16667  0.05532  0.44862  1.0000
  N   N9        1.0  0.02984  0.45754  0.28143  1.0000
  H   H268      1.0  0.05799  0.17317  0.35281  1.0000
  H   H269      1.0  0.07219  0.10967  0.45141  1.0000
  C   C184      1.0  0.04432  0.39779  0.25397  1.0000
  H   H270      1.0  0.02296  0.44045  0.26964  1.0000
  Fe  Fe23      1.0  0.00025  0.28867  0.36580  1.0000
  H   H271      1.0  0.07829  0.32125  0.36391  1.0000
  H   H272      1.0  0.01578  0.11497  0.42183  1.0000
  C   C185      1.0  0.16648  0.15778  0.47437  1.0000
  H   H273      1.0  0.09143  0.07140  0.45319  1.0000
  H   H274      1.0  0.08228  0.08611  0.43541  1.0000
  H   H275      1.0  0.10017  0.09027  0.44099  1.0000
  N   N10       1.0  0.11319  0.06807  0.36199  1.0000
  C   C186      1.0  0.13088  0.05922  0.35333  1.0000
  C   C187      1.0  0.04512  0.28695  0.31741  1.0000
  C   C188      1.0  0.10054  0.05687  0.36481  1.0000
  C   C189      1.0  0.10671  0.08556  0.35085  1.0000
  H   H276      1.0  0.18771  0.09898  0.40771  1.0000
  C   C190      1.0  0.13272  0.05755  0.33448  1.0000
  H   H277      1.0  0.00655  0.14590  0.39758  1.0000
  C   C191      1.0  0.19982  0.11763  0.32294  1.0000
  C   C192      1.0  0.15133  0.04895  0.32703  1.0000
  H   H278      1.0  0.13476  0.04578  0.36103  1.0000
  H   H279      1.0  0.14098  0.06588  0.35322  1.0000
  C   C193      1.0  0.19064  0.14727  0.36869  1.0000
  H   H280      1.0  0.24692  0.09498  0.39429  1.0000
  H   H281      1.0  0.10577  0.04323  0.37125  1.0000
  H   H282      1.0  0.09884  0.05603  0.35209  1.0000
  H   H283      1.0  0.10344  0.08407  0.33911  1.0000
  H   H284      1.0  0.09437  0.09235  0.35805  1.0000
  H   H285      1.0  0.15854  0.13130  0.40065  1.0000
  H   H286      1.0  0.08932  0.35087  0.30142  1.0000
  H   H287      1.0  0.12415  0.04942  0.33420  1.0000
  H   H288      1.0  0.12946  0.07043  0.32566  1.0000
  H   H289      1.0  0.26276  0.08786  0.37617  1.0000
  H   H290      1.0  0.21239  0.13215  0.38003  1.0000
  H   H291      1.0  0.07244  0.35582  0.45033  1.0000
  H   H292      1.0  0.18301  0.14742  0.35942  1.0000
  H   H293      1.0  0.15536  0.03585  0.33526  1.0000
  H   H294      1.0  0.15232  0.04753  0.31369  1.0000
  H   H295      1.0  0.16039  0.05703  0.32627  1.0000
  N   N11       1.0  0.06904  0.24872  0.34941  1.0000
  C   C194      1.0  0.06592  0.24477  0.36913  1.0000
  C   C195      1.0  0.08738  0.25130  0.34237  1.0000
  C   C196      1.0  0.06755  0.23368  0.34316  1.0000
  C   C197      1.0  0.04909  0.23233  0.34323  1.0000
  C   C198      1.0  0.10176  0.23608  0.34919  1.0000
  C   C199      1.0  0.04699  0.24916  0.37939  1.0000
  C   C200      1.0  0.04592  0.24345  0.39905  1.0000
  C   C201      1.0  0.04991  0.21716  0.33552  1.0000
  C   C202      1.0  0.11975  0.23978  0.34078  1.0000
  H   H296      1.0  0.07151  0.23085  0.37437  1.0000
  H   H297      1.0  0.07286  0.25229  0.37325  1.0000
  H   H298      1.0  0.08860  0.26329  0.34533  1.0000
  H   H299      1.0  0.09080  0.25338  0.32793  1.0000
  H   H300      1.0  0.07511  0.23396  0.32957  1.0000
  H   H301      1.0  0.07366  0.22108  0.35096  1.0000
  H   H302      1.0  0.04209  0.24422  0.33539  1.0000
  H   H303      1.0  0.04128  0.22998  0.35655  1.0000
  H   H304      1.0  0.10148  0.22375  0.34640  1.0000
  H   H305      1.0  0.10011  0.23418  0.36341  1.0000
  H   H306      1.0  0.03835  0.24305  0.37616  1.0000
  H   H307      1.0  0.03236  0.24764  0.40600  1.0000
  H   H308      1.0  0.05703  0.20481  0.34267  1.0000
  H   H309      1.0  0.03655  0.21585  0.33659  1.0000
  H   H310      1.0  0.05646  0.21944  0.32155  1.0000
  H   H311      1.0  0.12081  0.25186  0.34356  1.0000
  H   H312      1.0  0.12972  0.22885  0.34621  1.0000
  H   H313      1.0  0.12248  0.24115  0.32647  1.0000
  N   N12       1.0  0.14683  0.19826  0.44094  1.0000
  C   C203      1.0  0.12779  0.19898  0.44845  1.0000
  C   C204      1.0  0.15705  0.18697  0.45446  1.0000
  C   C205      1.0  0.14953  0.21649  0.43730  1.0000
  C   C206      1.0  0.15321  0.19179  0.42421  1.0000
  C   C207      1.0  0.14358  0.17920  0.42163  1.0000
  C   C208      1.0  0.11536  0.21297  0.43764  1.0000
  H   H314      1.0  0.13167  0.09272  0.33748  1.0000
  C   C209      1.0  0.11893  0.09834  0.34497  1.0000
  C   C210      1.0  0.15369  0.17089  0.40628  1.0000
  C   C211      1.0  0.09763  0.20873  0.44152  1.0000
  H   H315      1.0  0.12417  0.20157  0.46178  1.0000
  H   H316      1.0  0.12474  0.18622  0.45044  1.0000
  H   H317      1.0  0.17117  0.18616  0.44924  1.0000
  C   C212      1.0  0.28814  0.05080  0.38102  1.0000
  H   H318      1.0  0.30406  0.99595  0.46628  1.0000
  H   H319      1.0  0.14282  0.22520  0.42683  1.0000
  H   H320      1.0  0.15248  0.20287  0.41268  1.0000
  H   H321      1.0  0.16725  0.18544  0.42261  1.0000
  H   H322      1.0  0.13067  0.18641  0.41884  1.0000
  H   H323      1.0  0.14140  0.16855  0.43320  1.0000
  H   H324      1.0  0.11345  0.22573  0.44082  1.0000
  H   H325      1.0  0.12080  0.21438  0.42350  1.0000
  H   H326      1.0  0.11119  0.43974  0.27719  1.0000
  H   H327      1.0  0.12418  0.35600  0.39699  1.0000
  H   H328      1.0  0.05595  0.40267  0.30902  1.0000
  H   H329      1.0  0.22426  0.08629  0.42341  1.0000
  H   H330      1.0  0.14582  0.16322  0.40382  1.0000
  H   H331      1.0  0.15654  0.18105  0.39432  1.0000
  H   H332      1.0  0.16603  0.16205  0.40919  1.0000
  H   H333      1.0  0.09182  0.20693  0.45565  1.0000
  H   H334      1.0  0.08894  0.21951  0.43424  1.0000
  H   H335      1.0  0.09885  0.19678  0.43717  1.0000
  H   H336      1.0  0.03183  0.15024  0.44680  1.0000
  H   H337      1.0  0.05046  0.39576  0.33249  1.0000
  H   H338      1.0  0.08374  0.34223  0.33144  1.0000
  C   C213      1.0  0.05703  0.26553  0.34284  1.0000
  C   C214      1.0  0.30320  0.02688  0.35982  1.0000
  H   H339      1.0  0.21707  0.13573  0.35710  1.0000
  H   H340      1.0  0.99308  0.08144  0.43040  1.0000
  H   H341      1.0  0.03604  0.32128  0.48076  1.0000
  H   H342      1.0  0.24494  0.99930  0.30661  1.0000
  H   H343      1.0  0.00285  0.07834  0.40005  1.0000
  H   H344      1.0  0.10313  0.31457  0.27803  1.0000
  H   H345      1.0  0.17421  0.06935  0.41194  1.0000
  H   H346      1.0  0.24114  0.08006  0.44621  1.0000
  S   S51       1.0  0.99264  0.28126  0.34516  1.0000
  H   H347      1.0  0.31249  0.99375  0.44438  1.0000
  C   C215      1.0  0.29292  0.02168  0.48265  1.0000
  H   H348      1.0  0.05756  0.05530  0.38580  1.0000
  H   H349      1.0  0.16043  0.08340  0.43662  1.0000
  C   C216      1.0  0.01778  0.40265  0.24418  1.0000
  H   H350      1.0  0.06959  0.04836  0.36607  1.0000
  H   H351      1.0  0.04325  0.26460  0.34777  1.0000
  H   H352      1.0  0.07474  0.37019  0.33164  1.0000
  C   C217      1.0  0.28096  0.01760  0.42254  1.0000
  C   C218      1.0  0.22810  0.07309  0.43055  1.0000
  H   H353      1.0  0.04896  0.33409  0.35372  1.0000
  H   H354      1.0  0.09152  0.31908  0.30779  1.0000
  C   C219      1.0  0.07076  0.05024  0.37857  1.0000
  H   H355      1.0  0.10767  0.04671  0.39692  1.0000
  H   H356      1.0  0.05595  0.36497  0.43755  1.0000
  H   H357      1.0  0.12533  0.34139  0.36590  1.0000
  C   C220      1.0  0.04594  0.19301  0.43988  1.0000
  C   C221      1.0  0.10332  0.47967  0.28618  1.0000
  C   C222      1.0  0.19542  0.16492  0.36394  1.0000
  H   H358      1.0  0.18342  0.17540  0.36438  1.0000
  H   H359      1.0  0.20260  0.16563  0.37332  1.0000
  H   H360      1.0  0.20351  0.16720  0.35056  1.0000
  H   H361      1.0  0.24641  0.07571  0.38816  1.0000
  C   C223      1.0  0.11461  0.07067  0.37901  1.0000
  H   H362      1.0  0.01686  0.40149  0.30593  1.0000
  H   H363      1.0  0.01675  0.41040  0.28312  1.0000
  H   H364      1.0  0.04956  0.15595  0.38344  1.0000
  H   H365      1.0  0.13455  0.36830  0.34834  1.0000
  H   H366      1.0  0.18199  0.12385  0.34603  1.0000
  H   H367      1.0  0.15770  0.31587  0.38910  1.0000
  H   H368      1.0  0.28017  0.04032  0.44422  1.0000
  H   H369      1.0  0.15701  0.34944  0.39905  1.0000
  C   C224      1.0  0.16868  0.07195  0.46891  1.0000
  C   C225      1.0  0.06118  0.39543  0.32081  1.0000
  C   C226      1.0  0.10948  0.15623  0.46715  1.0000
  Fe  Fe24      1.0  0.21807  0.00912  0.39177  1.0000
  H   H370      1.0  0.09273  0.36419  0.39828  1.0000
  C   C227      1.0  0.10079  0.35319  0.39229  1.0000
  C   C228      1.0  0.10966  0.46173  0.28743  1.0000
  H   H371      1.0  0.00683  0.22875  0.40942  1.0000
  H   H372      1.0  0.18958  0.08988  0.47549  1.0000
  C   C229      1.0  0.05719  0.36753  0.31660  1.0000
  C   C230      1.0  0.05948  0.34117  0.35045  1.0000
  H   H373      1.0  0.05004  0.45233  0.24924  1.0000
  S   S52       1.0  0.01446  0.11962  0.45566  1.0000
  S   S53       1.0  0.12568  0.40785  0.25708  1.0000
  C   C231      1.0  0.08200  0.06325  0.37524  1.0000
  C   C232      1.0  0.07137  0.33872  0.33259  1.0000
  H   H374      1.0  0.07082  0.40198  0.32191  1.0000
  H   H375      1.0  0.17582  0.21150  0.42086  1.0000
  C   C233      1.0  0.00238  0.11728  0.42861  1.0000
  C   C234      1.0  0.08283  0.09483  0.47461  1.0000
  H   H376      1.0  0.07541  0.07579  0.36787  1.0000
  H   H377      1.0  0.08221  0.06508  0.38807  1.0000
  H   H378      1.0  0.04998  0.22913  0.40307  1.0000
  C   C235      1.0  0.06994  0.37670  0.31948  1.0000
  C   C236      1.0  0.06985  0.33426  0.36484  1.0000
  H   H379      1.0  0.07504  0.32448  0.33325  1.0000
  H   H380      1.0  0.08132  0.37689  0.30846  1.0000
  H   H381      1.0  0.06089  0.33322  0.37780  1.0000
  H   H382      1.0  0.07636  0.03754  0.38652  1.0000
  C   C237      1.0  0.06004  0.27211  0.32275  1.0000
  H   H383      1.0  0.17537  0.30630  0.33583  1.0000
  C   C238      1.0  0.15410  0.35787  0.36490  1.0000
  H   H384      1.0  0.03416  0.28521  0.44657  1.0000
  H   H385      1.0  0.07489  0.34921  0.43034  1.0000
  H   H386      1.0  0.02221  0.24574  0.47537  1.0000
  H   H387      1.0  0.10276  0.07966  0.38447  1.0000
  H   H388      1.0  0.15637  0.10912  0.40511  1.0000
  H   H389      1.0  0.04409  0.29816  0.32291  1.0000
  H   H390      1.0  0.04749  0.29126  0.30300  1.0000
  N   N13       1.0  0.20462  0.11423  0.37020  1.0000
  C   C239      1.0  0.21782  0.10069  0.37948  1.0000
  C   C240      1.0  0.18295  0.11210  0.39993  1.0000
  H   H391      1.0  0.17114  0.01965  0.46624  1.0000
  H   H392      1.0  0.19836  0.13654  0.33678  1.0000
  C   C241      1.0  0.16357  0.11768  0.40714  1.0000
  H   H393      1.0  0.21316  0.11860  0.31562  1.0000
  H   H394      1.0  0.99185  0.17330  0.41738  1.0000
  H   H395      1.0  0.03264  0.28271  0.32211  1.0000
  C   C242      1.0  0.18693  0.11149  0.38038  1.0000
  H   H396      1.0  0.17649  0.12089  0.37421  1.0000
  H   H397      1.0  0.16125  0.11691  0.42131  1.0000
  C   C243      1.0  0.16150  0.30616  0.34155  1.0000
  H   H398      1.0  0.12912  0.32774  0.38599  1.0000
  H   H399      1.0  0.10002  0.34092  0.40225  1.0000
  H   H400      1.0  0.15988  0.29268  0.34403  1.0000
  C   C244      1.0  0.20759  0.11069  0.35239  1.0000
  H   H401      1.0  0.21571  0.08752  0.38106  1.0000
  C   C245      1.0  0.15571  0.31239  0.35859  1.0000
  H   H402      1.0  0.16415  0.30347  0.36744  1.0000
  S   S54       1.0  0.23729  0.02049  0.39740  1.0000
  H   H403      1.0  0.18545  0.09853  0.38008  1.0000
  H   H404      1.0  0.20625  0.09721  0.35369  1.0000
  H   H405      1.0  0.16785  0.31083  0.41658  1.0000
  H   H406      1.0  0.09536  0.35315  0.38129  1.0000
  H   H407      1.0  0.15359  0.31454  0.33198  1.0000
  C   C246      1.0  0.24168  0.05268  0.45337  1.0000
  C   C247      1.0  0.13112  0.34033  0.37698  1.0000
  C   C248      1.0  0.02297  0.40970  0.29384  1.0000
  H   H408      1.0  0.14266  0.33463  0.40893  1.0000
  C   C249      1.0  0.03652  0.15551  0.38247  1.0000
  C   C250      1.0  0.99812  0.11957  0.44567  1.0000
  H   H409      1.0  0.15022  0.33882  0.34460  1.0000
  C   C251      1.0  0.16014  0.32919  0.38470  1.0000
  C   C252      1.0  0.16823  0.32478  0.41365  1.0000
  N   N14       1.0  0.15027  0.33997  0.37073  1.0000
  H   H410      1.0  0.03692  0.40349  0.29057  1.0000
  S   S55       1.0  0.09140  0.45360  0.24989  1.0000
  H   H411      1.0  0.03963  0.17062  0.41846  1.0000
  H   H412      1.0  0.19049  0.12615  0.31482  1.0000
  C   C253      1.0  0.02915  0.46980  0.26382  1.0000
  H   H413      1.0  0.18172  0.32621  0.40756  1.0000
  H   H414      1.0  0.30907  0.01771  0.35152  1.0000
  H   H415      1.0  0.17112  0.33192  0.34981  1.0000
  H   H416      1.0  0.11918  0.36805  0.37644  1.0000
  H   H417      1.0  0.17436  0.32758  0.37931  1.0000
  H   H418      1.0  0.04755  0.47113  0.28425  1.0000
  C   C254      1.0  0.29956  0.03548  0.46686  1.0000
  C   C255      1.0  0.04931  0.21119  0.45866  1.0000
  C   C256      1.0  0.14766  0.36949  0.34828  1.0000
  H   H419      1.0  0.15661  0.36549  0.33649  1.0000
  H   H420      1.0  0.16836  0.35684  0.36218  1.0000
  H   H421      1.0  0.21322  0.00767  0.45155  1.0000
  C   C257      1.0  0.02072  0.42784  0.29661  1.0000
  C   C258      1.0  0.22805  0.04256  0.43652  1.0000
  H   H422      1.0  0.22424  0.03225  0.43384  1.0000
  H   H423      1.0  0.00066  0.37146  0.31913  1.0000
  H   H424      1.0  0.12537  0.07726  0.37682  1.0000
  H   H425      1.0  0.05399  0.15279  0.40953  1.0000
  H   H426      1.0  0.04312  0.43220  0.27590  1.0000
  C   C259      1.0  0.10584  0.45347  0.27654  1.0000
  H   H427      1.0  0.06063  0.15101  0.35198  1.0000
  H   H428      1.0  0.15911  0.16107  0.45051  1.0000
  C   C260      1.0  0.09542  0.46312  0.26460  1.0000
  C   C261      1.0  0.04643  0.45748  0.28606  1.0000
  H   H429      1.0  0.02590  0.42641  0.30815  1.0000
  H   H430      1.0  0.05465  0.14983  0.44028  1.0000
  H   H431      1.0  0.07798  0.31793  0.44690  1.0000
  H   H432      1.0  0.04899  0.18035  0.38957  1.0000
  H   H433      1.0  0.07700  0.32503  0.46561  1.0000
  C   C262      1.0  0.05430  0.29870  0.45935  1.0000
  C   C263      1.0  0.05169  0.16398  0.35053  1.0000
  H   H434      1.0  0.99541  0.06450  0.46069  1.0000
  C   C264      1.0  0.15501  0.16794  0.46128  1.0000
  H   H435      1.0  0.13764  0.39359  0.35746  1.0000
  C   C265      1.0  0.14708  0.38864  0.34641  1.0000
  S   S56       1.0  0.02270  0.30156  0.35763  1.0000
  C   C266      1.0  0.04171  0.15670  0.41869  1.0000
  C   C267      1.0  0.04382  0.14664  0.43706  1.0000
  H   H436      1.0  0.24675  0.02018  0.30801  1.0000
  C   C268      1.0  0.05599  0.33844  0.45214  1.0000
  C   C269      1.0  0.16948  0.23760  0.42458  1.0000
  H   H437      1.0  0.14290  0.39639  0.33414  1.0000
  H   H438      1.0  0.00998  0.27469  0.30988  1.0000
  C   C270      1.0  0.06888  0.32165  0.45875  1.0000
  H   H439      1.0  0.13820  0.29830  0.47052  1.0000
  H   H440      1.0  0.16010  0.39044  0.34589  1.0000
  H   H441      1.0  0.23111  0.00937  0.32412  1.0000
  H   H442      1.0  0.02519  0.21670  0.38519  1.0000
  H   H443      1.0  0.10943  0.11284  0.32136  1.0000
  H   H444      1.0  0.11803  0.45434  0.29640  1.0000
  C   C271      1.0  0.01336  0.26072  0.30953  1.0000
  C   C272      1.0  0.02699  0.33884  0.30175  1.0000
  H   H445      1.0  0.09814  0.29521  0.45587  1.0000
  H   H446      1.0  0.04620  0.34324  0.46304  1.0000
  H   H447      1.0  0.04943  0.33614  0.44313  1.0000
  H   H448      1.0  0.04680  0.13243  0.43790  1.0000
  H   H449      1.0  0.18070  0.05317  0.44226  1.0000
  H   H450      1.0  0.15790  0.05670  0.41807  1.0000
  H   H451      1.0  0.04674  0.20386  0.42821  1.0000
  H   H452      1.0  0.27088  0.99694  0.31806  1.0000
  H   H453      1.0  0.28230  0.06008  0.38920  1.0000
  H   H454      1.0  0.20288  0.09337  0.45395  1.0000
  H   H455      1.0  0.18320  0.23875  0.42089  1.0000
  C   C273      1.0  0.18680  0.07497  0.45864  1.0000
  H   H456      1.0  0.08743  0.23522  0.46439  1.0000
  H   H457      1.0  0.03987  0.19208  0.37112  1.0000
  H   H458      1.0  0.16244  0.24512  0.43474  1.0000
  C   C274      1.0  0.30620  0.04493  0.37720  1.0000
  C   C275      1.0  0.04541  0.46638  0.24920  1.0000
  C   C276      1.0  0.02496  0.24425  0.44865  1.0000
  H   H459      1.0  0.01219  0.29027  0.39522  1.0000
  C   C277      1.0  0.03743  0.18955  0.38550  1.0000
  C   C278      1.0  0.06619  0.44880  0.30746  1.0000
  H   H460      1.0  0.08600  0.08089  0.48136  1.0000
  H   H461      1.0  0.05794  0.45147  0.27709  1.0000
  C   C279      1.0  0.09100  0.28516  0.46382  1.0000
  H   H462      1.0  0.02466  0.20726  0.45602  1.0000
  C   C280      1.0  0.03595  0.20658  0.39021  1.0000
  H   H463      1.0  0.04832  0.21086  0.38431  1.0000
  C   C281      1.0  0.07558  0.29274  0.47739  1.0000
  N   N15       1.0  0.06123  0.30651  0.47004  1.0000
  H   H464      1.0  0.06215  0.29998  0.44578  1.0000
  H   H465      1.0  0.03084  0.31990  0.45567  1.0000
  H   H466      1.0  0.03367  0.20477  0.40453  1.0000
  N   N16       1.0  0.16408  0.05602  0.46741  1.0000
  S   S57       1.0  0.10968  0.32839  0.47207  1.0000
  H   H467      1.0  0.08661  0.28036  0.45483  1.0000
  C   C282      1.0  0.25792  0.99847  0.32690  1.0000
  C   C283      1.0  0.16052  0.06912  0.41836  1.0000
  C   C284      1.0  0.03040  0.39170  0.25320  1.0000
  H   H468      1.0  0.05620  0.41976  0.24649  1.0000
  C   C285      1.0  0.23705  0.03912  0.44984  1.0000
  C   C286      1.0  0.03484  0.30556  0.45840  1.0000
  H   H469      1.0  0.14255  0.07292  0.44200  1.0000
  H   H470      1.0  0.11446  0.26478  0.46254  1.0000
  H   H471      1.0  0.29408  0.03829  0.41565  1.0000
  C   C287      1.0  0.31556  0.99659  0.45553  1.0000
  H   H472      1.0  0.03750  0.18516  0.43884  1.0000
  H   H473      1.0  0.28903  0.04751  0.46599  1.0000
  H   H474      1.0  0.01659  0.30403  0.44443  1.0000
  H   H475      1.0  0.24037  0.02600  0.45740  1.0000
  H   H476      1.0  0.00718  0.39772  0.24353  1.0000
  S   S58       1.0  0.99894  0.26308  0.38456  1.0000
  H   H477      1.0  0.02935  0.37847  0.25960  1.0000
  H   H478      1.0  0.99266  0.11663  0.40692  1.0000
  S   S59       1.0  0.02330  0.12362  0.34703  1.0000
  H   H479      1.0  0.03721  0.14133  0.38495  1.0000
  H   H480      1.0  0.07712  0.44180  0.29881  1.0000
  C   C288      1.0  0.24432  0.00730  0.31573  1.0000
  H   H481      1.0  0.00170  0.46404  0.23752  1.0000
  H   H482      1.0  0.12088  0.10161  0.35642  1.0000
  C   C289      1.0  0.02628  0.15329  0.41383  1.0000
  C   C290      1.0  0.29455  0.02553  0.42503  1.0000
  H   H483      1.0  0.17997  0.10291  0.45718  1.0000
  H   H484      1.0  0.17524  0.21320  0.44252  1.0000
  C   C291      1.0  0.18993  0.09130  0.46152  1.0000
  H   H485      1.0  0.99609  0.33244  0.29796  1.0000
  H   H486      1.0  0.28495  0.01783  0.45298  1.0000
  C   C292      1.0  0.07734  0.24728  0.46169  1.0000
  H   H487      1.0  0.03852  0.45346  0.31466  1.0000
  H   H488      1.0  0.19720  0.06382  0.46287  1.0000
  H   H489      1.0  0.16422  0.32904  0.42615  1.0000
  H   H490      1.0  0.15355  0.19292  0.46598  1.0000
  H   H491      1.0  0.00817  0.26412  0.43300  1.0000
  H   H492      1.0  0.18922  0.03854  0.46824  1.0000
  H   H493      1.0  0.03622  0.25017  0.44210  1.0000
  H   H494      1.0  0.00774  0.19898  0.34680  1.0000
  H   H495      1.0  0.16249  0.04390  0.44786  1.0000
  H   H496      1.0  0.20998  0.99037  0.37033  1.0000
  C   C293      1.0  0.15674  0.07131  0.43706  1.0000
  C   C294      1.0  0.32058  0.01455  0.44992  1.0000
  C   C295      1.0  0.03430  0.16338  0.36336  1.0000
  H   H497      1.0  0.02883  0.13903  0.41483  1.0000
  C   C296      1.0  0.23760  0.06958  0.44343  1.0000
  H   H498      1.0  0.06526  0.23896  0.44655  1.0000
  H   H499      1.0  0.99961  0.38540  0.29779  1.0000
  H   H500      1.0  0.14143  0.16745  0.46794  1.0000
  C   C297      1.0  0.99669  0.46943  0.28944  1.0000
  H   H501      1.0  0.01375  0.45586  0.30751  1.0000
  H   H502      1.0  0.04928  0.43384  0.30671  1.0000
  C   C298      1.0  0.11133  0.11532  0.33327  1.0000
  C   C299      1.0  0.06140  0.24335  0.45887  1.0000
  H   H503      1.0  0.12041  0.12418  0.32928  1.0000
  H   H504      1.0  0.13063  0.04513  0.38901  1.0000
  H   H505      1.0  0.00833  0.26915  0.45298  1.0000
  H   H506      1.0  0.03777  0.30530  0.43126  1.0000
  C   C300      1.0  0.29078  0.02844  0.44377  1.0000
  H   H507      1.0  0.02616  0.17671  0.36172  1.0000
  H   H508      1.0  0.02610  0.25806  0.30048  1.0000
  H   H509      1.0  0.05324  0.21958  0.44572  1.0000
  H   H510      1.0  0.04663  0.10916  0.48133  1.0000
  C   C301      1.0  0.31371  0.03273  0.36683  1.0000
  Fe  Fe25      1.0  0.00251  0.13161  0.47874  1.0000
  C   C302      1.0  0.05947  0.15639  0.48025  1.0000
  N   N17       1.0  0.02249  0.16326  0.39618  1.0000
  C   C303      1.0  0.02065  0.18257  0.39368  1.0000
  H   H511      1.0  0.05913  0.18464  0.44032  1.0000
  H   H512      1.0  0.02513  0.23483  0.44125  1.0000
  C   C304      1.0  0.03816  0.19992  0.45641  1.0000
  H   H513      1.0  0.10677  0.06679  0.41505  1.0000
  H   H514      1.0  0.01493  0.15589  0.42452  1.0000
  H   H515      1.0  0.06159  0.20217  0.46176  1.0000
  H   H516      1.0  0.06429  0.12884  0.46788  1.0000
  H   H517      1.0  0.32226  0.07754  0.43172  1.0000
  C   C305      1.0  0.02496  0.23534  0.46813  1.0000
  H   H518      1.0  0.09876  0.12192  0.34033  1.0000
  H   H519      1.0  0.02762  0.15537  0.35964  1.0000
  H   H520      1.0  0.30203  0.05787  0.43663  1.0000
  H   H521      1.0  0.12996  0.06470  0.40739  1.0000
  H   H522      1.0  0.01725  0.10541  0.38336  1.0000
  C   C306      1.0  0.11912  0.05818  0.40998  1.0000
  H   H523      1.0  0.01146  0.19019  0.38502  1.0000
  N   N18       1.0  0.04087  0.22178  0.47231  1.0000
  H   H524      1.0  0.05153  0.25578  0.45735  1.0000
  C   C307      1.0  0.14524  0.05679  0.47605  1.0000
  H   H525      1.0  0.14357  0.22214  0.44903  1.0000
  H   H526      1.0  0.10990  0.27509  0.48042  1.0000
  H   H527      1.0  0.06722  0.46255  0.30475  1.0000
  H   H528      1.0  0.99682  0.25324  0.45334  1.0000
  H   H529      1.0  0.27272  0.99229  0.35337  1.0000
  H   H530      1.0  0.00657  0.43330  0.29978  1.0000
  H   H531      1.0  0.01462  0.18648  0.40633  1.0000
  H   H532      1.0  0.01688  0.33943  0.31388  1.0000
  C   C308      1.0  0.21905  0.99761  0.44376  1.0000
  H   H533      1.0  0.15211  0.07997  0.41080  1.0000
  C   C309      1.0  0.05413  0.22992  0.47465  1.0000
  H   H534      1.0  0.28509  0.99458  0.37839  1.0000
  N   N19       1.0  0.30595  0.03053  0.44938  1.0000
  H   H535      1.0  0.03752  0.18848  0.46746  1.0000
  H   H536      1.0  0.06733  0.44256  0.32114  1.0000
  H   H537      1.0  0.08483  0.12654  0.47216  1.0000
  H   H538      1.0  0.00326  0.16530  0.38174  1.0000
  C   C310      1.0  0.04892  0.44777  0.30466  1.0000
  H   H539      1.0  0.12144  0.04602  0.42011  1.0000
  H   H540      1.0  0.05567  0.28443  0.46468  1.0000
  C   C311      1.0  0.07149  0.12464  0.47859  1.0000
  H   H541      1.0  0.23997  0.98649  0.45754  1.0000
  H   H542      1.0  0.03292  0.32504  0.30128  1.0000
  H   H543      1.0  0.25711  0.00753  0.33498  1.0000
  H   H544      1.0  0.01646  0.47685  0.29662  1.0000
  H   H545      1.0  0.07366  0.25372  0.47280  1.0000
  H   H546      1.0  0.13701  0.06927  0.47034  1.0000
  H   H547      1.0  0.02667  0.30037  0.47100  1.0000
  Fe  Fe26      1.0  0.99464  0.12751  0.35800  1.0000
  H   H548      1.0  0.07153  0.16012  0.47207  1.0000
  H   H549      1.0  0.18040  0.15661  0.46798  1.0000
  H   H550      1.0  0.02079  0.34508  0.29036  1.0000
  C   C312      1.0  0.31244  0.04576  0.43649  1.0000
  C   C313      1.0  0.00561  0.16013  0.39519  1.0000
  Fe  Fe27      1.0  0.11961  0.39362  0.24043  1.0000
  H   H551      1.0  0.99512  0.45930  0.28387  1.0000
  H   H552      1.0  0.31563  0.04388  0.42299  1.0000
  H   H553      1.0  0.26788  0.02621  0.42508  1.0000
  C   C314      1.0  0.17570  0.04000  0.47608  1.0000
  H   H554      1.0  0.13066  0.47514  0.25618  1.0000
  H   H555      1.0  0.12754  0.14096  0.48340  1.0000
  H   H556      1.0  0.06524  0.21950  0.47876  1.0000
  H   H557      1.0  0.99549  0.48179  0.27947  1.0000
  C   C315      1.0  0.99388  0.20251  0.35137  1.0000
  H   H558      1.0  0.30992  0.03874  0.47073  1.0000
  H   H559      1.0  0.06316  0.09119  0.46291  1.0000
  H   H560      1.0  0.30755  0.01716  0.42150  1.0000
  H   H561      1.0  0.21199  0.98701  0.44956  1.0000
  H   H562      1.0  0.05037  0.15800  0.47181  1.0000
  C   C316      1.0  0.99872  0.06735  0.41042  1.0000
  S   S60       1.0  0.99303  0.19316  0.48202  1.0000
  H   H563      1.0  0.16402  0.14449  0.47976  1.0000
  C   C317      1.0  0.99955  0.22772  0.42307  1.0000
  S   S61       1.0  0.09392  0.41159  0.23780  1.0000
  C   C318      1.0  0.99957  0.25641  0.30319  1.0000
  H   H564      1.0  0.21700  0.00347  0.43031  1.0000
  H   H565      1.0  0.99868  0.26527  0.29030  1.0000
  H   H566      1.0  0.09753  0.25976  0.48127  1.0000
  C   C319      1.0  0.03282  0.42598  0.23671  1.0000
  C   C320      1.0  0.17046  0.02249  0.47889  1.0000
  H   H567      1.0  0.16821  0.07135  0.48279  1.0000
  H   H568      1.0  0.99226  0.06061  0.40491  1.0000
  H   H569      1.0  0.99181  0.04914  0.44267  1.0000
  H   H570      1.0  0.99671  0.24064  0.42623  1.0000
  H   H571      1.0  0.14061  0.04655  0.47333  1.0000
  C   C321      1.0  0.99312  0.37627  0.30869  1.0000
  C   C322      1.0  0.99284  0.47677  0.23889  1.0000
  H   H572      1.0  0.99308  0.36517  0.30360  1.0000
  H   H573      1.0  0.28245  0.01720  0.48033  1.0000
  H   H574      1.0  0.00188  0.07579  0.48399  1.0000
  H   H575      1.0  0.16364  0.16423  0.48536  1.0000
  C   C323      1.0  0.06331  0.13768  0.49063  1.0000
  S   S62       1.0  0.00933  0.45747  0.60841  1.0000
  N   N20       1.0  0.09482  0.46393  0.69858  1.0000
  H   H576      1.0  0.27459  0.04036  0.49712  1.0000
  H   H577      1.0  0.04162  0.31838  0.68679  1.0000
  C   C324      1.0  0.10557  0.45029  0.58830  1.0000
  H   H578      1.0  0.05718  0.38874  0.70375  1.0000
  C   C325      1.0  0.26778  0.01609  0.54949  1.0000
  H   H579      1.0  0.30376  0.01044  0.48553  1.0000
  C   C326      1.0  0.01793  0.42350  0.67476  1.0000
  H   H580      1.0  0.02885  0.16576  0.55045  1.0000
  C   C327      1.0  0.20496  0.44662  0.65310  1.0000
  H   H581      1.0  0.03621  0.47362  0.68620  1.0000
  H   H582      1.0  0.08017  0.46379  0.67099  1.0000
  C   C328      1.0  0.02663  0.21727  0.50550  1.0000
  Fe  Fe28      1.0  0.12483  0.37069  0.66086  1.0000
  S   S63       1.0  0.11618  0.39940  0.65116  1.0000
  S   S64       1.0  0.12241  0.35762  0.68937  1.0000
  Fe  Fe29      1.0  0.12979  0.36256  0.62510  1.0000
  S   S65       1.0  0.12190  0.39082  0.61224  1.0000
  S   S66       1.0  0.13316  0.33798  0.61589  1.0000
  Fe  Fe30      1.0  0.13791  0.39553  0.62811  1.0000
  S   S67       1.0  0.15414  0.41560  0.61553  1.0000
  Fe  Fe31      1.0  0.10105  0.39253  0.63626  1.0000
  S   S68       1.0  0.07329  0.40563  0.63640  1.0000
  S   S69       1.0  0.14791  0.36695  0.63891  1.0000
  S   S70       1.0  0.10754  0.36424  0.64795  1.0000
  H   H583      1.0  0.05069  0.48025  0.62548  1.0000
  C   C329      1.0  0.09033  0.45764  0.60217  1.0000
  H   H584      1.0  0.04548  0.11047  0.50278  1.0000
  H   H585      1.0  0.06423  0.45142  0.65509  1.0000
  H   H586      1.0  0.12810  0.48459  0.71558  1.0000
  S   S71       1.0  0.01421  0.11584  0.53882  1.0000
  Fe  Fe32      1.0  0.01796  0.35726  0.62287  1.0000
  S   S72       1.0  0.04405  0.36020  0.60625  1.0000
  H   H587      1.0  0.09095  0.47125  0.60115  1.0000
  H   H588      1.0  0.12760  0.31591  0.66025  1.0000
  H   H589      1.0  0.15295  0.10760  0.55637  1.0000
  H   H590      1.0  0.03433  0.14308  0.52371  1.0000
  H   H591      1.0  0.00317  0.42875  0.72721  1.0000
  H   H592      1.0  0.20854  0.00743  0.57343  1.0000
  H   H593      1.0  0.18297  0.08897  0.54630  1.0000
  H   H594      1.0  0.06031  0.14682  0.53136  1.0000
  H   H595      1.0  0.30617  0.01430  0.55919  1.0000
  H   H596      1.0  0.18220  0.34253  0.55085  1.0000
  H   H597      1.0  0.07775  0.30420  0.63009  1.0000
  H   H598      1.0  0.21456  0.07554  0.60489  1.0000
  S   S73       1.0  0.99808  0.26642  0.49967  1.0000
  C   C330      1.0  0.03503  0.41014  0.67564  1.0000
  S   S74       1.0  0.30241  0.05174  0.54725  1.0000
  H   H599      1.0  0.02636  0.20247  0.48825  1.0000
  Fe  Fe33      1.0  0.22693  0.99688  0.50651  1.0000
  H   H600      1.0  0.99539  0.45211  0.72446  1.0000
  H   H601      1.0  0.25164  0.03942  0.53746  1.0000
  H   H602      1.0  0.06874  0.40690  0.71716  1.0000
  Fe  Fe34      1.0  0.09691  0.14256  0.54196  1.0000
  S   S75       1.0  0.08903  0.17056  0.52922  1.0000
  S   S76       1.0  0.07797  0.12711  0.56016  1.0000
  Fe  Fe35      1.0  0.13505  0.14042  0.52454  1.0000
  S   S77       1.0  0.13021  0.16864  0.51061  1.0000
  S   S78       1.0  0.16242  0.12452  0.51851  1.0000
  Fe  Fe36      1.0  0.11271  0.17355  0.53586  1.0000
  S   S79       1.0  0.10907  0.19576  0.54866  1.0000
  Fe  Fe37      1.0  0.10728  0.16305  0.50539  1.0000
  S   S80       1.0  0.11943  0.14574  0.55044  1.0000
  S   S81       1.0  0.11313  0.13463  0.51763  1.0000
  Fe  Fe38      1.0  0.12791  0.31616  0.52991  1.0000
  S   S82       1.0  0.10264  0.32559  0.52135  1.0000
  S   S83       1.0  0.13683  0.33567  0.53815  1.0000
  Fe  Fe39      1.0  0.13459  0.28149  0.52027  1.0000
  S   S84       1.0  0.10999  0.28839  0.51074  1.0000
  S   S85       1.0  0.15181  0.25501  0.51900  1.0000
  S   S86       1.0  0.00041  0.33490  0.68780  1.0000
  H   H603      1.0  0.09656  0.46495  0.63980  1.0000
  Fe  Fe40      1.0  0.09838  0.29897  0.53473  1.0000
  S   S87       1.0  0.07243  0.29556  0.55126  1.0000
  S   S88       1.0  0.14233  0.30670  0.50544  1.0000
  S   S89       1.0  0.12248  0.29026  0.54537  1.0000
  S   S90       1.0  0.04254  0.26351  0.50791  1.0000
  C   C331      1.0  0.06381  0.28458  0.54142  1.0000
  C   C332      1.0  0.04605  0.28901  0.54177  1.0000
  C   C333      1.0  0.03946  0.28208  0.53185  1.0000
  C   C334      1.0  0.05060  0.27075  0.52158  1.0000
  C   C335      1.0  0.06820  0.26554  0.52203  1.0000
  C   C336      1.0  0.07473  0.27225  0.53219  1.0000
  H   H604      1.0  0.03751  0.29843  0.54898  1.0000
  H   H605      1.0  0.02584  0.28616  0.53162  1.0000
  H   H606      1.0  0.07684  0.25653  0.51437  1.0000
  H   H607      1.0  0.08825  0.26789  0.53286  1.0000
  C   C337      1.0  0.12085  0.21227  0.53932  1.0000
  C   C338      1.0  0.13659  0.20983  0.52725  1.0000
  C   C339      1.0  0.14611  0.22296  0.52102  1.0000
  C   C340      1.0  0.13969  0.23873  0.52645  1.0000
  C   C341      1.0  0.12375  0.24130  0.53815  1.0000
  C   C342      1.0  0.11452  0.22803  0.54476  1.0000
  H   H608      1.0  0.14165  0.19767  0.52311  1.0000
  H   H609      1.0  0.15845  0.22089  0.51198  1.0000
  H   H610      1.0  0.11872  0.25335  0.54250  1.0000
  H   H611      1.0  0.10253  0.22995  0.55425  1.0000
  C   C343      1.0  0.06079  0.12449  0.55291  1.0000
  H   H612      1.0  0.05764  0.10192  0.57354  1.0000
  H   H613      1.0  0.21241  0.08128  0.57327  1.0000
  C   C344      1.0  0.17212  0.06621  0.52204  1.0000
  C   C345      1.0  0.18513  0.07528  0.51315  1.0000
  C   C346      1.0  0.18183  0.09329  0.51166  1.0000
  C   C347      1.0  0.16542  0.10239  0.51877  1.0000
  C   C348      1.0  0.15217  0.09344  0.52699  1.0000
  C   C349      1.0  0.15553  0.07537  0.52864  1.0000
  H   H614      1.0  0.19785  0.06839  0.50767  1.0000
  H   H615      1.0  0.19211  0.10017  0.50522  1.0000
  H   H616      1.0  0.13951  0.10033  0.53263  1.0000
  H   H617      1.0  0.14538  0.06843  0.53546  1.0000
  H   H618      1.0  0.06453  0.22389  0.58889  1.0000
  H   H619      1.0  0.07680  0.25061  0.57434  1.0000
  H   H620      1.0  0.02749  0.08858  0.49063  1.0000
  H   H621      1.0  0.05284  0.47352  0.65598  1.0000
  H   H622      1.0  0.05090  0.13515  0.49890  1.0000
  C   C350      1.0  0.05440  0.13599  0.53859  1.0000
  H   H623      1.0  0.20056  0.06289  0.62126  1.0000
  H   H624      1.0  0.20088  0.45469  0.66295  1.0000
  H   H625      1.0  0.27063  0.05851  0.53619  1.0000
  H   H626      1.0  0.14255  0.43808  0.71582  1.0000
  C   C351      1.0  0.29431  0.01978  0.55439  1.0000
  C   C352      1.0  0.13276  0.33820  0.59438  1.0000
  C   C353      1.0  0.12984  0.32358  0.59096  1.0000
  C   C354      1.0  0.13007  0.32301  0.57389  1.0000
  C   C355      1.0  0.13402  0.33676  0.56001  1.0000
  C   C356      1.0  0.13689  0.35139  0.56343  1.0000
  C   C357      1.0  0.13601  0.35223  0.58058  1.0000
  H   H627      1.0  0.12730  0.31268  0.60160  1.0000
  H   H628      1.0  0.12752  0.31184  0.57146  1.0000
  H   H629      1.0  0.13995  0.36207  0.55275  1.0000
  H   H630      1.0  0.13837  0.36351  0.58306  1.0000
  C   C358      1.0  0.06518  0.39436  0.62640  1.0000
  C   C359      1.0  0.04736  0.39768  0.62729  1.0000
  C   C360      1.0  0.04086  0.38772  0.62035  1.0000
  C   C361      1.0  0.05212  0.37461  0.61236  1.0000
  C   C362      1.0  0.06999  0.37213  0.61044  1.0000
  C   C363      1.0  0.07650  0.38176  0.61773  1.0000
  H   H631      1.0  0.03854  0.40771  0.63357  1.0000
  H   H632      1.0  0.02713  0.39020  0.62118  1.0000
  H   H633      1.0  0.07880  0.36230  0.60393  1.0000
  H   H634      1.0  0.09030  0.37929  0.61671  1.0000
  C   C364      1.0  0.14973  0.45811  0.64346  1.0000
  C   C365      1.0  0.15674  0.46018  0.62560  1.0000
  C   C366      1.0  0.15780  0.44716  0.61710  1.0000
  C   C367      1.0  0.15157  0.43219  0.62633  1.0000
  C   C368      1.0  0.14399  0.43047  0.64407  1.0000
  C   C369      1.0  0.14316  0.44335  0.65260  1.0000
  H   H635      1.0  0.06399  0.48478  0.59658  1.0000
  H   H636      1.0  0.16368  0.44857  0.60339  1.0000
  H   H637      1.0  0.13923  0.41902  0.65135  1.0000
  H   H638      1.0  0.13747  0.44184  0.66633  1.0000
  H   H639      1.0  0.04960  0.43250  0.72774  1.0000
  C   C370      1.0  0.19446  0.43265  0.65836  1.0000
  S   S91       1.0  0.00421  0.37096  0.64447  1.0000
  H   H640      1.0  0.19438  0.33542  0.53120  1.0000
  Fe  Fe41      1.0  0.23874  0.03089  0.49330  1.0000
  H   H641      1.0  0.28090  0.01898  0.51017  1.0000
  H   H642      1.0  0.17804  0.26526  0.53713  1.0000
  H   H643      1.0  0.19831  0.42557  0.64769  1.0000
  H   H644      1.0  0.01694  0.42475  0.70125  1.0000
  C   C371      1.0  0.09881  0.47216  0.64822  1.0000
  H   H645      1.0  0.10819  0.35474  0.73042  1.0000
  C   C372      1.0  0.28969  0.03767  0.54753  1.0000
  C   C373      1.0  0.10051  0.47047  0.67916  1.0000
  H   H646      1.0  0.09813  0.11703  0.49597  1.0000
  H   H647      1.0  0.28654  0.99532  0.56144  1.0000
  H   H648      1.0  0.01646  0.42248  0.60535  1.0000
  H   H649      1.0  0.18701  0.07832  0.59624  1.0000
  C   C374      1.0  0.15491  0.35907  0.72568  1.0000
  C   C375      1.0  0.14209  0.37365  0.72066  1.0000
  C   C376      1.0  0.13293  0.37384  0.70838  1.0000
  C   C377      1.0  0.13657  0.35942  0.70108  1.0000
  C   C378      1.0  0.14970  0.34505  0.70574  1.0000
  C   C379      1.0  0.15897  0.34497  0.71783  1.0000
  H   H650      1.0  0.04590  0.38786  0.73139  1.0000
  H   H651      1.0  0.12254  0.38480  0.70513  1.0000
  H   H652      1.0  0.15230  0.33371  0.70044  1.0000
  N   N21       1.0  0.99335  0.44188  0.69387  1.0000
  H   H653      1.0  0.14917  0.27050  0.59445  1.0000
  C   C380      1.0  0.07945  0.37253  0.71539  1.0000
  H   H654      1.0  0.18058  0.43922  0.65925  1.0000
  H   H655      1.0  0.06063  0.36560  0.70556  1.0000
  H   H656      1.0  0.07976  0.08638  0.50930  1.0000
  Fe  Fe42      1.0  0.01400  0.27438  0.51271  1.0000
  C   C381      1.0  0.08531  0.31259  0.66327  1.0000
  H   H657      1.0  0.10362  0.08256  0.52341  1.0000
  C   C382      1.0  0.28565  0.02906  0.49904  1.0000
  H   H658      1.0  0.04522  0.31925  0.65454  1.0000
  C   C383      1.0  0.19008  0.39547  0.69990  1.0000
  H   H659      1.0  0.18628  0.26664  0.58181  1.0000
  C   C384      1.0  0.12212  0.05330  0.50383  1.0000
  H   H660      1.0  0.02672  0.37441  0.66606  1.0000
  N   N22       1.0  0.19937  0.06897  0.56218  1.0000
  C   C385      1.0  0.19294  0.05256  0.56575  1.0000
  C   C386      1.0  0.18466  0.08487  0.56000  1.0000
  C   C387      1.0  0.21257  0.06980  0.54518  1.0000
  C   C388      1.0  0.20828  0.06885  0.57605  1.0000
  C   C389      1.0  0.19746  0.06652  0.59489  1.0000
  C   C390      1.0  0.20665  0.03516  0.56841  1.0000
  C   C391      1.0  0.18182  0.31619  0.55112  1.0000
  C   C392      1.0  0.16628  0.08317  0.57091  1.0000
  H   H661      1.0  0.11751  0.09773  0.51563  1.0000
  C   C393      1.0  0.08415  0.31524  0.62661  1.0000
  C   C394      1.0  0.19835  0.01966  0.57243  1.0000
  C   C395      1.0  0.16318  0.28659  0.56006  1.0000
  H   H662      1.0  0.18698  0.05300  0.55488  1.0000
  H   H663      1.0  0.18240  0.05151  0.57751  1.0000
  H   H664      1.0  0.15876  0.41312  0.70262  1.0000
  S   S92       1.0  0.00263  0.30268  0.50491  1.0000
  H   H665      1.0  0.20711  0.06779  0.53509  1.0000
  H   H666      1.0  0.22429  0.05916  0.54655  1.0000
  C   C396      1.0  0.99374  0.36819  0.69236  1.0000
  S   S93       1.0  0.25377  0.00263  0.55144  1.0000
  H   H667      1.0  0.19171  0.05499  0.59868  1.0000
  H   H668      1.0  0.15710  0.37332  0.66976  1.0000
  H   H669      1.0  0.21701  0.03422  0.55658  1.0000
  H   H670      1.0  0.21271  0.03371  0.57943  1.0000
  H   H671      1.0  0.06145  0.33534  0.63194  1.0000
  H   H672      1.0  0.21212  0.26599  0.59147  1.0000
  H   H673      1.0  0.16107  0.07511  0.56561  1.0000
  H   H674      1.0  0.16630  0.07699  0.58478  1.0000
  H   H675      1.0  0.14049  0.09925  0.57731  1.0000
  H   H676      1.0  0.20737  0.28087  0.54560  1.0000
  H   H677      1.0  0.00633  0.40061  0.55694  1.0000
  C   C397      1.0  0.06252  0.33921  0.66429  1.0000
  C   C398      1.0  0.06040  0.46860  0.63011  1.0000
  S   S94       1.0  0.21446  0.00209  0.53301  1.0000
  H   H678      1.0  0.18873  0.01907  0.58497  1.0000
  H   H679      1.0  0.19180  0.02062  0.56188  1.0000
  H   H680      1.0  0.06891  0.46753  0.56621  1.0000
  C   C399      1.0  0.05262  0.31858  0.49809  1.0000
  C   C400      1.0  0.99587  0.37510  0.71857  1.0000
  H   H681      1.0  0.08073  0.34006  0.63283  1.0000
  S   S95       1.0  0.17643  0.04339  0.52566  1.0000
  C   C401      1.0  0.06952  0.47787  0.57208  1.0000
  H   H682      1.0  0.02908  0.29288  0.69810  1.0000
  C   C402      1.0  0.28319  0.00906  0.55566  1.0000
  H   H683      1.0  0.11512  0.44072  0.69729  1.0000
  C   C403      1.0  0.05285  0.11076  0.56243  1.0000
  C   C404      1.0  0.06295  0.47368  0.59203  1.0000
  C   C405      1.0  0.00002  0.45842  0.68797  1.0000
  C   C406      1.0  0.00300  0.42585  0.61171  1.0000
  N   N23       1.0  0.04377  0.35464  0.55515  1.0000
  C   C407      1.0  0.03758  0.33799  0.55956  1.0000
  C   C408      1.0  0.04651  0.36160  0.53565  1.0000
  C   C409      1.0  0.06040  0.35076  0.56140  1.0000
  C   C410      1.0  0.03054  0.36815  0.56386  1.0000
  C   C411      1.0  0.01204  0.37248  0.56022  1.0000
  C   C412      1.0  0.03202  0.32987  0.57927  1.0000
  C   C413      1.0  0.06905  0.36634  0.55749  1.0000
  C   C414      1.0  0.06286  0.35195  0.52461  1.0000
  C   C415      1.0  0.06341  0.35898  0.50512  1.0000
  C   C416      1.0  0.18241  0.00721  0.48855  1.0000
  C   C417      1.0  0.02809  0.31210  0.58201  1.0000
  C   C418      1.0  0.08745  0.36015  0.56085  1.0000
  H   H684      1.0  0.04790  0.32790  0.55384  1.0000
  H   H685      1.0  0.02642  0.33986  0.55349  1.0000
  H   H686      1.0  0.03532  0.36117  0.53077  1.0000
  H   H687      1.0  0.04703  0.37557  0.53217  1.0000
  H   H688      1.0  0.06998  0.33979  0.55630  1.0000
  H   H689      1.0  0.05820  0.34608  0.57574  1.0000
  H   H690      1.0  0.02932  0.36423  0.57820  1.0000
  H   H691      1.0  0.03500  0.38054  0.55985  1.0000
  H   H692      1.0  0.00536  0.36182  0.56762  1.0000
  H   H693      1.0  0.01224  0.37428  0.54627  1.0000
  H   H694      1.0  0.04228  0.32778  0.58649  1.0000
  H   H695      1.0  0.02021  0.33832  0.58540  1.0000
  H   H696      1.0  0.06150  0.37534  0.56616  1.0000
  H   H697      1.0  0.06982  0.37383  0.54384  1.0000
  H   H698      1.0  0.07469  0.35386  0.52710  1.0000
  H   H699      1.0  0.06338  0.33782  0.52775  1.0000
  H   H700      1.0  0.06417  0.37287  0.50126  1.0000
  H   H701      1.0  0.07508  0.35149  0.49762  1.0000
  H   H702      1.0  0.05175  0.35773  0.50167  1.0000
  H   H703      1.0  0.08138  0.29788  0.48513  1.0000
  Fe  Fe43      1.0  0.00064  0.48288  0.61681  1.0000
  H   H704      1.0  0.10333  0.45610  0.57494  1.0000
  H   H705      1.0  0.04016  0.30253  0.57817  1.0000
  H   H706      1.0  0.02253  0.30735  0.59599  1.0000
  H   H707      1.0  0.01866  0.31287  0.57423  1.0000
  H   H708      1.0  0.08730  0.35291  0.57455  1.0000
  H   H709      1.0  0.09580  0.35159  0.55201  1.0000
  H   H710      1.0  0.09322  0.37149  0.55850  1.0000
  H   H711      1.0  0.12080  0.04078  0.50229  1.0000
  H   H712      1.0  0.08217  0.30865  0.67771  1.0000
  C   C419      1.0  0.06705  0.37649  0.70287  1.0000
  C   C420      1.0  0.04565  0.41985  0.73234  1.0000
  H   H713      1.0  0.22517  0.08466  0.51040  1.0000
  N   N24       1.0  0.07216  0.45679  0.60202  1.0000
  C   C421      1.0  0.07271  0.44142  0.59510  1.0000
  S   S96       1.0  0.01382  0.33121  0.63896  1.0000
  C   C422      1.0  0.06212  0.45412  0.62063  1.0000
  C   C423      1.0  0.10394  0.09646  0.51793  1.0000
  C   C424      1.0  0.05499  0.43850  0.59479  1.0000
  C   C425      1.0  0.17843  0.27926  0.53222  1.0000
  C   C426      1.0  0.19339  0.40155  0.71472  1.0000
  C   C427      1.0  0.05745  0.42468  0.58464  1.0000
  H   H714      1.0  0.04188  0.45884  0.65278  1.0000
  H   H715      1.0  0.07948  0.42924  0.60294  1.0000
  H   H716      1.0  0.08053  0.44233  0.58164  1.0000
  H   H717      1.0  0.18039  0.38736  0.70663  1.0000
  H   H718      1.0  0.11448  0.46157  0.71299  1.0000
  H   H719      1.0  0.06819  0.44148  0.62835  1.0000
  H   H720      1.0  0.04862  0.45332  0.62149  1.0000
  H   H721      1.0  0.04875  0.47436  0.59486  1.0000
  H   H722      1.0  0.04142  0.40782  0.66247  1.0000
  H   H723      1.0  0.04788  0.43390  0.60821  1.0000
  H   H724      1.0  0.04677  0.45056  0.58852  1.0000
  H   H725      1.0  0.14989  0.45811  0.70868  1.0000
  H   H726      1.0  0.15225  0.29593  0.55451  1.0000
  C   C428      1.0  0.21301  0.26707  0.57744  1.0000
  H   H727      1.0  0.17274  0.44671  0.68581  1.0000
  S   S97       1.0  0.21508  0.02339  0.49232  1.0000
  H   H728      1.0  0.06324  0.42924  0.57070  1.0000
  H   H729      1.0  0.06597  0.41235  0.59009  1.0000
  H   H730      1.0  0.04470  0.42203  0.58553  1.0000
  C   C429      1.0  0.99589  0.44249  0.61502  1.0000
  H   H731      1.0  0.06635  0.20873  0.51145  1.0000
  H   H732      1.0  0.04253  0.36099  0.72971  1.0000
  H   H733      1.0  0.21915  0.05219  0.60747  1.0000
  H   H734      1.0  0.07181  0.34796  0.65921  1.0000
  C   C430      1.0  0.99973  0.22480  0.57121  1.0000
  H   H735      1.0  0.22055  0.05867  0.57579  1.0000
  Fe  Fe44      1.0  0.23842  0.01141  0.53041  1.0000
  H   H736      1.0  0.04181  0.29998  0.49296  1.0000
  H   H737      1.0  0.19973  0.42694  0.68421  1.0000
  H   H738      1.0  0.09734  0.33177  0.66640  1.0000
  H   H739      1.0  0.17908  0.37401  0.65863  1.0000
  H   H740      1.0  0.17349  0.37681  0.68896  1.0000
  H   H741      1.0  0.20259  0.45530  0.64044  1.0000
  N   N25       1.0  0.05016  0.22104  0.56069  1.0000
  C   C431      1.0  0.05308  0.22216  0.54141  1.0000
  C   C432      1.0  0.05869  0.23414  0.56277  1.0000
  C   C433      1.0  0.05827  0.20330  0.57025  1.0000
  C   C434      1.0  0.05270  0.18768  0.56815  1.0000
  C   C435      1.0  0.07218  0.21725  0.53170  1.0000
  C   C436      1.0  0.05672  0.23570  0.58171  1.0000
  C   C437      1.0  0.06368  0.17046  0.57629  1.0000
  C   C438      1.0  0.07350  0.21781  0.51260  1.0000
  C   C439      1.0  0.06324  0.25129  0.58186  1.0000
  H   H742      1.0  0.04735  0.23552  0.53490  1.0000
  H   H743      1.0  0.04622  0.21372  0.53877  1.0000
  H   H744      1.0  0.02666  0.24043  0.56724  1.0000
  H   H745      1.0  0.05360  0.24728  0.55512  1.0000
  H   H746      1.0  0.07287  0.23106  0.55749  1.0000
  H   H747      1.0  0.07267  0.20100  0.56647  1.0000
  H   H748      1.0  0.05419  0.18766  0.55430  1.0000
  H   H749      1.0  0.07994  0.22616  0.53194  1.0000
  H   H750      1.0  0.07816  0.20386  0.53767  1.0000
  H   H751      1.0  0.01791  0.23004  0.54713  1.0000
  H   H752      1.0  0.07757  0.16931  0.56969  1.0000
  H   H753      1.0  0.06239  0.16941  0.59039  1.0000
  C   C440      1.0  0.00115  0.38931  0.56557  1.0000
  H   H754      1.0  0.06832  0.23120  0.50569  1.0000
  H   H755      1.0  0.08733  0.21380  0.50627  1.0000
  H   H756      1.0  0.05487  0.26361  0.57612  1.0000
  H   H757      1.0  0.06284  0.25149  0.59546  1.0000
  H   H758      1.0  0.11489  0.30249  0.67739  1.0000
  C   C441      1.0  0.10062  0.32168  0.65876  1.0000
  H   H759      1.0  0.17023  0.31667  0.56189  1.0000
  S   S98       1.0  0.22731  0.03912  0.51855  1.0000
  C   C442      1.0  0.02254  0.20301  0.52166  1.0000
  H   H760      1.0  0.09463  0.43847  0.69596  1.0000
  H   H761      1.0  0.09389  0.45016  0.61487  1.0000
  C   C443      1.0  0.18167  0.40061  0.67221  1.0000
  H   H762      1.0  0.03290  0.09749  0.56513  1.0000
  C   C444      1.0  0.05446  0.46266  0.64975  1.0000
  H   H763      1.0  0.01600  0.17409  0.56918  1.0000
  H   H764      1.0  0.12135  0.29878  0.65546  1.0000
  C   C445      1.0  0.01826  0.45714  0.69092  1.0000
  Fe  Fe45      1.0  0.20444  0.02937  0.51869  1.0000
  H   H765      1.0  0.06807  0.38185  0.67509  1.0000
  H   H766      1.0  0.21903  0.44062  0.65168  1.0000
  H   H767      1.0  0.18082  0.40717  0.72260  1.0000
  H   H768      1.0  0.17691  0.41043  0.66103  1.0000
  H   H769      1.0  0.02389  0.09109  0.51271  1.0000
  H   H770      1.0  0.08997  0.30018  0.65879  1.0000
  H   H771      1.0  0.21049  0.41060  0.67259  1.0000
  H   H772      1.0  0.08876  0.36008  0.71356  1.0000
  H   H773      1.0  0.23656  0.09830  0.51460  1.0000
  H   H774      1.0  0.21556  0.38033  0.72004  1.0000
  H   H775      1.0  0.00224  0.41403  0.69930  1.0000
  C   C446      1.0  0.08604  0.32251  0.60699  1.0000
  H   H776      1.0  0.11493  0.46758  0.67540  1.0000
  C   C447      1.0  0.02237  0.47505  0.68636  1.0000
  H   H777      1.0  0.15782  0.10926  0.57597  1.0000
  C   C448      1.0  0.07912  0.10044  0.50343  1.0000
  C   C449      1.0  0.21929  0.08683  0.53747  1.0000
  C   C450      1.0  0.03577  0.20929  0.48936  1.0000
  H   H778      1.0  0.06067  0.30788  0.50618  1.0000
  H   H779      1.0  0.16596  0.28574  0.52794  1.0000
  H   H780      1.0  0.03690  0.41965  0.72424  1.0000
  S   S99       1.0  0.25174  0.00396  0.50497  1.0000
  H   H781      1.0  0.13342  0.44776  0.57962  1.0000
  C   C451      1.0  0.03226  0.11969  0.54354  1.0000
  C   C452      1.0  0.19566  0.27607  0.55368  1.0000
  H   H782      1.0  0.20272  0.27082  0.49188  1.0000
  H   H783      1.0  0.16937  0.25797  0.56983  1.0000
  C   C453      1.0  0.15806  0.26870  0.56723  1.0000
  H   H784      1.0  0.21807  0.25386  0.57473  1.0000
  H   H785      1.0  0.07205  0.13673  0.49922  1.0000
  C   C454      1.0  0.19509  0.27500  0.57310  1.0000
  H   H786      1.0  0.17800  0.99505  0.49073  1.0000
  C   C455      1.0  0.03667  0.32666  0.51040  1.0000
  C   C456      1.0  0.18239  0.33496  0.54150  1.0000
  H   H787      1.0  0.01024  0.41873  0.66859  1.0000
  H   H788      1.0  0.20854  0.09838  0.53529  1.0000
  H   H789      1.0  0.99844  0.17293  0.54898  1.0000
  S   S100      1.0  0.99503  0.36333  0.61078  1.0000
  Fe  Fe46      1.0  0.11640  0.31427  0.49813  1.0000
  H   H790      1.0  0.16194  0.47149  0.61849  1.0000
  H   H791      1.0  0.20155  0.41125  0.70980  1.0000
  C   C457      1.0  0.27423  0.04469  0.54149  1.0000
  C   C458      1.0  0.00286  0.16102  0.55861  1.0000
  S   S101      1.0  0.01617  0.14414  0.49037  1.0000
  H   H792      1.0  0.10372  0.32791  0.64474  1.0000
  H   H793      1.0  0.07041  0.10728  0.51367  1.0000
  C   C459      1.0  0.03095  0.22607  0.56847  1.0000
  H   H794      1.0  0.03904  0.18788  0.57498  1.0000
  H   H795      1.0  0.22641  0.08876  0.54622  1.0000
  N   N26       1.0  0.18386  0.40950  0.68506  1.0000
  H   H796      1.0  0.19372  0.31080  0.55647  1.0000
  C   C460      1.0  0.14904  0.44677  0.70442  1.0000
  C   C461      1.0  0.20868  0.06415  0.60787  1.0000
  C   C462      1.0  0.01820  0.22160  0.56038  1.0000
  H   H797      1.0  0.05524  0.20261  0.58448  1.0000
  H   H798      1.0  0.04304  0.23737  0.58890  1.0000
  C   C463      1.0  0.10308  0.47117  0.70870  1.0000
  C   C464      1.0  0.10089  0.44438  0.70255  1.0000
  H   H799      1.0  0.09309  0.33316  0.60272  1.0000
  H   H800      1.0  0.19353  0.30590  0.52853  1.0000
  H   H801      1.0  0.02196  0.20789  0.55929  1.0000
  C   C465      1.0  0.00078  0.35737  0.72585  1.0000
  H   H802      1.0  0.11972  0.41353  0.71954  1.0000
  H   H803      1.0  0.05932  0.15946  0.57480  1.0000
  H   H804      1.0  0.09355  0.31212  0.59993  1.0000
  H   H805      1.0  0.14163  0.06783  0.49866  1.0000
  C   C466      1.0  0.03217  0.08344  0.50303  1.0000
  S   S102      1.0  0.99654  0.27080  0.53914  1.0000
  H   H806      1.0  0.04142  0.28370  0.67965  1.0000
  H   H807      1.0  0.02829  0.22029  0.58272  1.0000
  H   H808      1.0  0.01611  0.19418  0.51895  1.0000
  H   H809      1.0  0.18783  0.09617  0.56243  1.0000
  H   H810      1.0  0.07156  0.46506  0.71884  1.0000
  C   C467      1.0  0.05615  0.31247  0.66129  1.0000
  H   H811      1.0  0.09565  0.10412  0.52762  1.0000
  H   H812      1.0  0.14930  0.04466  0.50304  1.0000
  H   H813      1.0  0.20214  0.38647  0.69474  1.0000
  H   H814      1.0  0.22222  0.27543  0.56969  1.0000
  H   H815      1.0  0.08295  0.43621  0.72715  1.0000
  H   H816      1.0  0.01952  0.45101  0.70453  1.0000
  H   H817      1.0  0.06927  0.46025  0.70007  1.0000
  H   H818      1.0  0.03090  0.06975  0.50815  1.0000
  C   C468      1.0  0.15367  0.10092  0.57007  1.0000
  C   C469      1.0  0.00767  0.42575  0.69324  1.0000
  H   H819      1.0  0.17949  0.27517  0.49906  1.0000
  H   H820      1.0  0.10107  0.44889  0.66797  1.0000
  H   H821      1.0  0.08300  0.47958  0.56883  1.0000
  H   H822      1.0  0.10030  0.40961  0.71656  1.0000
  H   H823      1.0  0.18218  0.00929  0.50145  1.0000
  C   C470      1.0  0.16719  0.43727  0.69710  1.0000
  H   H824      1.0  0.15583  0.39544  0.68524  1.0000
  C   C471      1.0  0.16656  0.38178  0.66453  1.0000
  C   C472      1.0  0.07709  0.37847  0.68402  1.0000
  C   C473      1.0  0.07535  0.46836  0.70437  1.0000
  H   H825      1.0  0.04911  0.37477  0.66261  1.0000
  H   H826      1.0  0.15273  0.26580  0.55755  1.0000
  H   H827      1.0  0.07313  0.32751  0.60346  1.0000
  C   C474      1.0  0.05109  0.08435  0.50007  1.0000
  H   H828      1.0  0.12550  0.44779  0.60236  1.0000
  H   H829      1.0  0.08431  0.38895  0.68043  1.0000
  H   H830      1.0  0.14128  0.45161  0.69416  1.0000
  C   C475      1.0  0.19772  0.41965  0.67572  1.0000
  H   H831      1.0  0.02843  0.44925  0.68253  1.0000
  H   H832      1.0  0.19479  0.37620  0.73281  1.0000
  C   C476      1.0  0.14417  0.26854  0.58402  1.0000
  H   H833      1.0  0.05850  0.29893  0.68830  1.0000
  H   H834      1.0  0.24314  0.07500  0.52134  1.0000
  C   C477      1.0  0.26346  0.03389  0.54220  1.0000
  C   C478      1.0  0.23180  0.08610  0.51989  1.0000
  H   H835      1.0  0.19037  0.28781  0.57657  1.0000
  C   C479      1.0  0.16875  0.38845  0.67923  1.0000
  H   H836      1.0  0.16885  0.33364  0.72161  1.0000
  C   C480      1.0  0.09711  0.43491  0.72204  1.0000
  H   H837      1.0  0.17096  0.34125  0.53545  1.0000
  C   C481      1.0  0.10545  0.41552  0.72412  1.0000
  C   C482      1.0  0.03951  0.36651  0.66864  1.0000
  H   H838      1.0  0.04386  0.41497  0.68029  1.0000
  Fe  Fe47      1.0  0.99778  0.34556  0.65969  1.0000
  Fe  Fe48      1.0  0.00208  0.13084  0.51590  1.0000
  H   H839      1.0  0.10223  0.44003  0.73030  1.0000
  H   H840      1.0  0.11273  0.06412  0.49746  1.0000
  H   H841      1.0  0.16343  0.29147  0.57127  1.0000
  C   C483      1.0  0.03509  0.29603  0.68401  1.0000
  H   H842      1.0  0.14037  0.25581  0.58844  1.0000
  H   H843      1.0  0.03849  0.36255  0.68296  1.0000
  H   H844      1.0  0.02462  0.30334  0.67681  1.0000
  N   N27       1.0  0.06940  0.32342  0.65648  1.0000
  H   H845      1.0  0.16167  0.39269  0.65423  1.0000
  H   H846      1.0  0.08755  0.38241  0.71048  1.0000
  H   H847      1.0  0.02779  0.31764  0.51653  1.0000
  H   H848      1.0  0.03270  0.39761  0.68444  1.0000
  C   C484      1.0  0.03987  0.13376  0.53412  1.0000
  H   H849      1.0  0.15887  0.42585  0.68127  1.0000
  H   H850      1.0  0.03431  0.34330  0.66634  1.0000
  H   H851      1.0  0.03469  0.22424  0.50861  1.0000
  H   H852      1.0  0.20609  0.27530  0.51918  1.0000
  H   H853      1.0  0.19839  0.26232  0.55253  1.0000
  C   C485      1.0  0.03880  0.10828  0.55768  1.0000
  C   C486      1.0  0.19319  0.28037  0.51569  1.0000
  C   C487      1.0  0.04473  0.35059  0.66072  1.0000
  H   H854      1.0  0.04523  0.35528  0.64658  1.0000
  H   H855      1.0  0.06187  0.30026  0.65655  1.0000
  H   H856      1.0  0.99513  0.23861  0.57223  1.0000
  C   C488      1.0  0.04834  0.30694  0.68102  1.0000
  H   H857      1.0  0.07266  0.47276  0.62764  1.0000
  H   H858      1.0  0.02067  0.43593  0.66612  1.0000
  C   C489      1.0  0.20260  0.38626  0.72705  1.0000
  H   H859      1.0  0.29582  0.03315  0.50247  1.0000
  C   C490      1.0  0.16665  0.42091  0.69151  1.0000
  H   H860      1.0  0.09410  0.47361  0.72106  1.0000
  S   S103      1.0  0.15086  0.47268  0.65499  1.0000
  H   H861      1.0  0.09743  0.31023  0.62923  1.0000
  N   N28       1.0  0.17983  0.28674  0.54654  1.0000
  H   H862      1.0  0.08635  0.36605  0.68222  1.0000
  C   C491      1.0  0.18139  0.30536  0.53862  1.0000
  C   C492      1.0  0.07360  0.32943  0.63689  1.0000
  H   H863      1.0  0.01361  0.20900  0.53229  1.0000
  H   H864      1.0  0.99907  0.21626  0.58447  1.0000
  H   H865      1.0  0.19442  0.39287  0.66655  1.0000
  H   H866      1.0  0.03464  0.19520  0.52603  1.0000
  H   H867      1.0  0.04733  0.19899  0.49259  1.0000
  H   H868      1.0  0.13881  0.38453  0.72663  1.0000
  H   H869      1.0  0.13245  0.27893  0.58181  1.0000
  H   H870      1.0  0.17055  0.31249  0.53176  1.0000
  H   H871      1.0  0.04070  0.32951  0.52095  1.0000
  H   H872      1.0  0.10733  0.43596  0.59075  1.0000
  N   N29       1.0  0.07125  0.37149  0.73442  1.0000
  C   C493      1.0  0.11707  0.30883  0.66331  1.0000
  C   C494      1.0  0.14064  0.05568  0.49599  1.0000
  H   H873      1.0  0.19225  0.29403  0.50817  1.0000
  H   H874      1.0  0.17503  0.43406  0.70705  1.0000
  H   H875      1.0  0.19284  0.25601  0.51018  1.0000
  C   C495      1.0  0.09768  0.10312  0.50078  1.0000
  H   H876      1.0  0.06156  0.33543  0.67864  1.0000
  C   C496      1.0  0.06170  0.40498  0.73095  1.0000
  H   H877      1.0  0.05492  0.07916  0.51287  1.0000
  H   H878      1.0  0.17675  0.04136  0.48888  1.0000
  C   C497      1.0  0.05329  0.10335  0.49251  1.0000
  H   H879      1.0  0.01428  0.48258  0.69620  1.0000
  H   H880      1.0  0.11902  0.05305  0.51796  1.0000
  H   H881      1.0  0.01424  0.22650  0.50333  1.0000
  C   C498      1.0  0.19196  0.26992  0.50351  1.0000
  H   H882      1.0  0.11270  0.47274  0.64432  1.0000
  C   C499      1.0  0.09436  0.46276  0.66727  1.0000
  C   C500      1.0  0.12261  0.45371  0.58918  1.0000
  H   H883      1.0  0.04026  0.48275  0.70867  1.0000
  H   H884      1.0  0.02947  0.33892  0.50319  1.0000
  H   H885      1.0  0.02499  0.15093  0.57124  1.0000
  H   H886      1.0  0.01997  0.48237  0.67326  1.0000
  H   H887      1.0  0.00060  0.46394  0.67377  1.0000
  C   C501      1.0  0.01912  0.16308  0.56271  1.0000
  H   H888      1.0  0.99431  0.14841  0.58566  1.0000
  H   H889      1.0  0.00662  0.14981  0.55238  1.0000
  C   C502      1.0  0.99283  0.41348  0.61665  1.0000
  H   H890      1.0  0.00616  0.33132  0.72191  1.0000
  H   H891      1.0  0.07023  0.28172  0.48653  1.0000
  S   S104      1.0  0.99358  0.39103  0.73001  1.0000
  H   H892      1.0  0.06016  0.32866  0.49120  1.0000
  C   C503      1.0  0.99885  0.35045  0.69947  1.0000
  H   H893      1.0  0.04863  0.23716  0.48518  1.0000
  H   H894      1.0  0.00119  0.38893  0.57921  1.0000
  H   H895      1.0  0.12196  0.46789  0.58613  1.0000
  H   H896      1.0  0.10707  0.09591  0.49128  1.0000
  C   C504      1.0  0.00235  0.34505  0.71627  1.0000
  Fe  Fe49      1.0  0.99172  0.16499  0.49164  1.0000
  H   H897      1.0  0.09624  0.48485  0.67530  1.0000
  H   H898      1.0  0.05350  0.16525  0.48936  1.0000
  H   H899      1.0  0.99844  0.40075  0.61386  1.0000
  H   H900      1.0  0.29523  0.98808  0.51691  1.0000
  C   C505      1.0  0.04722  0.31147  0.48522  1.0000
  H   H901      1.0  0.05896  0.07560  0.49132  1.0000
  N   N30       1.0  0.07169  0.10579  0.48730  1.0000
  C   C506      1.0  0.99234  0.38045  0.70182  1.0000
  H   H902      1.0  0.15715  0.02268  0.48679  1.0000
  H   H903      1.0  0.01761  0.48406  0.50811  1.0000
  H   H904      1.0  0.12113  0.48493  0.68845  1.0000
  C   C507      1.0  0.99161  0.43963  0.72662  1.0000
  H   H905      1.0  0.09065  0.48558  0.64606  1.0000
  Fe  Fe50      1.0  0.01646  0.37473  0.78531  1.0000
  S   S105      1.0  0.00840  0.39951  0.76630  1.0000
  S   S106      1.0  0.04376  0.36402  0.78969  1.0000
  N   N31       1.0  0.29070  0.45127  0.83417  1.0000
  H   H906      1.0  0.26287  0.37409  0.98299  1.0000
  C   C508      1.0  0.16300  0.38133  0.98079  1.0000
  H   H907      1.0  0.29139  0.42680  0.81706  1.0000
  H   H908      1.0  0.05527  0.47862  0.78460  1.0000
  H   H909      1.0  0.02795  0.43914  0.78822  1.0000
  C   C509      1.0  0.30949  0.44671  0.82496  1.0000
  H   H910      1.0  0.22849  0.42131  0.95388  1.0000
  Fe  Fe51      1.0  0.15156  0.38626  0.79335  1.0000
  S   S107      1.0  0.13781  0.41386  0.78453  1.0000
  S   S108      1.0  0.15538  0.37753  0.82112  1.0000
  Fe  Fe52      1.0  0.15468  0.37768  0.75852  1.0000
  H   H911      1.0  0.16268  0.46752  0.81975  1.0000
  H   H912      1.0  0.17895  0.48337  0.79470  1.0000
  Fe  Fe53      1.0  0.15764  0.41283  0.75968  1.0000
  H   H913      1.0  0.19092  0.42766  0.83945  1.0000
  Fe  Fe54      1.0  0.12273  0.40276  0.77297  1.0000
  S   S109      1.0  0.09433  0.41463  0.77318  1.0000
  S   S110      1.0  0.17258  0.38608  0.76925  1.0000
  S   S111      1.0  0.13487  0.37502  0.78369  1.0000
  C   C510      1.0  0.19384  0.33903  0.80695  1.0000
  H   H914      1.0  0.16353  0.39484  0.98007  1.0000
  Fe  Fe55      1.0  0.22191  0.38839  0.86639  1.0000
  S   S112      1.0  0.19714  0.39517  0.88565  1.0000
  S   S113      1.0  0.22352  0.37996  0.84181  1.0000
  Fe  Fe56      1.0  0.24304  0.40199  0.88331  1.0000
  S   S114      1.0  0.21966  0.41000  0.90330  1.0000
  Fe  Fe57      1.0  0.21406  0.38440  0.90555  1.0000
  S   S115      1.0  0.20939  0.36771  0.93274  1.0000
  Fe  Fe58      1.0  0.20547  0.42001  0.88155  1.0000
  S   S116      1.0  0.18971  0.44732  0.87538  1.0000
  S   S117      1.0  0.23838  0.37555  0.88662  1.0000
  S   S118      1.0  0.22925  0.41391  0.86121  1.0000
  C   C511      1.0  0.16638  0.42604  0.83706  1.0000
  C   C512      1.0  0.20716  0.37963  0.94826  1.0000
  C   C513      1.0  0.21405  0.37169  0.96323  1.0000
  S   S119      1.0  0.99370  0.38044  0.80698  1.0000
  C   C514      1.0  0.20386  0.39886  0.97286  1.0000
  C   C515      1.0  0.19671  0.40665  0.95809  1.0000
  C   C516      1.0  0.19843  0.39709  0.94579  1.0000
  H   H915      1.0  0.22070  0.35813  0.96525  1.0000
  H   H916      1.0  0.29783  0.38361  0.92563  1.0000
  H   H917      1.0  0.18985  0.42014  0.95610  1.0000
  H   H918      1.0  0.19268  0.40317  0.93452  1.0000
  C   C517      1.0  0.22150  0.45361  0.87163  1.0000
  C   C518      1.0  0.20475  0.46059  0.86854  1.0000
  H   H919      1.0  0.16982  0.47087  0.74274  1.0000
  H   H920      1.0  0.22490  0.44054  0.87904  1.0000
  N   N32       1.0  0.18560  0.44693  0.81606  1.0000
  C   C519      1.0  0.17406  0.37938  0.82648  1.0000
  C   C520      1.0  0.17400  0.37817  0.84394  1.0000
  C   C521      1.0  0.18896  0.37870  0.84876  1.0000
  C   C522      1.0  0.20421  0.38010  0.83619  1.0000
  C   C523      1.0  0.20431  0.38110  0.81878  1.0000
  C   C524      1.0  0.18922  0.38104  0.81388  1.0000
  H   H921      1.0  0.16235  0.37678  0.85380  1.0000
  H   H922      1.0  0.18880  0.37763  0.86226  1.0000
  H   H923      1.0  0.21614  0.38196  0.80905  1.0000
  H   H924      1.0  0.18940  0.38192  0.80043  1.0000
  H   H925      1.0  0.07630  0.48223  0.77769  1.0000
  H   H926      1.0  0.07432  0.44421  0.82540  1.0000
  H   H927      1.0  0.24699  0.45785  0.86750  1.0000
  H   H928      1.0  0.18510  0.46658  0.78284  1.0000
  C   C525      1.0  0.17083  0.32900  0.83052  1.0000
  C   C526      1.0  0.12565  0.48136  0.75194  1.0000
  H   H929      1.0  0.31667  0.41822  0.82851  1.0000
  H   H930      1.0  0.05736  0.47173  0.75646  1.0000
  H   H931      1.0  0.23262  0.28863  0.82111  1.0000
  S   S120      1.0  0.00411  0.35889  0.77591  1.0000
  H   H932      1.0  0.18475  0.32001  0.85232  1.0000
  C   C527      1.0  0.22991  0.48060  0.85586  1.0000
  H   H933      1.0  0.24849  0.42872  0.94496  1.0000
  H   H934      1.0  0.28709  0.35390  0.91175  1.0000
  C   C528      1.0  0.17455  0.47283  0.79236  1.0000
  H   H935      1.0  0.05974  0.41719  0.83142  1.0000
  H   H936      1.0  0.07500  0.45472  0.74939  1.0000
  H   H937      1.0  0.28602  0.38553  0.96431  1.0000
  C   C529      1.0  0.28021  0.46361  0.82124  1.0000
  H   H938      1.0  0.29637  0.36720  0.95541  1.0000
  C   C530      1.0  0.00762  0.46174  0.79219  1.0000
  C   C531      1.0  0.01411  0.44444  0.79071  1.0000
  H   H939      1.0  0.31192  0.44655  0.85905  1.0000
  H   H940      1.0  0.27487  0.46514  0.85386  1.0000
  H   H941      1.0  0.30767  0.40303  0.94717  1.0000
  H   H942      1.0  0.07932  0.47498  0.74969  1.0000
  C   C532      1.0  0.05674  0.37865  0.78729  1.0000
  C   C533      1.0  0.07355  0.37200  0.79046  1.0000
  C   C534      1.0  0.08511  0.38298  0.78635  1.0000
  C   C535      1.0  0.07986  0.40071  0.77930  1.0000
  C   C536      1.0  0.06280  0.40751  0.77685  1.0000
  C   C537      1.0  0.05125  0.39652  0.78086  1.0000
  H   H943      1.0  0.07784  0.35821  0.79553  1.0000
  H   H944      1.0  0.09811  0.37765  0.78854  1.0000
  H   H945      1.0  0.05856  0.42128  0.77164  1.0000
  H   H946      1.0  0.03824  0.40182  0.77865  1.0000
  C   C538      1.0  0.29769  0.45017  0.86362  1.0000
  H   H947      1.0  0.26089  0.48310  0.98293  1.0000
  H   H948      1.0  0.15238  0.33820  0.80486  1.0000
  C   C539      1.0  0.26318  0.36639  0.97369  1.0000
  C   C540      1.0  0.04237  0.33700  0.74887  1.0000
  H   H949      1.0  0.17645  0.37365  0.97773  1.0000
  C   C541      1.0  0.28642  0.37953  0.95357  1.0000
  H   H950      1.0  0.29028  0.42547  0.85086  1.0000
  H   H951      1.0  0.22635  0.35112  0.77132  1.0000
  H   H952      1.0  0.16457  0.33933  0.87081  1.0000
  H   H953      1.0  0.15150  0.34892  0.85464  1.0000
  H   H954      1.0  0.10491  0.44337  0.80682  1.0000
  C   C542      1.0  0.20050  0.47779  0.85925  1.0000
  C   C543      1.0  0.29443  0.46108  0.87701  1.0000
  C   C544      1.0  0.28023  0.42706  0.82832  1.0000
  H   H955      1.0  0.00769  0.42096  0.79021  1.0000
  H   H956      1.0  0.26257  0.40627  0.96691  1.0000
  C   C545      1.0  0.00266  0.43422  0.79167  1.0000
  H   H957      1.0  0.24452  0.43746  0.91212  1.0000
  H   H958      1.0  0.26810  0.40779  0.84851  1.0000
  C   C546      1.0  0.28654  0.40021  0.88303  1.0000
  C   C547      1.0  0.06483  0.35485  0.74259  1.0000
  N   N33       1.0  0.07108  0.46673  0.80415  1.0000
  C   C548      1.0  0.17756  0.31913  0.80353  1.0000
  C   C549      1.0  0.05662  0.47813  0.81452  1.0000
  C   C550      1.0  0.27793  0.40849  0.83612  1.0000
  C   C551      1.0  0.29854  0.40554  0.88845  1.0000
  H   H959      1.0  0.15113  0.31599  0.79016  1.0000
  S   S121      1.0  0.14141  0.40455  0.74712  1.0000
  H   H960      1.0  0.13258  0.45249  0.79445  1.0000
  H   H961      1.0  0.18763  0.31466  0.79263  1.0000
  C   C552      1.0  0.31055  0.39531  0.93717  1.0000
  C   C553      1.0  0.16378  0.33373  0.79496  1.0000
  C   C554      1.0  0.28884  0.46055  0.84827  1.0000
  H   H962      1.0  0.19645  0.47966  0.90866  1.0000
  H   H963      1.0  0.03684  0.36325  0.75176  1.0000
  H   H964      1.0  0.23677  0.43043  0.96670  1.0000
  S   S122      1.0  0.17048  0.43494  0.74567  1.0000
  C   C555      1.0  0.19817  0.30817  0.82351  1.0000
  H   H965      1.0  0.26837  0.43467  0.82337  1.0000
  S   S123      1.0  0.26472  0.41092  0.88764  1.0000
  H   H966      1.0  0.20451  0.33326  0.78084  1.0000
  H   H967      1.0  0.26671  0.43639  0.91206  1.0000
  H   H968      1.0  0.19132  0.30018  0.83541  1.0000
  C   C556      1.0  0.31021  0.38187  0.86693  1.0000
  H   H969      1.0  0.21106  0.45332  0.96766  1.0000
  C   C557      1.0  0.06892  0.47208  0.78541  1.0000
  H   H970      1.0  0.09101  0.38258  0.73744  1.0000
  H   H971      1.0  0.31599  0.40315  0.92439  1.0000
  C   C558      1.0  0.22307  0.28188  0.82020  1.0000
  C   C559      1.0  0.20568  0.46601  0.94175  1.0000
  H   H972      1.0  0.27943  0.48397  0.78766  1.0000
  C   C560      1.0  0.15417  0.38193  0.96642  1.0000
  H   H973      1.0  0.23338  0.45985  0.80745  1.0000
  H   H974      1.0  0.31634  0.45668  0.82478  1.0000
  H   H975      1.0  0.14076  0.39003  0.96836  1.0000
  C   C561      1.0  0.21643  0.47982  0.93804  1.0000
  H   H976      1.0  0.19975  0.28746  0.81078  1.0000
  S   S124      1.0  0.02175  0.47533  0.78869  1.0000
  H   H977      1.0  0.25788  0.44847  0.89322  1.0000
  H   H978      1.0  0.06553  0.35055  0.75665  1.0000
  H   H979      1.0  0.19951  0.34221  0.81619  1.0000
  H   H980      1.0  0.10950  0.46416  0.75388  1.0000
  C   C562      1.0  0.12260  0.46565  0.75157  1.0000
  Fe  Fe59      1.0  0.99429  0.38426  0.75848  1.0000
  H   H981      1.0  0.20245  0.42238  0.81138  1.0000
  H   H982      1.0  0.12096  0.46147  0.81320  1.0000
  H   H983      1.0  0.29249  0.43845  0.87032  1.0000
  H   H984      1.0  0.19131  0.47002  0.96753  1.0000
  H   H985      1.0  0.04378  0.44830  0.82792  1.0000
  H   H986      1.0  0.04471  0.33114  0.76227  1.0000
  H   H987      1.0  0.15380  0.36861  0.96617  1.0000
  S   S125      1.0  0.16565  0.35768  0.74213  1.0000
  H   H988      1.0  0.16161  0.38773  0.95359  1.0000
  H   H989      1.0  0.17062  0.41094  0.86271  1.0000
  H   H990      1.0  0.15285  0.42982  0.86310  1.0000
  H   H991      1.0  0.10587  0.35308  0.76894  1.0000
  H   H992      1.0  0.20898  0.44343  0.83962  1.0000
  H   H993      1.0  0.17426  0.44623  0.84331  1.0000
  C   C563      1.0  0.10045  0.35498  0.74377  1.0000
  H   H994      1.0  0.08755  0.45070  0.77446  1.0000
  H   H995      1.0  0.06574  0.44798  0.78096  1.0000
  C   C564      1.0  0.15666  0.46942  0.74514  1.0000
  H   H996      1.0  0.26611  0.46601  0.82745  1.0000
  H   H997      1.0  0.30713  0.47070  0.92998  1.0000
  H   H998      1.0  0.21333  0.45464  0.93620  1.0000
  H   H999      1.0  0.21440  0.30124  0.79873  1.0000
  C   C565      1.0  0.08800  0.46970  0.80531  1.0000
  H   H1000     1.0  0.05089  0.38547  0.75161  1.0000
  H   H1001     1.0  0.20550  0.44034  0.79384  1.0000
  H   H1002     1.0  0.20549  0.40759  0.78758  1.0000
  H   H1003     1.0  0.29431  0.47234  0.84284  1.0000
  C   C566      1.0  0.19978  0.45928  0.96135  1.0000
  C   C567      1.0  0.32218  0.38824  0.87130  1.0000
  H   H1004     1.0  0.07988  0.43909  0.80477  1.0000
  H   H1005     1.0  0.21987  0.32650  0.79502  1.0000
  H   H1006     1.0  0.28320  0.35472  0.94227  1.0000
  C   C568      1.0  0.19638  0.41871  0.78119  1.0000
  C   C569      1.0  0.15349  0.45330  0.74627  1.0000
  C   C570      1.0  0.29234  0.38773  0.87297  1.0000
  C   C571      1.0  0.22701  0.45764  0.82147  1.0000
  H   H1007     1.0  0.16190  0.34132  0.82573  1.0000
  H   H1008     1.0  0.22096  0.47039  0.82504  1.0000
  H   H1009     1.0  0.11630  0.36797  0.75116  1.0000
  H   H1010     1.0  0.32053  0.38329  0.94042  1.0000
  H   H1011     1.0  0.24687  0.45699  0.92943  1.0000
  H   H1012     1.0  0.08791  0.46924  0.81907  1.0000
  H   H1013     1.0  0.18329  0.34252  0.84183  1.0000
  H   H1014     1.0  0.26023  0.46781  0.91064  1.0000
  C   C572      1.0  0.05386  0.42403  0.81992  1.0000
  C   C573      1.0  0.24923  0.46120  0.91508  1.0000
  C   C574      1.0  0.19772  0.45738  0.81687  1.0000
  C   C575      1.0  0.23409  0.46348  0.86512  1.0000
  H   H1015     1.0  0.20394  0.42691  0.77027  1.0000
  C   C576      1.0  0.14268  0.48344  0.74809  1.0000
  H   H1016     1.0  0.28493  0.40336  0.93237  1.0000
  H   H1017     1.0  0.22013  0.35720  0.79202  1.0000
  H   H1018     1.0  0.17142  0.30790  0.81058  1.0000
  C   C577      1.0  0.29408  0.39087  0.93609  1.0000
  C   C578      1.0  0.21542  0.35331  0.78252  1.0000
  C   C579      1.0  0.27448  0.34808  0.97972  1.0000
  C   C580      1.0  0.10467  0.45676  0.79878  1.0000
  C   C581      1.0  0.07388  0.45767  0.77505  1.0000
  C   C582      1.0  0.07033  0.44801  0.81264  1.0000
  H   H1019     1.0  0.06193  0.41884  0.80843  1.0000
  C   C583      1.0  0.13647  0.45155  0.74908  1.0000
  H   H1020     1.0  0.05680  0.47359  0.82866  1.0000
  H   H1021     1.0  0.19050  0.46768  0.82428  1.0000
  H   H1022     1.0  0.20310  0.46437  0.80357  1.0000
  H   H1023     1.0  0.29408  0.41483  0.89666  1.0000
  H   H1024     1.0  0.16776  0.32337  0.77205  1.0000
  H   H1025     1.0  0.16281  0.31905  0.83592  1.0000
  H   H1026     1.0  0.19231  0.44921  0.96370  1.0000
  C   C584      1.0  0.07122  0.46533  0.75645  1.0000
  H   H1027     1.0  0.17700  0.44093  0.78629  1.0000
  H   H1028     1.0  0.23702  0.45058  0.82930  1.0000
  C   C585      1.0  0.20853  0.29493  0.81202  1.0000
  H   H1029     1.0  0.06999  0.40611  0.73905  1.0000
  H   H1030     1.0  0.26972  0.43916  0.85032  1.0000
  C   C586      1.0  0.28274  0.43559  0.84188  1.0000
  H   H1031     1.0  0.20756  0.31249  0.82802  1.0000
  C   C587      1.0  0.21256  0.38137  0.97544  1.0000
  H   H1032     1.0  0.20506  0.36405  0.77762  1.0000
  H   H1033     1.0  0.16936  0.34502  0.78703  1.0000
  H   H1034     1.0  0.24964  0.36495  0.97579  1.0000
  H   H1035     1.0  0.07344  0.34409  0.73646  1.0000
  C   C588      1.0  0.16039  0.33686  0.86010  1.0000
  N   N34       1.0  0.18540  0.32381  0.81578  1.0000
  H   H1036     1.0  0.04077  0.42138  0.82250  1.0000
  C   C589      1.0  0.05235  0.44360  0.81633  1.0000
  H   H1037     1.0  0.22991  0.27228  0.81201  1.0000
  H   H1038     1.0  0.18842  0.41359  0.77572  1.0000
  H   H1039     1.0  0.27355  0.40388  0.82691  1.0000
  H   H1040     1.0  0.16082  0.45297  0.80858  1.0000
  C   C590      1.0  0.17015  0.45972  0.80986  1.0000
  C   C591      1.0  0.15707  0.32723  0.78287  1.0000
  C   C592      1.0  0.20874  0.33668  0.79093  1.0000
  H   H1041     1.0  0.29050  0.39977  0.83846  1.0000
  H   H1042     1.0  0.14704  0.33777  0.77708  1.0000
  C   C593      1.0  0.17972  0.43705  0.83439  1.0000
  C   C594      1.0  0.19528  0.43468  0.80405  1.0000
  H   H1043     1.0  0.21977  0.43479  0.82057  1.0000
  H   H1044     1.0  0.15329  0.32622  0.86557  1.0000
  C   C595      1.0  0.15971  0.41900  0.85643  1.0000
  H   H1045     1.0  0.15054  0.41074  0.85803  1.0000
  H   H1046     1.0  0.13386  0.43928  0.74966  1.0000
  H   H1047     1.0  0.17269  0.41468  0.83113  1.0000
  H   H1048     1.0  0.10564  0.45669  0.78513  1.0000
  N   N35       1.0  0.26902  0.37582  0.95513  1.0000
  C   C596      1.0  0.25535  0.39226  0.95143  1.0000
  C   C597      1.0  0.27039  0.36409  0.94329  1.0000
  C   C598      1.0  0.08508  0.37113  0.74351  1.0000
  C   C599      1.0  0.11245  0.35530  0.75498  1.0000
  H   H1049     1.0  0.28308  0.38318  0.86921  1.0000
  C   C600      1.0  0.25082  0.40443  0.96420  1.0000
  H   H1050     1.0  0.21773  0.27476  0.83343  1.0000
  C   C601      1.0  0.26742  0.37299  0.92459  1.0000
  C   C602      1.0  0.27301  0.35984  0.91307  1.0000
  C   C603      1.0  0.24046  0.42234  0.95692  1.0000
  C   C604      1.0  0.21342  0.44692  0.82528  1.0000
  H   H1051     1.0  0.24305  0.38893  0.95170  1.0000
  H   H1052     1.0  0.25887  0.40000  0.93802  1.0000
  H   H1053     1.0  0.30009  0.45299  0.88836  1.0000
  H   H1054     1.0  0.26051  0.35598  0.94894  1.0000
  H   H1055     1.0  0.19380  0.47177  0.93645  1.0000
  C   C605      1.0  0.23293  0.47368  0.90890  1.0000
  C   C606      1.0  0.31632  0.39955  0.88261  1.0000
  H   H1056     1.0  0.15493  0.43352  0.83148  1.0000
  H   H1057     1.0  0.04590  0.44990  0.80523  1.0000
  C   C607      1.0  0.18453  0.42949  0.79412  1.0000
  H   H1058     1.0  0.15472  0.47113  0.78040  1.0000
  H   H1059     1.0  0.18397  0.35100  0.80307  1.0000
  H   H1060     1.0  0.17528  0.42182  0.80313  1.0000
  H   H1061     1.0  0.28161  0.45771  0.81014  1.0000
  H   H1062     1.0  0.25341  0.37896  0.92498  1.0000
  H   H1063     1.0  0.27460  0.38336  0.91825  1.0000
  H   H1064     1.0  0.27056  0.36654  0.89989  1.0000
  C   C608      1.0  0.15879  0.48113  0.78406  1.0000
  H   H1065     1.0  0.26550  0.34951  0.91855  1.0000
  C   C609      1.0  0.25488  0.44494  0.90765  1.0000
  C   C610      1.0  0.17627  0.33189  0.84607  1.0000
  H   H1066     1.0  0.22715  0.47406  0.94523  1.0000
  H   H1067     1.0  0.27524  0.33919  0.97144  1.0000
  H   H1068     1.0  0.28032  0.46588  0.88163  1.0000
  H   H1069     1.0  0.22428  0.46555  0.90878  1.0000
  H   H1070     1.0  0.07917  0.37206  0.75718  1.0000
  C   C611      1.0  0.12088  0.46180  0.79958  1.0000
  H   H1071     1.0  0.30060  0.47238  0.87123  1.0000
  C   C612      1.0  0.32041  0.42849  0.83210  1.0000
  H   H1072     1.0  0.31467  0.47555  0.95502  1.0000
  H   H1073     1.0  0.31051  0.44725  0.81097  1.0000
  H   H1074     1.0  0.24273  0.39888  0.97670  1.0000
  H   H1075     1.0  0.31474  0.37285  0.85842  1.0000
  H   H1076     1.0  0.18767  0.48320  0.85660  1.0000
  H   H1077     1.0  0.04379  0.47714  0.81330  1.0000
  H   H1078     1.0  0.12436  0.34486  0.75334  1.0000
  H   H1079     1.0  0.05083  0.32858  0.73995  1.0000
  H   H1080     1.0  0.02869  0.33755  0.74914  1.0000
  H   H1081     1.0  0.31858  0.45308  0.98239  1.0000
  H   H1082     1.0  0.09601  0.34263  0.74920  1.0000
  H   H1083     1.0  0.28815  0.48367  0.90860  1.0000
  H   H1084     1.0  0.03848  0.41881  0.74610  1.0000
  H   H1085     1.0  0.12147  0.47505  0.79143  1.0000
  H   H1086     1.0  0.31859  0.42518  0.84644  1.0000
  H   H1087     1.0  0.31921  0.47586  0.90804  1.0000
  C   C613      1.0  0.28487  0.48159  0.81301  1.0000
  H   H1088     1.0  0.00323  0.35318  0.73886  1.0000
  C   C614      1.0  0.04583  0.35531  0.74264  1.0000
  H   H1089     1.0  0.23722  0.47993  0.89493  1.0000
  H   H1090     1.0  0.08965  0.48294  0.79779  1.0000
  H   H1091     1.0  0.29904  0.48020  0.80795  1.0000
  H   H1092     1.0  0.28781  0.34889  0.97933  1.0000
  C   C615      1.0  0.31051  0.48152  0.91897  1.0000
  H   H1093     1.0  0.10261  0.40876  0.73804  1.0000
  H   H1094     1.0  0.20437  0.39091  0.73779  1.0000
  C   C616      1.0  0.05671  0.38705  0.73743  1.0000
  H   H1095     1.0  0.05476  0.53619  0.17365  1.0000
  H   H1096     1.0  0.17055  0.50327  0.02317  1.0000
  H   H1097     1.0  0.07839  0.57758  0.11937  1.0000
  H   H1098     1.0  0.03989  0.49018  0.19460  1.0000
  S   S126      1.0  0.19114  0.56939  0.02857  1.0000
  H   H1099     1.0  0.08995  0.49122  0.22055  1.0000
  H   H1100     1.0  0.29415  0.57575  0.05895  1.0000
  H   H1101     1.0  0.04885  0.59146  0.14782  1.0000
  H   H1102     1.0  0.30594  0.56326  0.03276  1.0000
  C   C617      1.0  0.03679  0.53237  0.10000  1.0000
  C   C618      1.0  0.13971  0.48632  0.22895  1.0000
  C   C619      1.0  0.30175  0.59617  0.01831  1.0000
  C   C620      1.0  0.31976  0.54976  0.98850  1.0000
  H   H1103     1.0  0.02385  0.58705  0.10462  1.0000
  H   H1104     1.0  0.07728  0.51540  0.12076  1.0000
  H   H1105     1.0  0.25803  0.50351  0.98817  1.0000
  C   C621      1.0  0.07766  0.50485  0.19890  1.0000
  C   C622      1.0  0.05466  0.50942  0.11753  1.0000
  Fe  Fe60      1.0  0.13663  0.52777  0.11670  1.0000
  S   S127      1.0  0.13201  0.51564  0.14542  1.0000
  S   S128      1.0  0.16431  0.52207  0.10163  1.0000
  Fe  Fe61      1.0  0.09818  0.53853  0.11670  1.0000
  S   S129      1.0  0.09065  0.52730  0.14515  1.0000
  Fe  Fe62      1.0  0.11060  0.53930  0.14817  1.0000
  S   S130      1.0  0.09984  0.55193  0.17129  1.0000
  Fe  Fe63      1.0  0.11241  0.50479  0.14023  1.0000
  H   H1106     1.0  0.11544  0.50173  0.22274  1.0000
  S   S131      1.0  0.11662  0.55260  0.11973  1.0000
  S   S132      1.0  0.11859  0.51497  0.11134  1.0000
  C   C623      1.0  0.07129  0.58728  0.12740  1.0000
  S   S133      1.0  0.21587  0.50341  0.98631  1.0000
  C   C624      1.0  0.01757  0.56931  0.13001  1.0000
  H   H1107     1.0  0.15274  0.50198  0.08422  1.0000
  H   H1108     1.0  0.05003  0.56976  0.12204  1.0000
  H   H1109     1.0  0.18324  0.52754  0.00820  1.0000
  C   C625      1.0  0.01472  0.59019  0.14803  1.0000
  H   H1110     1.0  0.28755  0.49717  0.99223  1.0000
  H   H1111     1.0  0.05372  0.54520  0.14220  1.0000
  H   H1112     1.0  0.08022  0.58830  0.13489  1.0000
  C   C626      1.0  0.16626  0.50592  0.04998  1.0000
  H   H1113     1.0  0.06016  0.56906  0.14871  1.0000
  H   H1114     1.0  0.02635  0.55816  0.12464  1.0000
  C   C627      1.0  0.18109  0.52447  0.02261  1.0000
  S   S134      1.0  0.13507  0.55266  0.23050  1.0000
  H   H1115     1.0  0.06381  0.58189  0.17219  1.0000
  H   H1116     1.0  0.30306  0.52749  0.06094  1.0000
  H   H1117     1.0  0.15477  0.52255  0.02751  1.0000
  H   H1118     1.0  0.19350  0.51709  0.02647  1.0000
  C   C628      1.0  0.28677  0.58686  0.02545  1.0000
  H   H1119     1.0  0.14422  0.53747  0.05189  1.0000
  H   H1120     1.0  0.29711  0.48856  0.02745  1.0000
  C   C629      1.0  0.03803  0.57711  0.23263  1.0000
  S   S135      1.0  0.07714  0.55076  0.10137  1.0000
  H   H1121     1.0  0.03440  0.56380  0.16567  1.0000
  H   H1122     1.0  0.05705  0.49033  0.08400  1.0000
  C   C630      1.0  0.11726  0.54367  0.06367  1.0000
  H   H1123     1.0  0.03517  0.53609  0.14654  1.0000
  H   H1124     1.0  0.31156  0.52566  0.99966  1.0000
  H   H1125     1.0  0.00450  0.59573  0.22899  1.0000
  C   C631      1.0  0.13405  0.51373  0.05881  1.0000
  H   H1126     1.0  0.06363  0.60173  0.19876  1.0000
  H   H1127     1.0  0.23202  0.56501  0.02741  1.0000
  H   H1128     1.0  0.13041  0.51700  0.04595  1.0000
  H   H1129     1.0  0.04587  0.55620  0.08926  1.0000
  H   H1130     1.0  0.99540  0.57749  0.16838  1.0000
  H   H1131     1.0  0.11290  0.54716  0.05118  1.0000
  C   C632      1.0  0.04280  0.57944  0.13003  1.0000
  H   H1132     1.0  0.03595  0.52705  0.17829  1.0000
  Fe  Fe64      1.0  0.24909  0.54281  0.99332  1.0000
  H   H1133     1.0  0.04450  0.59699  0.19598  1.0000
  C   C633      1.0  0.29216  0.56246  0.06549  1.0000
  H   H1134     1.0  0.16448  0.50728  0.16620  1.0000
  H   H1135     1.0  0.10731  0.58974  0.22840  1.0000
  C   C634      1.0  0.14164  0.48951  0.19213  1.0000
  C   C635      1.0  0.11215  0.54908  0.18683  1.0000
  C   C636      1.0  0.12605  0.55715  0.18287  1.0000
  C   C637      1.0  0.13348  0.55762  0.19627  1.0000
  C   C638      1.0  0.12708  0.55001  0.21366  1.0000
  C   C639      1.0  0.11391  0.54106  0.21739  1.0000
  C   C640      1.0  0.10626  0.54089  0.20410  1.0000
  H   H1136     1.0  0.13051  0.56376  0.16960  1.0000
  H   H1137     1.0  0.14377  0.56445  0.19321  1.0000
  C   C641      1.0  0.06597  0.58373  0.23179  1.0000
  H   H1138     1.0  0.09545  0.53476  0.20727  1.0000
  C   C642      1.0  0.15114  0.49194  0.07851  1.0000
  H   H1139     1.0  0.06309  0.60486  0.16770  1.0000
  C   C643      1.0  0.18337  0.55579  0.04848  1.0000
  C   C644      1.0  0.19299  0.53910  0.05422  1.0000
  C   C645      1.0  0.18700  0.52894  0.07058  1.0000
  C   C646      1.0  0.17112  0.53518  0.08110  1.0000
  C   C647      1.0  0.16124  0.55166  0.07519  1.0000
  C   C648      1.0  0.16746  0.56201  0.05899  1.0000
  H   H1140     1.0  0.20524  0.53416  0.04628  1.0000
  H   H1141     1.0  0.19468  0.51618  0.07509  1.0000
  H   H1142     1.0  0.14899  0.55658  0.08323  1.0000
  H   H1143     1.0  0.15995  0.57491  0.05462  1.0000
  H   H1144     1.0  0.01036  0.56569  0.10001  1.0000
  H   H1145     1.0  0.27842  0.59125  0.01570  1.0000
  C   C649      1.0  0.06241  0.57388  0.20701  1.0000
  H   H1146     1.0  0.25806  0.57634  0.03554  1.0000
  H   H1147     1.0  0.13899  0.52860  0.07491  1.0000
  C   C650      1.0  0.04827  0.54318  0.09726  1.0000
  H   H1148     1.0  0.05721  0.49642  0.12538  1.0000
  H   H1149     1.0  0.13868  0.48849  0.08630  1.0000
  H   H1150     1.0  0.11821  0.55573  0.06655  1.0000
  H   H1151     1.0  0.17683  0.53685  0.02705  1.0000
  H   H1152     1.0  0.13292  0.51659  0.17859  1.0000
  H   H1153     1.0  0.02042  0.59273  0.15766  1.0000
  H   H1154     1.0  0.02573  0.53697  0.09390  1.0000
  C   C651      1.0  0.05537  0.58155  0.13997  1.0000
  N   N36       1.0  0.05753  0.57255  0.22641  1.0000
  N   N37       1.0  0.02614  0.57466  0.14110  1.0000
  C   C652      1.0  0.09228  0.49127  0.20654  1.0000
  C   C653      1.0  0.24818  0.49488  0.05070  1.0000
  C   C654      1.0  0.28805  0.56119  0.08511  1.0000
  H   H1155     1.0  0.05543  0.56623  0.20324  1.0000
  C   C655      1.0  0.30486  0.52843  0.04681  1.0000
  H   H1156     1.0  0.13738  0.51482  0.19907  1.0000
  C   C656      1.0  0.01220  0.58359  0.11421  1.0000
  H   H1157     1.0  0.01723  0.55605  0.16410  1.0000
  C   C657      1.0  0.05521  0.54028  0.23344  1.0000
  C   C658      1.0  0.06291  0.53712  0.10475  1.0000
  H   H1158     1.0  0.07918  0.50471  0.18503  1.0000
  C   C659      1.0  0.30788  0.53914  0.99314  1.0000
  S   S136      1.0  0.02648  0.50120  0.11285  1.0000
  H   H1159     1.0  0.08163  0.58913  0.17448  1.0000
  H   H1160     1.0  0.99360  0.49118  0.20461  1.0000
  H   H1161     1.0  0.01727  0.49822  0.04881  1.0000
  H   H1162     1.0  0.02090  0.49411  0.18592  1.0000
  H   H1163     1.0  0.05602  0.51816  0.16475  1.0000
  H   H1164     1.0  0.01418  0.60222  0.13748  1.0000
  C   C660      1.0  0.00223  0.57731  0.10489  1.0000
  H   H1165     1.0  0.05608  0.54060  0.21963  1.0000
  C   C661      1.0  0.12307  0.48824  0.22234  1.0000
  H   H1166     1.0  0.29874  0.56420  0.08875  1.0000
  H   H1167     1.0  0.31540  0.53526  0.03947  1.0000
  S   S137      1.0  0.27625  0.53250  0.99792  1.0000
  C   C662      1.0  0.04003  0.51540  0.11006  1.0000
  H   H1168     1.0  0.99916  0.48867  0.07654  1.0000
  H   H1169     1.0  0.17804  0.49523  0.05078  1.0000
  H   H1170     1.0  0.27127  0.49996  0.01960  1.0000
  H   H1171     1.0  0.30969  0.59253  0.00603  1.0000
  C   C663      1.0  0.31089  0.50985  0.04414  1.0000
  C   C664      1.0  0.06601  0.52023  0.11497  1.0000
  H   H1172     1.0  0.32242  0.50318  0.04992  1.0000
  H   H1173     1.0  0.03150  0.57295  0.22474  1.0000
  H   H1174     1.0  0.16913  0.50593  0.18703  1.0000
  H   H1175     1.0  0.07634  0.56777  0.20299  1.0000
  H   H1176     1.0  0.99860  0.58769  0.09361  1.0000
  N   N38       1.0  0.28074  0.55649  0.04138  1.0000
  H   H1177     1.0  0.22789  0.57457  0.04590  1.0000
  C   C665      1.0  0.28757  0.53753  0.04086  1.0000
  C   C666      1.0  0.26395  0.56251  0.03498  1.0000
  C   C667      1.0  0.27717  0.55895  0.05975  1.0000
  C   C668      1.0  0.29114  0.54600  0.98997  1.0000
  C   C669      1.0  0.02949  0.55976  0.15639  1.0000
  C   C670      1.0  0.24976  0.55211  0.04506  1.0000
  H   H1178     1.0  0.27584  0.57061  0.08899  1.0000
  H   H1179     1.0  0.29667  0.56339  0.01586  1.0000
  H   H1180     1.0  0.10891  0.50926  0.19536  1.0000
  H   H1181     1.0  0.03999  0.59189  0.12033  1.0000
  S   S138      1.0  0.22836  0.53075  0.01293  1.0000
  H   H1182     1.0  0.04136  0.49567  0.17126  1.0000
  C   C671      1.0  0.06730  0.59201  0.17624  1.0000
  H   H1183     1.0  0.27816  0.52970  0.04939  1.0000
  H   H1184     1.0  0.28907  0.53585  0.02748  1.0000
  H   H1185     1.0  0.26643  0.56209  0.02098  1.0000
  H   H1186     1.0  0.07770  0.51807  0.19977  1.0000
  H   H1187     1.0  0.26597  0.57008  0.06189  1.0000
  H   H1188     1.0  0.27303  0.54743  0.06927  1.0000
  H   H1189     1.0  0.27895  0.59108  0.03750  1.0000
  H   H1190     1.0  0.03701  0.49030  0.23070  1.0000
  H   H1191     1.0  0.03268  0.60538  0.22078  1.0000
  H   H1192     1.0  0.99452  0.53726  0.14756  1.0000
  H   H1193     1.0  0.24879  0.54911  0.05932  1.0000
  H   H1194     1.0  0.25278  0.53970  0.04082  1.0000
  S   S139      1.0  0.99903  0.53033  0.20714  1.0000
  H   H1195     1.0  0.12272  0.50938  0.06837  1.0000
  C   C672      1.0  0.14179  0.50915  0.18746  1.0000
  C   C673      1.0  0.02934  0.59633  0.23339  1.0000
  H   H1196     1.0  0.00786  0.52419  0.17310  1.0000
  H   H1197     1.0  0.29658  0.61045  0.01555  1.0000
  H   H1198     1.0  0.10934  0.53456  0.23056  1.0000
  H   H1199     1.0  0.28676  0.54782  0.09236  1.0000
  H   H1200     1.0  0.06748  0.60013  0.11868  1.0000
  H   H1201     1.0  0.10744  0.53792  0.07431  1.0000
  C   C674      1.0  0.04741  0.53030  0.16821  1.0000
  C   C675      1.0  0.04183  0.54276  0.15191  1.0000
  C   C676      1.0  0.05866  0.59230  0.19524  1.0000
  C   C677      1.0  0.09293  0.59360  0.23064  1.0000
  C   C678      1.0  0.99449  0.49650  0.04218  1.0000
  Fe  Fe65      1.0  0.21128  0.55742  0.00774  1.0000
  C   C679      1.0  0.15982  0.51232  0.17829  1.0000
  H   H1202     1.0  0.22219  0.55429  0.04871  1.0000
  C   C680      1.0  0.16720  0.51388  0.03025  1.0000
  H   H1203     1.0  0.09135  0.57908  0.21345  1.0000
  H   H1204     1.0  0.11232  0.49356  0.18303  1.0000
  H   H1205     1.0  0.99178  0.60661  0.17389  1.0000
  H   H1206     1.0  0.30062  0.50242  0.05061  1.0000
  H   H1207     1.0  0.00601  0.56433  0.13802  1.0000
  C   C681      1.0  0.29334  0.56679  0.02875  1.0000
  C   C682      1.0  0.13490  0.53095  0.06248  1.0000
  H   H1208     1.0  0.30465  0.55330  0.06223  1.0000
  C   C683      1.0  0.23193  0.56217  0.04149  1.0000
  H   H1209     1.0  0.16801  0.51546  0.05627  1.0000
  H   H1210     1.0  0.15926  0.52651  0.17470  1.0000
  H   H1211     1.0  0.00372  0.59550  0.11824  1.0000
  H   H1212     1.0  0.25345  0.49372  0.01715  1.0000
  Fe  Fe66      1.0  0.99837  0.51397  0.11304  1.0000
  H   H1213     1.0  0.14651  0.49174  0.03788  1.0000
  H   H1214     1.0  0.22165  0.49783  0.02121  1.0000
  H   H1215     1.0  0.06141  0.59771  0.22617  1.0000
  H   H1216     1.0  0.31015  0.59274  0.02790  1.0000
  N   N39       1.0  0.15016  0.49927  0.05961  1.0000
  C   C684      1.0  0.08607  0.57968  0.22730  1.0000
  H   H1217     1.0  0.02750  0.48885  0.07994  1.0000
  H   H1218     1.0  0.30935  0.48744  0.00577  1.0000
  H   H1219     1.0  0.15195  0.58059  0.23256  1.0000
  H   H1220     1.0  0.14628  0.49709  0.22176  1.0000
  C   C685      1.0  0.99577  0.58879  0.15715  1.0000
  Fe  Fe67      1.0  0.22096  0.52749  0.98988  1.0000
  H   H1221     1.0  0.25366  0.50643  0.04830  1.0000
  H   H1222     1.0  0.99825  0.50364  0.02853  1.0000
  S   S140      1.0  0.23285  0.57000  0.98996  1.0000
  C   C686      1.0  0.01066  0.48781  0.04984  1.0000
  C   C687      1.0  0.03504  0.48847  0.18396  1.0000
  H   H1223     1.0  0.00033  0.48712  0.23362  1.0000
  H   H1224     1.0  0.31460  0.50995  0.03002  1.0000
  H   H1225     1.0  0.07808  0.54956  0.23035  1.0000
  H   H1226     1.0  0.08922  0.60628  0.22163  1.0000
  C   C688      1.0  0.99583  0.53388  0.17414  1.0000
  S   S141      1.0  0.20228  0.55333  0.98596  1.0000
  C   C689      1.0  0.26586  0.48843  0.02170  1.0000
  H   H1227     1.0  0.06495  0.50189  0.20624  1.0000
  H   H1228     1.0  0.23589  0.49900  0.04594  1.0000
  H   H1229     1.0  0.24515  0.48945  0.06495  1.0000
  H   H1230     1.0  0.10264  0.48799  0.11922  1.0000
  C   C690      1.0  0.11023  0.49519  0.19658  1.0000
  H   H1231     1.0  0.07768  0.51856  0.23475  1.0000
  C   C691      1.0  0.21952  0.48608  0.01972  1.0000
  Fe  Fe68      1.0  0.20781  0.88079  0.40415  1.0000
  S   S142      1.0  0.21155  0.85957  0.39072  1.0000
  S   S143      1.0  0.20261  0.87146  0.43308  1.0000
  Fe  Fe69      1.0  0.21140  0.90767  0.37049  1.0000
  S   S144      1.0  0.21544  0.88857  0.35402  1.0000
  S   S145      1.0  0.21130  0.93566  0.35754  1.0000
  Fe  Fe70      1.0  0.19380  0.87855  0.37426  1.0000
  S   S146      1.0  0.17032  0.87134  0.37143  1.0000
  Fe  Fe71      1.0  0.23288  0.87128  0.37197  1.0000
  S   S147      1.0  0.18826  0.89915  0.38932  1.0000
  S   S148      1.0  0.23064  0.89111  0.38677  1.0000
  H   H1232     1.0  0.02426  0.65443  0.40548  1.0000
  C   C692      1.0  0.04903  0.55859  0.33360  1.0000
  C   C693      1.0  0.25261  0.94812  0.41444  1.0000
  S   S149      1.0  0.02827  0.60466  0.35690  1.0000
  H   H1233     1.0  0.22731  0.55358  0.25669  1.0000
  Fe  Fe72      1.0  0.10685  0.63797  0.35425  1.0000
  S   S150      1.0  0.08193  0.65536  0.36451  1.0000
  Fe  Fe73      1.0  0.12094  0.63380  0.38647  1.0000
  S   S151      1.0  0.09708  0.65057  0.39897  1.0000
  S   S152      1.0  0.14347  0.62090  0.39972  1.0000
  Fe  Fe74      1.0  0.08307  0.63633  0.38990  1.0000
  S   S153      1.0  0.05852  0.62896  0.40616  1.0000
  Fe  Fe75      1.0  0.09832  0.66805  0.37242  1.0000
  S   S154      1.0  0.09025  0.69679  0.37124  1.0000
  S   S155      1.0  0.10685  0.61783  0.37943  1.0000
  S   S156      1.0  0.12344  0.65236  0.36017  1.0000
  H   H1234     1.0  0.01632  0.61679  0.29905  1.0000
  H   H1235     1.0  0.32035  0.83661  0.35162  1.0000
  H   H1236     1.0  0.05071  0.72002  0.34515  1.0000
  H   H1237     1.0  0.06403  0.73997  0.26736  1.0000
  C   C694      1.0  0.18604  0.67143  0.43812  1.0000
  H   H1238     1.0  0.29224  0.83155  0.45629  1.0000
  C   C695      1.0  0.26926  0.97979  0.36076  1.0000
  C   C696      1.0  0.28831  0.95727  0.46426  1.0000
  C   C697      1.0  0.06233  0.56069  0.34230  1.0000
  H   H1239     1.0  0.31865  0.97791  0.41241  1.0000
  H   H1240     1.0  0.99872  0.58033  0.35202  1.0000
  C   C698      1.0  0.05827  0.74029  0.28125  1.0000
  H   H1241     1.0  0.08507  0.68868  0.27013  1.0000
  H   H1242     1.0  0.03244  0.83499  0.46892  1.0000
  S   S157      1.0  0.15541  0.64110  0.46391  1.0000
  H   H1243     1.0  0.23289  0.85274  0.31404  1.0000
  H   H1244     1.0  0.03345  0.59997  0.24347  1.0000
  H   H1245     1.0  0.29109  0.90619  0.42282  1.0000
  H   H1246     1.0  0.27145  0.94466  0.36690  1.0000
  S   S158      1.0  0.11183  0.81834  0.46080  1.0000
  S   S159      1.0  0.00215  0.77035  0.36985  1.0000
  H   H1247     1.0  0.06277  0.55104  0.35488  1.0000
  S   S160      1.0  0.21472  0.98199  0.40582  1.0000
  Fe  Fe76      1.0  0.01176  0.78407  0.34248  1.0000
  S   S161      1.0  0.04019  0.78197  0.33064  1.0000
  S   S162      1.0  0.03194  0.65253  0.47370  1.0000
  Fe  Fe77      1.0  0.14536  0.80171  0.34774  1.0000
  S   S163      1.0  0.16144  0.77604  0.35858  1.0000
  S   S164      1.0  0.15882  0.82294  0.33051  1.0000
  Fe  Fe78      1.0  0.11144  0.79137  0.36829  1.0000
  S   S165      1.0  0.12499  0.76539  0.38197  1.0000
  S   S166      1.0  0.08226  0.79942  0.37551  1.0000
  Fe  Fe79      1.0  0.14373  0.77954  0.38395  1.0000
  S   S167      1.0  0.15735  0.77508  0.40560  1.0000
  Fe  Fe80      1.0  0.14140  0.76427  0.35533  1.0000
  S   S168      1.0  0.14890  0.73940  0.34601  1.0000
  S   S169      1.0  0.12835  0.80573  0.37337  1.0000
  S   S170      1.0  0.12707  0.78963  0.34141  1.0000
  C   C699      1.0  0.05147  0.78744  0.34306  1.0000
  C   C700      1.0  0.06900  0.78781  0.33655  1.0000
  C   C701      1.0  0.07859  0.79117  0.34652  1.0000
  C   C702      1.0  0.07057  0.79471  0.36293  1.0000
  C   C703      1.0  0.05288  0.79482  0.36928  1.0000
  C   C704      1.0  0.04337  0.79106  0.35944  1.0000
  H   H1248     1.0  0.07511  0.78571  0.32367  1.0000
  H   H1249     1.0  0.09207  0.79139  0.34133  1.0000
  H   H1250     1.0  0.04654  0.79769  0.38191  1.0000
  H   H1251     1.0  0.02979  0.79102  0.36453  1.0000
  C   C705      1.0  0.12462  0.80664  0.44528  1.0000
  C   C706      1.0  0.11737  0.80502  0.43242  1.0000
  C   C707      1.0  0.12745  0.79540  0.42009  1.0000
  C   C708      1.0  0.14490  0.78782  0.42036  1.0000
  C   C709      1.0  0.15224  0.78974  0.43301  1.0000
  C   C710      1.0  0.14198  0.79879  0.44575  1.0000
  H   H1252     1.0  0.10384  0.81086  0.43224  1.0000
  H   H1253     1.0  0.12160  0.79357  0.41063  1.0000
  H   H1254     1.0  0.16576  0.78400  0.43311  1.0000
  H   H1255     1.0  0.14751  0.79977  0.45585  1.0000
  S   S171      1.0  0.99456  0.77529  0.33123  1.0000
  H   H1256     1.0  0.13143  0.59199  0.24305  1.0000
  H   H1257     1.0  0.09694  0.74720  0.30067  1.0000
  C   C711      1.0  0.12104  0.58149  0.33425  1.0000
  H   H1258     1.0  0.23565  0.82300  0.33332  1.0000
  S   S172      1.0  0.10514  0.56879  0.27230  1.0000
  C   C712      1.0  0.16125  0.60311  0.29843  1.0000
  C   C713      1.0  0.08123  0.70229  0.32675  1.0000
  C   C714      1.0  0.99582  0.72766  0.40344  1.0000
  C   C715      1.0  0.03055  0.56184  0.34520  1.0000
  H   H1259     1.0  0.24995  0.95690  0.36902  1.0000
  H   H1260     1.0  0.26615  0.93435  0.43554  1.0000
  H   H1261     1.0  0.31941  0.83293  0.47093  1.0000
  H   H1262     1.0  0.00434  0.73261  0.40831  1.0000
  H   H1263     1.0  0.03108  0.55189  0.35759  1.0000
  H   H1264     1.0  0.10483  0.77565  0.31155  1.0000
  H   H1265     1.0  0.03101  0.73016  0.37067  1.0000
  C   C716      1.0  0.14526  0.62598  0.41859  1.0000
  C   C717      1.0  0.16133  0.61994  0.42342  1.0000
  C   C718      1.0  0.16396  0.62425  0.43768  1.0000
  C   C719      1.0  0.15041  0.63419  0.44773  1.0000
  C   C720      1.0  0.13404  0.63988  0.44335  1.0000
  C   C721      1.0  0.13152  0.63591  0.42864  1.0000
  H   H1266     1.0  0.17197  0.61222  0.41579  1.0000
  H   H1267     1.0  0.17666  0.61997  0.44085  1.0000
  H   H1268     1.0  0.12355  0.64778  0.45092  1.0000
  H   H1269     1.0  0.11905  0.64055  0.42505  1.0000
  C   C722      1.0  0.10683  0.70822  0.36444  1.0000
  C   C723      1.0  0.10335  0.72471  0.36790  1.0000
  C   C724      1.0  0.11622  0.73434  0.36227  1.0000
  C   C725      1.0  0.13263  0.72752  0.35314  1.0000
  C   C726      1.0  0.13607  0.71106  0.34954  1.0000
  C   C727      1.0  0.12320  0.70139  0.35524  1.0000
  H   H1270     1.0  0.09062  0.73018  0.37479  1.0000
  H   H1271     1.0  0.11324  0.74725  0.36455  1.0000
  H   H1272     1.0  0.14867  0.70584  0.34227  1.0000
  H   H1273     1.0  0.12588  0.68878  0.35231  1.0000
  C   C728      1.0  0.28296  0.97132  0.37218  1.0000
  H   H1274     1.0  0.15383  0.87660  0.44878  1.0000
  H   H1275     1.0  0.00660  0.54883  0.27852  1.0000
  C   C729      1.0  0.21113  0.97663  0.37545  1.0000
  C   C730      1.0  0.03689  0.60900  0.37206  1.0000
  C   C731      1.0  0.05472  0.60771  0.36903  1.0000
  C   C732      1.0  0.06139  0.61361  0.37969  1.0000
  C   C733      1.0  0.05040  0.61992  0.39396  1.0000
  C   C734      1.0  0.03276  0.61987  0.39779  1.0000
  C   C735      1.0  0.02593  0.61480  0.38660  1.0000
  H   H1276     1.0  0.06336  0.60273  0.35812  1.0000
  H   H1277     1.0  0.07504  0.61335  0.37675  1.0000
  H   H1278     1.0  0.02425  0.62416  0.40910  1.0000
  H   H1279     1.0  0.01218  0.61550  0.38914  1.0000
  H   H1280     1.0  0.25632  0.98313  0.36945  1.0000
  H   H1281     1.0  0.28165  0.95814  0.37966  1.0000
  C   C736      1.0  0.01796  0.54320  0.33594  1.0000
  C   C737      1.0  0.01431  0.65766  0.41703  1.0000
  C   C738      1.0  0.17179  0.85558  0.36010  1.0000
  C   C739      1.0  0.16491  0.84099  0.36915  1.0000
  C   C740      1.0  0.16186  0.83039  0.36012  1.0000
  C   C741      1.0  0.16510  0.83458  0.34193  1.0000
  C   C742      1.0  0.17262  0.84879  0.33282  1.0000
  C   C743      1.0  0.17603  0.85924  0.34189  1.0000
  H   H1282     1.0  0.16144  0.83812  0.38323  1.0000
  H   H1283     1.0  0.15683  0.81909  0.36731  1.0000
  H   H1284     1.0  0.17521  0.85210  0.31874  1.0000
  H   H1285     1.0  0.18091  0.87073  0.33478  1.0000
  C   C744      1.0  0.21133  0.94843  0.37143  1.0000
  C   C745      1.0  0.21240  0.94111  0.38885  1.0000
  C   C746      1.0  0.21303  0.95155  0.39949  1.0000
  H   H1286     1.0  0.17904  0.80062  0.48245  1.0000
  H   H1287     1.0  0.29196  0.97675  0.33277  1.0000
  C   C747      1.0  0.21058  0.96622  0.36480  1.0000
  H   H1288     1.0  0.21270  0.92743  0.39414  1.0000
  H   H1289     1.0  0.21366  0.94585  0.41298  1.0000
  H   H1290     1.0  0.26128  0.92037  0.41543  1.0000
  H   H1291     1.0  0.20945  0.97198  0.35142  1.0000
  C   C748      1.0  0.21597  0.93179  0.46512  1.0000
  C   C749      1.0  0.23726  0.88481  0.45974  1.0000
  H   H1292     1.0  0.03228  0.80543  0.44726  1.0000
  C   C750      1.0  0.21768  0.86758  0.45995  1.0000
  C   C751      1.0  0.21611  0.87666  0.44303  1.0000
  C   C752      1.0  0.22531  0.88964  0.43433  1.0000
  C   C753      1.0  0.23595  0.89366  0.44268  1.0000
  H   H1293     1.0  0.00529  0.70294  0.47578  1.0000
  H   H1294     1.0  0.00041  0.70230  0.41999  1.0000
  H   H1295     1.0  0.22390  0.89688  0.42136  1.0000
  H   H1296     1.0  0.24289  0.90378  0.43600  1.0000
  H   H1297     1.0  0.19086  0.67777  0.40283  1.0000
  C   C754      1.0  0.08977  0.71800  0.32173  1.0000
  H   H1298     1.0  0.05916  0.62808  0.45218  1.0000
  C   C755      1.0  0.09237  0.48910  0.27468  1.0000
  H   H1299     1.0  0.24108  0.98012  0.42194  1.0000
  C   C756      1.0  0.17177  0.53463  0.30190  1.0000
  C   C757      1.0  0.16426  0.51841  0.30770  1.0000
  C   C758      1.0  0.16878  0.59306  0.28396  1.0000
  H   H1300     1.0  0.17083  0.56848  0.30251  1.0000
  H   H1301     1.0  0.16672  0.54167  0.31262  1.0000
  H   H1302     1.0  0.18604  0.53023  0.30030  1.0000
  C   C759      1.0  0.27752  0.96369  0.45025  1.0000
  H   H1303     1.0  0.14986  0.52208  0.31065  1.0000
  H   H1304     1.0  0.16874  0.51079  0.29744  1.0000
  H   H1305     1.0  0.16850  0.51005  0.31973  1.0000
  H   H1306     1.0  0.15718  0.87976  0.41573  1.0000
  H   H1307     1.0  0.17819  0.70861  0.34574  1.0000
  H   H1308     1.0  0.32116  0.97796  0.37384  1.0000
  H   H1309     1.0  0.27759  0.79766  0.37824  1.0000
  H   H1310     1.0  0.05598  0.73034  0.31531  1.0000
  N   N40       1.0  0.01591  0.56150  0.33761  1.0000
  H   H1311     1.0  0.17409  0.69442  0.41093  1.0000
  H   H1312     1.0  0.19642  0.80938  0.46678  1.0000
  C   C760      1.0  0.30902  0.84548  0.35702  1.0000
  H   H1313     1.0  0.24955  0.81939  0.37177  1.0000
  H   H1314     1.0  0.00040  0.71712  0.31485  1.0000
  H   H1315     1.0  0.19986  0.70864  0.34635  1.0000
  H   H1316     1.0  0.08688  0.50274  0.27411  1.0000
  H   H1317     1.0  0.29765  0.88049  0.37527  1.0000
  H   H1318     1.0  0.17614  0.75799  0.45216  1.0000
  S   S173      1.0  0.25745  0.85244  0.36333  1.0000
  S   S174      1.0  0.13107  0.53027  0.28035  1.0000
  H   H1319     1.0  0.30335  0.88833  0.43623  1.0000
  H   H1320     1.0  0.02999  0.53947  0.32624  1.0000
  C   C761      1.0  0.01946  0.54482  0.28119  1.0000
  C   C762      1.0  0.01624  0.57335  0.31980  1.0000
  H   H1321     1.0  0.22488  0.95976  0.44116  1.0000
  C   C763      1.0  0.26472  0.81866  0.47738  1.0000
  Fe  Fe81      1.0  0.10744  0.51903  0.28854  1.0000
  H   H1322     1.0  0.31377  0.87067  0.46769  1.0000
  C   C764      1.0  0.08879  0.74912  0.31355  1.0000
  H   H1323     1.0  0.06527  0.53062  0.29156  1.0000
  H   H1324     1.0  0.29908  0.85343  0.40757  1.0000
  C   C765      1.0  0.14890  0.57767  0.26049  1.0000
  C   C766      1.0  0.28537  0.96577  0.33596  1.0000
  H   H1325     1.0  0.16338  0.61654  0.29352  1.0000
  C   C767      1.0  0.24823  0.97785  0.43235  1.0000
  H   H1326     1.0  0.04773  0.85678  0.46844  1.0000
  H   H1327     1.0  0.27734  0.77487  0.38584  1.0000
  H   H1328     1.0  0.29399  0.86083  0.44761  1.0000
  C   C768      1.0  0.11282  0.76231  0.31485  1.0000
  H   H1329     1.0  0.09812  0.71518  0.33123  1.0000
  H   H1330     1.0  0.25259  0.96038  0.40428  1.0000
  H   H1331     1.0  0.06352  0.52070  0.25555  1.0000
  H   H1332     1.0  0.24474  0.94875  0.34560  1.0000
  Fe  Fe82      1.0  0.08376  0.55444  0.28135  1.0000
  H   H1333     1.0  0.29039  0.97481  0.39419  1.0000
  C   C769      1.0  0.11739  0.59831  0.33720  1.0000
  H   H1334     1.0  0.12551  0.57036  0.34404  1.0000
  H   H1335     1.0  0.04074  0.74271  0.33976  1.0000
  H   H1336     1.0  0.99550  0.51875  0.32509  1.0000
  H   H1337     1.0  0.14720  0.48693  0.25219  1.0000
  H   H1338     1.0  0.09794  0.62449  0.45100  1.0000
  H   H1339     1.0  0.11190  0.59168  0.29404  1.0000
  H   H1340     1.0  0.19119  0.68206  0.36536  1.0000
  C   C770      1.0  0.26447  0.83499  0.46270  1.0000
  C   C771      1.0  0.04397  0.52207  0.28889  1.0000
  H   H1341     1.0  0.01849  0.51571  0.32264  1.0000
  H   H1342     1.0  0.13692  0.75151  0.47568  1.0000
  C   C772      1.0  0.17217  0.66264  0.39270  1.0000
  H   H1343     1.0  0.18281  0.59295  0.27976  1.0000
  C   C773      1.0  0.26175  0.94807  0.42870  1.0000
  H   H1344     1.0  0.26719  0.94206  0.33620  1.0000
  C   C774      1.0  0.00563  0.52063  0.33055  1.0000
  C   C775      1.0  0.18614  0.69426  0.37012  1.0000
  H   H1345     1.0  0.01685  0.68003  0.28445  1.0000
  S   S175      1.0  0.99677  0.63358  0.32837  1.0000
  H   H1346     1.0  0.14205  0.58585  0.27005  1.0000
  N   N41       1.0  0.05258  0.65260  0.31577  1.0000
  C   C776      1.0  0.06321  0.63615  0.31010  1.0000
  C   C777      1.0  0.06341  0.66612  0.30917  1.0000
  C   C778      1.0  0.04891  0.64867  0.33547  1.0000
  C   C779      1.0  0.03555  0.65927  0.30980  1.0000
  C   C780      1.0  0.03517  0.65575  0.29223  1.0000
  C   C781      1.0  0.05510  0.62004  0.31786  1.0000
  C   C782      1.0  0.03937  0.66443  0.34400  1.0000
  C   C783      1.0  0.06897  0.67222  0.28918  1.0000
  C   C784      1.0  0.08156  0.68419  0.28450  1.0000
  C   C785      1.0  0.01838  0.66582  0.28620  1.0000
  C   C786      1.0  0.06266  0.60648  0.30674  1.0000
  C   C787      1.0  0.03420  0.65872  0.36377  1.0000
  H   H1347     1.0  0.07605  0.63250  0.31381  1.0000
  H   H1348     1.0  0.06630  0.63809  0.29576  1.0000
  H   H1349     1.0  0.05629  0.67823  0.31366  1.0000
  H   H1350     1.0  0.07535  0.66122  0.31467  1.0000
  H   H1351     1.0  0.06120  0.64261  0.34029  1.0000
  H   H1352     1.0  0.04075  0.63887  0.34105  1.0000
  H   H1353     1.0  0.02514  0.65352  0.31966  1.0000
  H   H1354     1.0  0.03097  0.67352  0.30904  1.0000
  H   H1355     1.0  0.03594  0.64177  0.29363  1.0000
  H   H1356     1.0  0.04609  0.65934  0.28169  1.0000
  H   H1357     1.0  0.05803  0.61385  0.33091  1.0000
  H   H1358     1.0  0.04081  0.62350  0.31938  1.0000
  H   H1359     1.0  0.02742  0.67154  0.33903  1.0000
  H   H1360     1.0  0.04791  0.67355  0.34144  1.0000
  H   H1361     1.0  0.07562  0.66122  0.28278  1.0000
  H   H1362     1.0  0.05746  0.67980  0.28364  1.0000
  H   H1363     1.0  0.12540  0.49872  0.25060  1.0000
  H   H1364     1.0  0.07432  0.70039  0.34058  1.0000
  H   H1365     1.0  0.12134  0.76237  0.32326  1.0000
  C   C788      1.0  0.08386  0.62976  0.45508  1.0000
  H   H1366     1.0  0.14376  0.87696  0.47772  1.0000
  H   H1367     1.0  0.20091  0.54901  0.25089  1.0000
  H   H1368     1.0  0.05939  0.61169  0.29368  1.0000
  H   H1369     1.0  0.07695  0.60239  0.30529  1.0000
  H   H1370     1.0  0.05715  0.59487  0.31317  1.0000
  H   H1371     1.0  0.02701  0.67017  0.36941  1.0000
  H   H1372     1.0  0.02574  0.64936  0.36749  1.0000
  H   H1373     1.0  0.04584  0.65249  0.36946  1.0000
  C   C789      1.0  0.14719  0.68231  0.40759  1.0000
  C   C790      1.0  0.16368  0.65957  0.37946  1.0000
  C   C791      1.0  0.13257  0.69006  0.39716  1.0000
  C   C792      1.0  0.11488  0.68881  0.40914  1.0000
  C   C793      1.0  0.29941  0.84423  0.42049  1.0000
  H   H1374     1.0  0.14492  0.66960  0.41616  1.0000
  H   H1375     1.0  0.14467  0.69117  0.41651  1.0000
  H   H1376     1.0  0.15063  0.65706  0.38607  1.0000
  H   H1377     1.0  0.13225  0.70404  0.39115  1.0000
  H   H1378     1.0  0.13432  0.68333  0.38670  1.0000
  H   H1379     1.0  0.10449  0.69511  0.40166  1.0000
  H   H1380     1.0  0.11417  0.67499  0.41474  1.0000
  H   H1381     1.0  0.11252  0.69553  0.41983  1.0000
  H   H1382     1.0  0.17667  0.63208  0.38301  1.0000
  H   H1383     1.0  0.18703  0.64611  0.36413  1.0000
  N   N42       1.0  0.22654  0.81345  0.36902  1.0000
  C   C794      1.0  0.22224  0.83156  0.35792  1.0000
  C   C795      1.0  0.21744  0.81342  0.38776  1.0000
  C   C796      1.0  0.16757  0.69492  0.38158  1.0000
  C   C797      1.0  0.22218  0.79996  0.36264  1.0000
  C   C798      1.0  0.20659  0.80607  0.35345  1.0000
  H   H1384     1.0  0.24212  0.92918  0.46763  1.0000
  C   C799      1.0  0.19748  0.81975  0.39153  1.0000
  C   C800      1.0  0.19015  0.81972  0.41084  1.0000
  C   C801      1.0  0.20144  0.79070  0.35085  1.0000
  H   H1385     1.0  0.02168  0.57103  0.27808  1.0000
  H   H1386     1.0  0.22426  0.84116  0.36394  1.0000
  H   H1387     1.0  0.20832  0.83563  0.35735  1.0000
  H   H1388     1.0  0.22000  0.80007  0.39605  1.0000
  H   H1389     1.0  0.22273  0.82152  0.39297  1.0000
  H   H1390     1.0  0.11879  0.82882  0.33775  1.0000
  H   H1391     1.0  0.24166  0.98316  0.34735  1.0000
  H   H1392     1.0  0.21977  0.78869  0.37361  1.0000
  H   H1393     1.0  0.20985  0.81459  0.34040  1.0000
  H   H1394     1.0  0.19511  0.81350  0.36091  1.0000
  H   H1395     1.0  0.06648  0.65544  0.45123  1.0000
  C   C802      1.0  0.06486  0.73939  0.31003  1.0000
  H   H1396     1.0  0.19354  0.83324  0.38418  1.0000
  H   H1397     1.0  0.19138  0.81097  0.38836  1.0000
  H   H1398     1.0  0.17583  0.82443  0.41307  1.0000
  H   H1399     1.0  0.19312  0.80637  0.41899  1.0000
  H   H1400     1.0  0.19555  0.82847  0.41499  1.0000
  H   H1401     1.0  0.19085  0.79564  0.34350  1.0000
  H   H1402     1.0  0.21258  0.78274  0.34329  1.0000
  H   H1403     1.0  0.19663  0.78246  0.36363  1.0000
  H   H1404     1.0  0.07008  0.91346  0.38661  1.0000
  H   H1405     1.0  0.24668  0.83415  0.40698  1.0000
  H   H1406     1.0  0.30028  0.83140  0.41794  1.0000
  H   H1407     1.0  0.25328  0.80825  0.35497  1.0000
  C   C803      1.0  0.25281  0.79154  0.38054  1.0000
  H   H1408     1.0  0.99656  0.81260  0.47497  1.0000
  H   H1409     1.0  0.26193  0.84616  0.46875  1.0000
  H   H1410     1.0  0.04984  0.56792  0.32083  1.0000
  S   S176      1.0  0.05614  0.56810  0.28178  1.0000
  N   N43       1.0  0.07511  0.60197  0.45481  1.0000
  C   C804      1.0  0.09394  0.59275  0.45131  1.0000
  H   H1411     1.0  0.03000  0.59785  0.29176  1.0000
  C   C805      1.0  0.06551  0.59563  0.44545  1.0000
  C   C806      1.0  0.07297  0.62140  0.44835  1.0000
  C   C807      1.0  0.12045  0.86402  0.47339  1.0000
  C   C808      1.0  0.10403  0.59697  0.43214  1.0000
  C   C809      1.0  0.04553  0.60241  0.44893  1.0000
  H   H1412     1.0  0.00389  0.68254  0.40238  1.0000
  H   H1413     1.0  0.31786  0.85644  0.42507  1.0000
  C   C810      1.0  0.17282  0.74985  0.46540  1.0000
  C   C811      1.0  0.12296  0.58710  0.43038  1.0000
  C   C812      1.0  0.03704  0.59341  0.44066  1.0000
  H   H1414     1.0  0.09517  0.57844  0.45493  1.0000
  H   H1415     1.0  0.10104  0.59533  0.45976  1.0000
  H   H1416     1.0  0.00677  0.60215  0.29396  1.0000
  H   H1417     1.0  0.27145  0.86757  0.44999  1.0000
  H   H1418     1.0  0.06845  0.58118  0.44840  1.0000
  H   H1419     1.0  0.07010  0.59951  0.43114  1.0000
  H   H1420     1.0  0.07595  0.62503  0.43387  1.0000
  N   N44       1.0  0.99557  0.83842  0.47712  1.0000
  H   H1421     1.0  0.01856  0.66319  0.27358  1.0000
  C   C813      1.0  0.08052  0.64943  0.44811  1.0000
  H   H1422     1.0  0.09838  0.59310  0.42337  1.0000
  H   H1423     1.0  0.10395  0.61102  0.42736  1.0000
  H   H1424     1.0  0.04204  0.61662  0.44347  1.0000
  H   H1425     1.0  0.03974  0.59989  0.46299  1.0000
  C   C814      1.0  0.27953  0.86847  0.37061  1.0000
  H   H1426     1.0  0.31744  0.83501  0.43850  1.0000
  H   H1427     1.0  0.26072  0.98144  0.42501  1.0000
  C   C815      1.0  0.14559  0.58832  0.24264  1.0000
  S   S177      1.0  0.09247  0.53776  0.30549  1.0000
  H   H1428     1.0  0.18767  0.53878  0.48157  1.0000
  H   H1429     1.0  0.02029  0.66271  0.42463  1.0000
  C   C816      1.0  0.23432  0.93480  0.45743  1.0000
  H   H1430     1.0  0.12393  0.57289  0.43527  1.0000
  H   H1431     1.0  0.12960  0.58946  0.41643  1.0000
  H   H1432     1.0  0.12974  0.59169  0.43763  1.0000
  H   H1433     1.0  0.04302  0.59451  0.42661  1.0000
  H   H1434     1.0  0.03841  0.57945  0.44725  1.0000
  H   H1435     1.0  0.02299  0.59961  0.44199  1.0000
  N   N45       1.0  0.04716  0.71001  0.43410  1.0000
  C   C817      1.0  0.05347  0.69938  0.42037  1.0000
  C   C818      1.0  0.06267  0.71214  0.43904  1.0000
  C   C819      1.0  0.03566  0.70077  0.44958  1.0000
  C   C820      1.0  0.03663  0.72785  0.42752  1.0000
  C   C821      1.0  0.04544  0.73882  0.41038  1.0000
  C   C822      1.0  0.03923  0.69726  0.41257  1.0000
  C   C823      1.0  0.03156  0.70726  0.46659  1.0000
  C   C824      1.0  0.07453  0.69504  0.44698  1.0000
  C   C825      1.0  0.08718  0.69866  0.45540  1.0000
  C   C826      1.0  0.03328  0.75628  0.40481  1.0000
  C   C827      1.0  0.04681  0.68548  0.39960  1.0000
  H   H1436     1.0  0.00469  0.51292  0.34417  1.0000
  H   H1437     1.0  0.06025  0.68597  0.42590  1.0000
  H   H1438     1.0  0.06344  0.70474  0.40950  1.0000
  H   H1439     1.0  0.07123  0.71849  0.42741  1.0000
  H   H1440     1.0  0.05852  0.72112  0.44809  1.0000
  H   H1441     1.0  0.04121  0.68650  0.45264  1.0000
  H   H1442     1.0  0.02295  0.70198  0.44648  1.0000
  H   H1443     1.0  0.02400  0.72695  0.42579  1.0000
  H   H1444     1.0  0.03301  0.73586  0.43740  1.0000
  H   H1445     1.0  0.04918  0.73198  0.39964  1.0000
  H   H1446     1.0  0.05722  0.74170  0.41198  1.0000
  H   H1447     1.0  0.02948  0.69121  0.42295  1.0000
  H   H1448     1.0  0.03263  0.71001  0.40561  1.0000
  H   H1449     1.0  0.02677  0.72154  0.46425  1.0000
  H   H1450     1.0  0.00513  0.57337  0.31462  1.0000
  H   H1451     1.0  0.06702  0.68627  0.45704  1.0000
  H   H1452     1.0  0.08222  0.68801  0.43662  1.0000
  H   H1453     1.0  0.06190  0.58253  0.24611  1.0000
  H   H1454     1.0  0.29614  0.97065  0.36380  1.0000
  H   H1455     1.0  0.05742  0.57522  0.47759  1.0000
  H   H1456     1.0  0.02115  0.75441  0.40289  1.0000
  H   H1457     1.0  0.02998  0.76415  0.41474  1.0000
  H   H1458     1.0  0.03976  0.76367  0.39233  1.0000
  H   H1459     1.0  0.05645  0.69101  0.38862  1.0000
  H   H1460     1.0  0.05310  0.67225  0.40606  1.0000
  H   H1461     1.0  0.03633  0.68428  0.39418  1.0000
  H   H1462     1.0  0.16754  0.59668  0.30973  1.0000
  H   H1463     1.0  0.08757  0.65505  0.45414  1.0000
  H   H1464     1.0  0.08516  0.65265  0.43384  1.0000
  N   N46       1.0  0.11209  0.86802  0.36363  1.0000
  C   C828      1.0  0.12609  0.87824  0.35762  1.0000
  C   C829      1.0  0.11482  0.85436  0.38011  1.0000
  C   C830      1.0  0.11386  0.85865  0.34958  1.0000
  C   C831      1.0  0.09414  0.87954  0.36614  1.0000
  C   C832      1.0  0.09016  0.89195  0.37852  1.0000
  C   C833      1.0  0.12531  0.89264  0.34070  1.0000
  C   C834      1.0  0.10107  0.84662  0.35345  1.0000
  C   C835      1.0  0.12199  0.85910  0.39346  1.0000
  C   C836      1.0  0.12240  0.84472  0.40999  1.0000
  C   C837      1.0  0.22828  0.87162  0.46826  1.0000
  C   C838      1.0  0.13912  0.90303  0.33724  1.0000
  H   H1465     1.0  0.13897  0.86919  0.35550  1.0000
  H   H1466     1.0  0.12638  0.88458  0.36777  1.0000
  H   H1467     1.0  0.10259  0.85004  0.38713  1.0000
  H   H1468     1.0  0.12433  0.84245  0.37683  1.0000
  H   H1469     1.0  0.12732  0.85068  0.34667  1.0000
  H   H1470     1.0  0.11180  0.86803  0.33716  1.0000
  H   H1471     1.0  0.19931  0.53209  0.27039  1.0000
  H   H1472     1.0  0.08424  0.87152  0.37158  1.0000
  H   H1473     1.0  0.10025  0.89948  0.37551  1.0000
  H   H1474     1.0  0.08886  0.88440  0.39219  1.0000
  H   H1475     1.0  0.12788  0.88693  0.32925  1.0000
  H   H1476     1.0  0.11252  0.90190  0.34160  1.0000
  H   H1477     1.0  0.10154  0.83701  0.36600  1.0000
  H   H1478     1.0  0.13549  0.86067  0.38790  1.0000
  H   H1479     1.0  0.11429  0.87134  0.39722  1.0000
  H   H1480     1.0  0.12740  0.84839  0.41940  1.0000
  H   H1481     1.0  0.10918  0.84253  0.41631  1.0000
  H   H1482     1.0  0.13111  0.83245  0.40686  1.0000
  H   H1483     1.0  0.07350  0.91348  0.36393  1.0000
  H   H1484     1.0  0.15226  0.89434  0.33598  1.0000
  H   H1485     1.0  0.13858  0.91307  0.32492  1.0000
  H   H1486     1.0  0.13695  0.90963  0.34800  1.0000
  H   H1487     1.0  0.09639  0.82763  0.34252  1.0000
  N   N47       1.0  0.13244  0.73821  0.45837  1.0000
  C   C839      1.0  0.11361  0.74610  0.46501  1.0000
  C   C840      1.0  0.13575  0.71927  0.46754  1.0000
  C   C841      1.0  0.14335  0.74758  0.46304  1.0000
  C   C842      1.0  0.13546  0.74074  0.43887  1.0000
  C   C843      1.0  0.15327  0.73125  0.42973  1.0000
  C   C844      1.0  0.10773  0.76602  0.45820  1.0000
  H   H1488     1.0  0.05027  0.50842  0.29177  1.0000
  C   C845      1.0  0.12586  0.70791  0.46345  1.0000
  C   C846      1.0  0.13273  0.68862  0.47067  1.0000
  C   C847      1.0  0.08882  0.77278  0.46636  1.0000
  H   H1489     1.0  0.05631  0.75260  0.31021  1.0000
  Fe  Fe83      1.0  0.00248  0.62267  0.35499  1.0000
  H   H1490     1.0  0.10492  0.74006  0.46150  1.0000
  H   H1491     1.0  0.14969  0.71292  0.46476  1.0000
  H   H1492     1.0  0.01563  0.83609  0.44311  1.0000
  C   C848      1.0  0.26152  0.95543  0.45562  1.0000
  H   H1493     1.0  0.14436  0.75994  0.45327  1.0000
  H   H1494     1.0  0.12501  0.73716  0.43532  1.0000
  H   H1495     1.0  0.13432  0.75473  0.43243  1.0000
  H   H1496     1.0  0.15714  0.71754  0.43657  1.0000
  H   H1497     1.0  0.16332  0.73825  0.42882  1.0000
  H   H1498     1.0  0.11557  0.77320  0.46139  1.0000
  H   H1499     1.0  0.10886  0.76934  0.44390  1.0000
  H   H1500     1.0  0.16901  0.73049  0.45493  1.0000
  H   H1501     1.0  0.19995  0.66886  0.43160  1.0000
  H   H1502     1.0  0.11185  0.71118  0.46949  1.0000
  H   H1503     1.0  0.12731  0.70962  0.44925  1.0000
  H   H1504     1.0  0.00362  0.61273  0.23929  1.0000
  H   H1505     1.0  0.12600  0.68076  0.46690  1.0000
  H   H1506     1.0  0.05308  0.72305  0.37362  1.0000
  H   H1507     1.0  0.08526  0.78711  0.46159  1.0000
  H   H1508     1.0  0.08011  0.76687  0.46274  1.0000
  H   H1509     1.0  0.28264  0.88184  0.48051  1.0000
  H   H1510     1.0  0.99612  0.79972  0.42097  1.0000
  H   H1511     1.0  0.07924  0.74929  0.28377  1.0000
  H   H1512     1.0  0.06246  0.55278  0.24949  1.0000
  C   C849      1.0  0.00304  0.53991  0.32996  1.0000
  H   H1513     1.0  0.27507  0.81688  0.48445  1.0000
  H   H1514     1.0  0.17711  0.87305  0.46576  1.0000
  C   C850      1.0  0.05252  0.53465  0.28860  1.0000
  H   H1515     1.0  0.09899  0.71767  0.30898  1.0000
  H   H1516     1.0  0.23340  0.79440  0.35309  1.0000
  H   H1517     1.0  0.14298  0.56629  0.26381  1.0000
  H   H1518     1.0  0.02770  0.87293  0.47060  1.0000
  S   S178      1.0  0.09663  0.53471  0.26513  1.0000
  H   H1519     1.0  0.09419  0.75297  0.33703  1.0000
  C   C851      1.0  0.06847  0.73780  0.33959  1.0000
  H   H1520     1.0  0.26800  0.98461  0.39304  1.0000
  H   H1521     1.0  0.00704  0.66172  0.29585  1.0000
  H   H1522     1.0  0.25315  0.95985  0.46744  1.0000
  H   H1523     1.0  0.09362  0.67709  0.28929  1.0000
  H   H1524     1.0  0.10390  0.68287  0.33389  1.0000
  H   H1525     1.0  0.01985  0.53373  0.34839  1.0000
  H   H1526     1.0  0.16139  0.67084  0.43481  1.0000
  C   C852      1.0  0.17059  0.82282  0.46214  1.0000
  Fe  Fe84      1.0  0.11908  0.54737  0.25800  1.0000
  H   H1527     1.0  0.17249  0.85993  0.44573  1.0000
  H   H1528     1.0  0.09596  0.68624  0.46029  1.0000
  C   C853      1.0  0.11333  0.59346  0.30611  1.0000
  C   C854      1.0  0.28142  0.98201  0.38526  1.0000
  H   H1529     1.0  0.16988  0.54396  0.47078  1.0000
  S   S179      1.0  0.99180  0.74097  0.45411  1.0000
  C   C855      1.0  0.13540  0.48686  0.24815  1.0000
  C   C856      1.0  0.03454  0.86106  0.46553  1.0000
  C   C857      1.0  0.15820  0.86224  0.45021  1.0000
  C   C858      1.0  0.15089  0.85784  0.43677  1.0000
  H   H1530     1.0  0.22962  0.53153  0.25538  1.0000
  H   H1531     1.0  0.26610  0.94117  0.46027  1.0000
  H   H1532     1.0  0.02593  0.59411  0.32378  1.0000
  H   H1533     1.0  0.05150  0.72942  0.28721  1.0000
  C   C859      1.0  0.15945  0.86539  0.41815  1.0000
  C   C860      1.0  0.25741  0.92406  0.35912  1.0000
  H   H1534     1.0  0.05293  0.54525  0.33127  1.0000
  C   C861      1.0  0.25455  0.98064  0.33836  1.0000
  H   H1535     1.0  0.18530  0.79661  0.46082  1.0000
  H   H1536     1.0  0.18185  0.68493  0.44010  1.0000
  H   H1537     1.0  0.04134  0.54252  0.24011  1.0000
  H   H1538     1.0  0.20846  0.93563  0.45470  1.0000
  H   H1539     1.0  0.27042  0.91697  0.36175  1.0000
  C   C862      1.0  0.20312  0.54471  0.26437  1.0000
  H   H1540     1.0  0.27393  0.95243  0.42166  1.0000
  H   H1541     1.0  0.13675  0.86348  0.43835  1.0000
  H   H1542     1.0  0.15282  0.84369  0.43819  1.0000
  S   S180      1.0  0.99369  0.80993  0.34432  1.0000
  H   H1543     1.0  0.09513  0.70746  0.44582  1.0000
  H   H1544     1.0  0.08774  0.59506  0.24429  1.0000
  C   C863      1.0  0.29034  0.89406  0.43303  1.0000
  H   H1545     1.0  0.08012  0.48813  0.25496  1.0000
  H   H1546     1.0  0.17621  0.82809  0.44833  1.0000
  H   H1547     1.0  0.11063  0.74345  0.47954  1.0000
  C   C864      1.0  0.18364  0.80637  0.46848  1.0000
  H   H1548     1.0  0.07686  0.73040  0.34904  1.0000
  H   H1549     1.0  0.18019  0.83946  0.47078  1.0000
  H   H1550     1.0  0.17364  0.85981  0.41565  1.0000
  H   H1551     1.0  0.15392  0.86219  0.40883  1.0000
  H   H1552     1.0  0.00278  0.59852  0.32599  1.0000
  H   H1553     1.0  0.29461  0.93732  0.34009  1.0000
  C   C865      1.0  0.13618  0.84820  0.47378  1.0000
  H   H1554     1.0  0.24840  0.79255  0.39437  1.0000
  C   C866      1.0  0.26197  0.95343  0.35916  1.0000
  S   S181      1.0  0.25016  0.89006  0.47044  1.0000
  N   N48       1.0  0.28311  0.84903  0.43375  1.0000
  C   C867      1.0  0.28190  0.83368  0.44906  1.0000
  H   H1555     1.0  0.11026  0.73643  0.32744  1.0000
  C   C868      1.0  0.26778  0.85383  0.42525  1.0000
  C   C869      1.0  0.26483  0.83900  0.41894  1.0000
  C   C870      1.0  0.01765  0.69912  0.48035  1.0000
  H   H1556     1.0  0.05506  0.60676  0.47741  1.0000
  C   C871      1.0  0.24827  0.84475  0.41189  1.0000
  H   H1557     1.0  0.99437  0.73846  0.33326  1.0000
  H   H1558     1.0  0.25484  0.93320  0.39567  1.0000
  H   H1559     1.0  0.28447  0.82145  0.44458  1.0000
  H   H1560     1.0  0.07921  0.56996  0.48096  1.0000
  H   H1561     1.0  0.25567  0.85910  0.43404  1.0000
  H   H1562     1.0  0.26925  0.86467  0.41355  1.0000
  H   H1563     1.0  0.26361  0.82733  0.42961  1.0000
  H   H1564     1.0  0.02184  0.68477  0.48349  1.0000
  H   H1565     1.0  0.32164  0.95912  0.33296  1.0000
  H   H1566     1.0  0.25338  0.83650  0.45676  1.0000
  H   H1567     1.0  0.19519  0.69528  0.37743  1.0000
  N   N49       1.0  0.16576  0.68015  0.39742  1.0000
  H   H1568     1.0  0.24894  0.85628  0.40094  1.0000
  H   H1569     1.0  0.29402  0.87892  0.41429  1.0000
  C   C872      1.0  0.04471  0.55232  0.28420  1.0000
  H   H1570     1.0  0.05989  0.73813  0.48081  1.0000
  H   H1571     1.0  0.27790  0.78512  0.36317  1.0000
  H   H1572     1.0  0.07211  0.70385  0.31839  1.0000
  C   C873      1.0  0.16196  0.73759  0.46529  1.0000
  H   H1573     1.0  0.32085  0.95826  0.42929  1.0000
  H   H1574     1.0  0.08032  0.76240  0.31107  1.0000
  C   C874      1.0  0.27263  0.78707  0.37666  1.0000
  H   H1575     1.0  0.08056  0.62735  0.46947  1.0000
  C   C875      1.0  0.31677  0.94875  0.33083  1.0000
  C   C876      1.0  0.10141  0.74930  0.32454  1.0000
  C   C877      1.0  0.11894  0.57898  0.31877  1.0000
  H   H1576     1.0  0.21657  0.91780  0.47123  1.0000
  S   S182      1.0  0.01786  0.51170  0.28289  1.0000
  H   H1577     1.0  0.12342  0.87515  0.46258  1.0000
  H   H1578     1.0  0.27575  0.83526  0.40825  1.0000
  C   C878      1.0  0.16861  0.57144  0.26019  1.0000
  C   C879      1.0  0.05048  0.73299  0.34672  1.0000
  S   S183      1.0  0.12489  0.55769  0.31516  1.0000
  H   H1579     1.0  0.28089  0.89746  0.44479  1.0000
  C   C880      1.0  0.01547  0.59264  0.31858  1.0000
  H   H1580     1.0  0.04327  0.70377  0.47217  1.0000
  C   C881      1.0  0.23314  0.83443  0.33900  1.0000
  H   H1581     1.0  0.17368  0.56239  0.25120  1.0000
  C   C882      1.0  0.02766  0.52719  0.28465  1.0000
  H   H1582     1.0  0.08188  0.72597  0.28956  1.0000
  H   H1583     1.0  0.18172  0.72197  0.35809  1.0000
  H   H1584     1.0  0.21075  0.85737  0.46664  1.0000
  H   H1585     1.0  0.17924  0.65482  0.42635  1.0000
  N   N50       1.0  0.07779  0.73573  0.32133  1.0000
  H   H1586     1.0  0.01019  0.64563  0.42527  1.0000
  H   H1587     1.0  0.12118  0.75858  0.30273  1.0000
  Fe  Fe85      1.0  0.11505  0.55059  0.29540  1.0000
  H   H1588     1.0  0.26817  0.87748  0.37567  1.0000
  C   C883      1.0  0.18642  0.70931  0.35413  1.0000
  C   C884      1.0  0.16733  0.83641  0.47305  1.0000
  C   C885      1.0  0.09504  0.68563  0.32487  1.0000
  H   H1589     1.0  0.02186  0.81151  0.42903  1.0000
  C   C886      1.0  0.21272  0.96930  0.39271  1.0000
  C   C887      1.0  0.26170  0.93283  0.40574  1.0000
  H   H1590     1.0  0.02815  0.57439  0.34893  1.0000
  H   H1591     1.0  0.27323  0.97802  0.44842  1.0000
  C   C888      1.0  0.01724  0.60294  0.29967  1.0000
  C   C889      1.0  0.00611  0.85216  0.47079  1.0000
  H   H1592     1.0  0.18647  0.65993  0.38784  1.0000
  C   C890      1.0  0.10442  0.85955  0.47137  1.0000
  H   H1593     1.0  0.28608  0.96064  0.43796  1.0000
  Fe  Fe86      1.0  0.99690  0.52617  0.26832  1.0000
  H   H1594     1.0  0.19790  0.57057  0.26831  1.0000
  H   H1595     1.0  0.19683  0.55449  0.28790  1.0000
  C   C891      1.0  0.29846  0.94856  0.34170  1.0000
  H   H1596     1.0  0.13542  0.84006  0.46542  1.0000
  C   C892      1.0  0.06803  0.59812  0.47421  1.0000
  H   H1597     1.0  0.23903  0.94700  0.41976  1.0000
  H   H1598     1.0  0.17008  0.65210  0.40449  1.0000
  H   H1599     1.0  0.16123  0.72794  0.47793  1.0000
  H   H1600     1.0  0.25352  0.91701  0.35160  1.0000
  H   H1601     1.0  0.29566  0.89774  0.47455  1.0000
  C   C893      1.0  0.17436  0.64367  0.37226  1.0000
  H   H1602     1.0  0.16722  0.64081  0.36407  1.0000
  C   C894      1.0  0.17687  0.68096  0.40902  1.0000
  C   C895      1.0  0.15310  0.73112  0.41117  1.0000
  S   S184      1.0  0.00075  0.54839  0.24547  1.0000
  C   C896      1.0  0.07291  0.90505  0.37725  1.0000
  C   C897      1.0  0.23399  0.95441  0.45025  1.0000
  H   H1603     1.0  0.16570  0.75845  0.47458  1.0000
  H   H1604     1.0  0.01287  0.79823  0.44924  1.0000
  H   H1605     1.0  0.29392  0.94309  0.46589  1.0000
  C   C898      1.0  0.16654  0.54637  0.28479  1.0000
  H   H1606     1.0  0.16242  0.60040  0.27289  1.0000
  H   H1607     1.0  0.21205  0.84821  0.32551  1.0000
  H   H1608     1.0  0.14890  0.74451  0.40370  1.0000
  C   C899      1.0  0.19291  0.55864  0.27509  1.0000
  C   C900      1.0  0.25774  0.94264  0.34870  1.0000
  S   S185      1.0  0.10822  0.63416  0.32741  1.0000
  H   H1609     1.0  0.17016  0.53839  0.27487  1.0000
  H   H1610     1.0  0.15849  0.81905  0.46294  1.0000
  H   H1611     1.0  0.14418  0.72318  0.41123  1.0000
  C   C901      1.0  0.07256  0.73851  0.29070  1.0000
  C   C902      1.0  0.31667  0.84326  0.42534  1.0000
  C   C903      1.0  0.27772  0.85526  0.36394  1.0000
  H   H1612     1.0  0.09124  0.88736  0.35333  1.0000
  H   H1613     1.0  0.00263  0.54709  0.31635  1.0000
  H   H1614     1.0  0.14683  0.68458  0.46532  1.0000
  H   H1615     1.0  0.16637  0.72573  0.40440  1.0000
  H   H1616     1.0  0.23679  0.84798  0.42228  1.0000
  H   H1617     1.0  0.02782  0.56843  0.31044  1.0000
  H   H1618     1.0  0.00681  0.85785  0.45664  1.0000
  C   C904      1.0  0.24581  0.80893  0.36841  1.0000
  H   H1619     1.0  0.10276  0.68670  0.31133  1.0000
  H   H1620     1.0  0.27192  0.88771  0.42291  1.0000
  H   H1621     1.0  0.08755  0.85433  0.35398  1.0000
  C   C905      1.0  0.99465  0.77363  0.43541  1.0000
  H   H1622     1.0  0.00329  0.72305  0.39147  1.0000
  C   C906      1.0  0.16570  0.57433  0.29040  1.0000
  H   H1623     1.0  0.15217  0.54976  0.28764  1.0000
  H   H1624     1.0  0.29124  0.83350  0.35222  1.0000
  C   C907      1.0  0.22421  0.85035  0.32709  1.0000
  H   H1625     1.0  0.01699  0.81634  0.47362  1.0000
  H   H1626     1.0  0.22117  0.86206  0.33251  1.0000
  C   C908      1.0  0.00844  0.82562  0.44943  1.0000
  N   N51       1.0  0.26821  0.96959  0.34852  1.0000
  C   C909      1.0  0.29621  0.87017  0.37040  1.0000
  H   H1627     1.0  0.08879  0.67450  0.32814  1.0000
  C   C910      1.0  0.28344  0.86427  0.44031  1.0000
  H   H1628     1.0  0.10611  0.62147  0.29889  1.0000
  C   C911      1.0  0.31098  0.85872  0.36339  1.0000
  H   H1629     1.0  0.27544  0.93324  0.39966  1.0000
  C   C912      1.0  0.29252  0.84371  0.35737  1.0000
  C   C913      1.0  0.10526  0.83662  0.33914  1.0000
  H   H1630     1.0  0.24837  0.78067  0.37892  1.0000
  H   H1631     1.0  0.06593  0.75156  0.34049  1.0000
  N   N52       1.0  0.17344  0.56269  0.27761  1.0000
  N   N53       1.0  0.15367  0.85279  0.46902  1.0000
  H   H1632     1.0  0.15150  0.57536  0.29478  1.0000
  C   C914      1.0  0.29330  0.88536  0.48364  1.0000
  H   H1633     1.0  0.04869  0.75284  0.28181  1.0000
  H   H1634     1.0  0.16299  0.70760  0.38558  1.0000
  C   C915      1.0  0.99900  0.56764  0.34948  1.0000
  C   C916      1.0  0.04409  0.73309  0.36602  1.0000
  C   C917      1.0  0.11196  0.61281  0.32450  1.0000
  H   H1635     1.0  0.07542  0.55865  0.33370  1.0000
  H   H1636     1.0  0.08002  0.70472  0.46660  1.0000
  H   H1637     1.0  0.07630  0.60120  0.48112  1.0000
  H   H1638     1.0  0.22767  0.96076  0.46143  1.0000
  H   H1639     1.0  0.18450  0.66234  0.45111  1.0000
  H   H1640     1.0  0.11909  0.60003  0.34917  1.0000
  H   H1641     1.0  0.15902  0.69583  0.37286  1.0000
  C   C918      1.0  0.17496  0.66861  0.42737  1.0000
  H   H1642     1.0  0.05908  0.57400  0.34468  1.0000
  C   C919      1.0  0.15314  0.86436  0.48067  1.0000
  H   H1643     1.0  0.10362  0.84570  0.32648  1.0000
  H   H1644     1.0  0.07553  0.69576  0.29023  1.0000
  H   H1645     1.0  0.14709  0.60393  0.30287  1.0000
  H   H1646     1.0  0.24006  0.92748  0.44705  1.0000
  H   H1647     1.0  0.04323  0.74609  0.36815  1.0000
  C   C920      1.0  0.28473  0.88134  0.42637  1.0000
  H   H1648     1.0  0.16240  0.67066  0.36814  1.0000
  C   C921      1.0  0.11003  0.61032  0.30891  1.0000
  N   N54       1.0  0.25133  0.95898  0.44171  1.0000
  C   C922      1.0  0.02794  0.55739  0.28107  1.0000
  C   C923      1.0  0.06641  0.57910  0.48292  1.0000
  H   H1649     1.0  0.06216  0.89823  0.38046  1.0000
  H   H1650     1.0  0.29916  0.96403  0.46034  1.0000
  H   H1651     1.0  0.24589  0.83658  0.33899  1.0000
  C   C924      1.0  0.30979  0.87116  0.48165  1.0000
  C   C925      1.0  0.17374  0.53883  0.48359  1.0000
  H   H1652     1.0  0.10102  0.84837  0.48188  1.0000
  S   S186      1.0  0.10992  0.49011  0.29845  1.0000
  H   H1653     1.0  0.99420  0.86175  0.28658  1.0000
  H   H1654     1.0  0.28334  0.96517  0.32326  1.0000
  H   H1655     1.0  0.26678  0.80699  0.47218  1.0000
  H   H1656     1.0  0.05809  0.66507  0.48046  1.0000
  H   H1657     1.0  0.22564  0.53653  0.27635  1.0000
  H   H1658     1.0  0.29911  0.94599  0.35549  1.0000
  H   H1659     1.0  0.17488  0.58263  0.25370  1.0000
  H   H1660     1.0  0.24783  0.92416  0.37165  1.0000
  S   S187      1.0  0.99291  0.64808  0.36303  1.0000
  C   C926      1.0  0.22260  0.54145  0.26317  1.0000
  H   H1661     1.0  0.18504  0.74216  0.46956  1.0000
  C   C927      1.0  0.17056  0.86894  0.47950  1.0000
  H   H1662     1.0  0.00584  0.59062  0.25165  1.0000
  H   H1663     1.0  0.08688  0.76989  0.48076  1.0000
  H   H1664     1.0  0.00508  0.55317  0.37500  1.0000
  C   C928      1.0  0.99886  0.67120  0.41101  1.0000
  H   H1665     1.0  0.13236  0.71815  0.48184  1.0000
  H   H1666     1.0  0.99954  0.86327  0.47716  1.0000
  C   C929      1.0  0.06394  0.52190  0.24162  1.0000
  H   H1667     1.0  0.22953  0.86437  0.48124  1.0000
  C   C930      1.0  0.99494  0.55532  0.36758  1.0000
  H   H1668     1.0  0.03590  0.86420  0.45118  1.0000
  H   H1669     1.0  0.31697  0.95090  0.31678  1.0000
  S   S188      1.0  0.32345  0.94164  0.37613  1.0000
  H   H1670     1.0  0.25300  0.97360  0.32933  1.0000
  C   C931      1.0  0.02474  0.84652  0.47417  1.0000
  H   H1671     1.0  0.00309  0.77310  0.44366  1.0000
  H   H1672     1.0  0.05647  0.79731  0.48121  1.0000
  H   H1673     1.0  0.99627  0.82905  0.44461  1.0000
  H   H1674     1.0  0.03422  0.56970  0.24620  1.0000
  H   H1675     1.0  0.20905  0.93936  0.47524  1.0000
  H   H1676     1.0  0.10678  0.85626  0.45855  1.0000
  S   S189      1.0  0.32266  0.89232  0.39476  1.0000
  H   H1677     1.0  0.99415  0.60436  0.42762  1.0000
  H   H1678     1.0  0.28025  0.96009  0.47687  1.0000
  H   H1679     1.0  0.16009  0.89587  0.48181  1.0000
  C   C932      1.0  0.99304  0.71457  0.32808  1.0000
  H   H1680     1.0  0.99363  0.66563  0.40320  1.0000
  H   H1681     1.0  0.99407  0.54254  0.36633  1.0000
  H   H1682     1.0  0.09326  0.87087  0.47215  1.0000
  C   C933      1.0  0.01953  0.80918  0.44343  1.0000
  C   C934      1.0  0.00450  0.82262  0.46957  1.0000
  H   H1683     1.0  0.05705  0.51244  0.24075  1.0000
  C   C935      1.0  0.00964  0.59897  0.23860  1.0000
  H   H1684     1.0  0.15052  0.60039  0.23897  1.0000
  C   C936      1.0  0.06400  0.55391  0.23529  1.0000
  H   H1685     1.0  0.09134  0.56713  0.23563  1.0000
  C   C937      1.0  0.06884  0.52555  0.61827  1.0000
  H   H1686     1.0  0.26008  0.96466  0.55353  1.0000
  Fe  Fe87      1.0  0.10561  0.52545  0.65116  1.0000
  H   H1687     1.0  0.06150  0.60771  0.57176  1.0000
  H   H1688     1.0  0.17192  0.52529  0.48867  1.0000
  H   H1689     1.0  0.04140  0.50528  0.70258  1.0000
  H   H1690     1.0  0.16199  0.54002  0.72276  1.0000
  H   H1691     1.0  0.30588  0.81379  0.49082  1.0000
  S   S190      1.0  0.13383  0.57310  0.72715  1.0000
  C   C938      1.0  0.02303  0.66789  0.52475  1.0000
  C   C939      1.0  0.17930  0.57524  0.51544  1.0000
  H   H1692     1.0  0.04068  0.62539  0.54656  1.0000
  S   S191      1.0  0.12526  0.54427  0.58825  1.0000
  C   C940      1.0  0.15503  0.65049  0.59272  1.0000
  H   H1693     1.0  0.31674  0.97305  0.56054  1.0000
  C   C941      1.0  0.99610  0.55398  0.57688  1.0000
  Fe  Fe88      1.0  0.22362  0.88282  0.53363  1.0000
  S   S192      1.0  0.22904  0.85434  0.54629  1.0000
  S   S193      1.0  0.20935  0.90427  0.54769  1.0000
  C   C942      1.0  0.00477  0.53880  0.53350  1.0000
  H   H1694     1.0  0.05612  0.56760  0.72377  1.0000
  C   C943      1.0  0.18719  0.52839  0.72991  1.0000
  Fe  Fe89      1.0  0.22342  0.85041  0.52249  1.0000
  S   S194      1.0  0.21287  0.82795  0.52208  1.0000
  Fe  Fe90      1.0  0.25604  0.85428  0.53074  1.0000
  S   S195      1.0  0.27787  0.83630  0.54277  1.0000
  S   S196      1.0  0.25102  0.84832  0.50783  1.0000
  S   S197      1.0  0.25122  0.88298  0.51992  1.0000
  H   H1695     1.0  0.29004  0.82640  0.50529  1.0000
  H   H1696     1.0  0.07335  0.49652  0.69960  1.0000
  C   C944      1.0  0.16262  0.55032  0.49615  1.0000
  H   H1697     1.0  0.27287  0.97085  0.52451  1.0000
  Fe  Fe91      1.0  0.10611  0.63142  0.51633  1.0000
  H   H1698     1.0  0.29257  0.92243  0.56586  1.0000
  S   S198      1.0  0.14230  0.79606  0.49527  1.0000
  C   C945      1.0  0.14640  0.65194  0.55999  1.0000
  C   C946      1.0  0.00129  0.52272  0.70366  1.0000
  H   H1699     1.0  0.22019  0.57436  0.68568  1.0000
  C   C947      1.0  0.05932  0.57694  0.50255  1.0000
  Fe  Fe92      1.0  0.01928  0.51007  0.61627  1.0000
  Fe  Fe93      1.0  0.12734  0.80685  0.51872  1.0000
  H   H1700     1.0  0.17036  0.64502  0.61219  1.0000
  S   S199      1.0  0.13486  0.82782  0.52627  1.0000
  H   H1701     1.0  0.13314  0.53833  0.68718  1.0000
  C   C948      1.0  0.00424  0.81761  0.50579  1.0000
  Fe  Fe94      1.0  0.09707  0.78989  0.52329  1.0000
  S   S200      1.0  0.07119  0.78410  0.53821  1.0000
  H   H1702     1.0  0.01337  0.60801  0.57435  1.0000
  S   S201      1.0  0.12080  0.78138  0.53484  1.0000
  H   H1703     1.0  0.04784  0.49153  0.72221  1.0000
  H   H1704     1.0  0.10794  0.68666  0.58771  1.0000
  C   C949      1.0  0.17534  0.65482  0.53935  1.0000
  C   C950      1.0  0.05875  0.78383  0.52396  1.0000
  C   C951      1.0  0.04490  0.77540  0.53014  1.0000
  C   C952      1.0  0.03546  0.77452  0.51857  1.0000
  H   H1705     1.0  0.12656  0.54517  0.71645  1.0000
  S   S202      1.0  0.01140  0.53092  0.71495  1.0000
  H   H1706     1.0  0.04165  0.76942  0.54383  1.0000
  H   H1707     1.0  0.02490  0.76787  0.52329  1.0000
  H   H1708     1.0  0.00888  0.54346  0.51915  1.0000
  H   H1709     1.0  0.15944  0.85487  0.59977  1.0000
  H   H1710     1.0  0.07564  0.58794  0.56711  1.0000
  H   H1711     1.0  0.10863  0.65143  0.59097  1.0000
  H   H1712     1.0  0.13031  0.57094  0.50913  1.0000
  H   H1713     1.0  0.15514  0.63657  0.59501  1.0000
  C   C953      1.0  0.99981  0.51745  0.67636  1.0000
  H   H1714     1.0  0.07794  0.65191  0.50082  1.0000
  C   C954      1.0  0.00764  0.52377  0.68577  1.0000
  H   H1715     1.0  0.04716  0.59309  0.60002  1.0000
  S   S203      1.0  0.11474  0.54926  0.63473  1.0000
  C   C955      1.0  0.19136  0.82875  0.52163  1.0000
  C   C956      1.0  0.18723  0.81370  0.52057  1.0000
  C   C957      1.0  0.16999  0.81335  0.52159  1.0000
  C   C958      1.0  0.15675  0.82798  0.52400  1.0000
  C   C959      1.0  0.16090  0.84311  0.52480  1.0000
  C   C960      1.0  0.17821  0.84364  0.52323  1.0000
  H   H1716     1.0  0.19737  0.80215  0.51929  1.0000
  H   H1717     1.0  0.16691  0.80162  0.52097  1.0000
  H   H1718     1.0  0.15067  0.85448  0.52659  1.0000
  H   H1719     1.0  0.18136  0.85535  0.52373  1.0000
  C   C961      1.0  0.29479  0.84327  0.54605  1.0000
  C   C962      1.0  0.29731  0.86025  0.53916  1.0000
  H   H1720     1.0  0.19349  0.59571  0.50323  1.0000
  H   H1721     1.0  0.02241  0.58882  0.73298  1.0000
  S   S204      1.0  0.10962  0.77856  0.49986  1.0000
  C   C963      1.0  0.30693  0.83072  0.55468  1.0000
  H   H1722     1.0  0.28795  0.87000  0.53248  1.0000
  H   H1723     1.0  0.06347  0.49785  0.54937  1.0000
  H   H1724     1.0  0.01000  0.73545  0.56881  1.0000
  H   H1725     1.0  0.30506  0.81759  0.56002  1.0000
  C   C964      1.0  0.21375  0.92399  0.53393  1.0000
  C   C965      1.0  0.21976  0.92505  0.51607  1.0000
  C   C966      1.0  0.22381  0.94043  0.50502  1.0000
  C   C967      1.0  0.22215  0.95485  0.51159  1.0000
  C   C968      1.0  0.21598  0.95397  0.52946  1.0000
  C   C969      1.0  0.21171  0.93854  0.54064  1.0000
  H   H1726     1.0  0.22129  0.91401  0.51068  1.0000
  H   H1727     1.0  0.18065  0.88600  0.48810  1.0000
  H   H1728     1.0  0.21451  0.96511  0.53466  1.0000
  H   H1729     1.0  0.20704  0.93781  0.55446  1.0000
  C   C970      1.0  0.13126  0.56436  0.57981  1.0000
  H   H1730     1.0  0.04132  0.55594  0.57656  1.0000
  H   H1731     1.0  0.06592  0.49014  0.68419  1.0000
  C   C971      1.0  0.15158  0.58240  0.57532  1.0000
  C   C972      1.0  0.14515  0.56747  0.58431  1.0000
  H   H1732     1.0  0.22025  0.84680  0.59152  1.0000
  H   H1733     1.0  0.16275  0.58444  0.57836  1.0000
  H   H1734     1.0  0.15143  0.55799  0.59419  1.0000
  C   C973      1.0  0.30247  0.81659  0.50395  1.0000
  C   C974      1.0  0.00601  0.56448  0.56380  1.0000
  Fe  Fe95      1.0  0.00594  0.76879  0.49475  1.0000
  H   H1735     1.0  0.01990  0.56118  0.56216  1.0000
  H   H1736     1.0  0.00241  0.54293  0.58551  1.0000
  C   C975      1.0  0.13325  0.55315  0.70518  1.0000
  C   C976      1.0  0.13809  0.56751  0.70698  1.0000
  H   H1737     1.0  0.04003  0.68532  0.56222  1.0000
  H   H1738     1.0  0.29705  0.85016  0.48785  1.0000
  C   C977      1.0  0.17243  0.84300  0.56572  1.0000
  C   C978      1.0  0.15076  0.57369  0.67608  1.0000
  C   C979      1.0  0.14682  0.57770  0.69240  1.0000
  H   H1739     1.0  0.14019  0.62176  0.58378  1.0000
  H   H1740     1.0  0.15756  0.58167  0.66489  1.0000
  H   H1741     1.0  0.15061  0.58874  0.69373  1.0000
  H   H1742     1.0  0.16453  0.53107  0.57880  1.0000
  C   C980      1.0  0.28465  0.91400  0.56492  1.0000
  H   H1743     1.0  0.06704  0.56809  0.55384  1.0000
  H   H1744     1.0  0.07318  0.79868  0.50151  1.0000
  C   C981      1.0  0.11999  0.64632  0.58137  1.0000
  S   S205      1.0  0.04540  0.51668  0.60649  1.0000
  H   H1745     1.0  0.07873  0.55966  0.57140  1.0000
  H   H1746     1.0  0.10321  0.56360  0.54302  1.0000
  C   C982      1.0  0.12783  0.62798  0.59136  1.0000
  C   C983      1.0  0.11546  0.61582  0.59577  1.0000
  H   H1747     1.0  0.11468  0.64471  0.57092  1.0000
  C   C984      1.0  0.11946  0.73329  0.51966  1.0000
  H   H1748     1.0  0.12140  0.60275  0.60286  1.0000
  H   H1749     1.0  0.10297  0.62088  0.60414  1.0000
  H   H1750     1.0  0.11298  0.61434  0.58367  1.0000
  H   H1751     1.0  0.06156  0.66199  0.57663  1.0000
  H   H1752     1.0  0.05815  0.56331  0.50851  1.0000
  H   H1753     1.0  0.16538  0.80071  0.58098  1.0000
  H   H1754     1.0  0.20165  0.87255  0.57595  1.0000
  S   S206      1.0  0.01133  0.59010  0.53496  1.0000
  C   C985      1.0  0.14574  0.55962  0.67406  1.0000
  H   H1755     1.0  0.03397  0.51009  0.64418  1.0000
  S   S207      1.0  0.15096  0.55562  0.65303  1.0000
  H   H1756     1.0  0.08879  0.58388  0.59248  1.0000
  C   C986      1.0  0.17551  0.53510  0.71630  1.0000
  H   H1757     1.0  0.02788  0.65585  0.51970  1.0000
  C   C987      1.0  0.13558  0.69987  0.51419  1.0000
  C   C988      1.0  0.17537  0.52046  0.70831  1.0000
  H   H1758     1.0  0.17020  0.50993  0.71853  1.0000
  H   H1759     1.0  0.16914  0.50889  0.57697  1.0000
  S   S208      1.0  0.21527  0.87900  0.51134  1.0000
  H   H1760     1.0  0.25394  0.92375  0.52376  1.0000
  H   H1761     1.0  0.05400  0.55145  0.59221  1.0000
  H   H1762     1.0  0.15478  0.63973  0.56580  1.0000
  H   H1763     1.0  0.04677  0.51336  0.66698  1.0000
  C   C989      1.0  0.16040  0.57274  0.52091  1.0000
  S   S209      1.0  0.01079  0.74102  0.49322  1.0000
  H   H1764     1.0  0.01152  0.55601  0.63946  1.0000
  H   H1765     1.0  0.10786  0.55371  0.52462  1.0000
  H   H1766     1.0  0.03103  0.61433  0.57812  1.0000
  H   H1767     1.0  0.20566  0.55017  0.69930  1.0000
  C   C990      1.0  0.03619  0.53756  0.53266  1.0000
  H   H1768     1.0  0.29205  0.97742  0.53962  1.0000
  S   S210      1.0  0.08425  0.61780  0.52373  1.0000
  C   C991      1.0  0.05284  0.51692  0.65339  1.0000
  S   S211      1.0  0.01373  0.48609  0.63599  1.0000
  H   H1769     1.0  0.28638  0.88596  0.57122  1.0000
  C   C992      1.0  0.10948  0.72143  0.52131  1.0000
  N   N55       1.0  0.27646  0.93508  0.53634  1.0000
  C   C993      1.0  0.12622  0.56884  0.52347  1.0000
  C   C994      1.0  0.01068  0.56689  0.62780  1.0000
  H   H1770     1.0  0.13409  0.55394  0.54696  1.0000
  C   C995      1.0  0.31703  0.82303  0.50724  1.0000
  H   H1771     1.0  0.18310  0.66426  0.53072  1.0000
  H   H1772     1.0  0.06275  0.53867  0.55686  1.0000
  H   H1773     1.0  0.04438  0.71454  0.49932  1.0000
  C   C996      1.0  0.28242  0.91666  0.54611  1.0000
  H   H1774     1.0  0.06487  0.70069  0.54058  1.0000
  C   C997      1.0  0.05380  0.51913  0.62294  1.0000
  Fe  Fe96      1.0  0.13363  0.77137  0.51050  1.0000
  H   H1775     1.0  0.17100  0.56281  0.72654  1.0000
  S   S212      1.0  0.11063  0.64125  0.53706  1.0000
  H   H1776     1.0  0.02407  0.69054  0.54111  1.0000
  S   S213      1.0  0.00815  0.50564  0.59633  1.0000
  C   C998      1.0  0.13801  0.66265  0.58770  1.0000
  H   H1777     1.0  0.06817  0.58005  0.50875  1.0000
  C   C999      1.0  0.29371  0.89521  0.57172  1.0000
  N   N56       1.0  0.04299  0.57876  0.58350  1.0000
  C   C1000     1.0  0.32174  0.83485  0.55611  1.0000
  H   H1778     1.0  0.03472  0.62104  0.50062  1.0000
  H   H1779     1.0  0.18708  0.83978  0.59306  1.0000
  C   C1001     1.0  0.05209  0.67933  0.55408  1.0000
  H   H1780     1.0  0.00226  0.82787  0.52823  1.0000
  H   H1781     1.0  0.04615  0.72810  0.53059  1.0000
  H   H1782     1.0  0.30709  0.89214  0.56387  1.0000
  H   H1783     1.0  0.29460  0.89339  0.58543  1.0000
  H   H1784     1.0  0.18490  0.81849  0.58116  1.0000
  H   H1785     1.0  0.01867  0.52946  0.67918  1.0000
  C   C1002     1.0  0.17746  0.87249  0.55805  1.0000
  C   C1003     1.0  0.15816  0.86289  0.58652  1.0000
  C   C1004     1.0  0.14032  0.86190  0.58426  1.0000
  C   C1005     1.0  0.16269  0.88213  0.54810  1.0000
  C   C1006     1.0  0.16867  0.89556  0.53196  1.0000
  C   C1007     1.0  0.12541  0.87095  0.59676  1.0000
  H   H1786     1.0  0.16103  0.84697  0.55962  1.0000
  H   H1787     1.0  0.18005  0.88280  0.56265  1.0000
  H   H1788     1.0  0.18941  0.86822  0.54848  1.0000
  H   H1789     1.0  0.15729  0.87643  0.58729  1.0000
  H   H1790     1.0  0.13929  0.84818  0.58712  1.0000
  H   H1791     1.0  0.13817  0.86790  0.57092  1.0000
  H   H1792     1.0  0.15792  0.87316  0.54367  1.0000
  H   H1793     1.0  0.15178  0.88933  0.55660  1.0000
  H   H1794     1.0  0.15744  0.90342  0.52608  1.0000
  H   H1795     1.0  0.17454  0.90447  0.53535  1.0000
  H   H1796     1.0  0.17828  0.88898  0.52209  1.0000
  H   H1797     1.0  0.12528  0.88501  0.59390  1.0000
  H   H1798     1.0  0.11287  0.86965  0.59520  1.0000
  H   H1799     1.0  0.12663  0.86495  0.61047  1.0000
  H   H1800     1.0  0.15228  0.81933  0.56909  1.0000
  N   N57       1.0  0.06067  0.55766  0.70075  1.0000
  C   C1008     1.0  0.06177  0.53854  0.70870  1.0000
  C   C1009     1.0  0.05456  0.56274  0.68377  1.0000
  C   C1010     1.0  0.07884  0.56069  0.69646  1.0000
  C   C1011     1.0  0.04942  0.56890  0.71318  1.0000
  C   C1012     1.0  0.00608  0.49498  0.50934  1.0000
  H   H1801     1.0  0.17951  0.54580  0.70560  1.0000
  C   C1013     1.0  0.08099  0.57925  0.68607  1.0000
  C   C1014     1.0  0.04016  0.55460  0.68268  1.0000
  C   C1015     1.0  0.03492  0.56212  0.66501  1.0000
  H   H1802     1.0  0.14828  0.85833  0.49454  1.0000
  H   H1803     1.0  0.27183  0.94747  0.51042  1.0000
  C   C1016     1.0  0.09981  0.58071  0.68218  1.0000
  H   H1804     1.0  0.07056  0.53074  0.69930  1.0000
  H   H1805     1.0  0.04907  0.53514  0.71112  1.0000
  H   H1806     1.0  0.04998  0.57710  0.68002  1.0000
  H   H1807     1.0  0.06562  0.55911  0.67304  1.0000
  H   H1808     1.0  0.08800  0.55125  0.68883  1.0000
  H   H1809     1.0  0.08372  0.55829  0.70852  1.0000
  C   C1017     1.0  0.06909  0.64484  0.50025  1.0000
  H   H1810     1.0  0.04763  0.58288  0.70650  1.0000
  C   C1018     1.0  0.00719  0.50478  0.52216  1.0000
  S   S214      1.0  0.14547  0.65134  0.50921  1.0000
  H   H1811     1.0  0.17288  0.64735  0.53124  1.0000
  H   H1812     1.0  0.23064  0.94588  0.57342  1.0000
  H   H1813     1.0  0.07310  0.58915  0.69358  1.0000
  H   H1814     1.0  0.07713  0.58260  0.67335  1.0000
  H   H1815     1.0  0.04470  0.54032  0.68407  1.0000
  H   H1816     1.0  0.02844  0.55713  0.69283  1.0000
  H   H1817     1.0  0.04609  0.55886  0.65434  1.0000
  H   H1818     1.0  0.02430  0.55653  0.66462  1.0000
  H   H1819     1.0  0.03020  0.57645  0.66286  1.0000
  H   H1820     1.0  0.27175  0.91651  0.57371  1.0000
  Fe  Fe97      1.0  0.99796  0.61152  0.51576  1.0000
  H   H1821     1.0  0.23342  0.55700  0.69867  1.0000
  C   C1019     1.0  0.22114  0.56710  0.69919  1.0000
  H   H1822     1.0  0.22875  0.96633  0.55743  1.0000
  H   H1823     1.0  0.10102  0.59403  0.67474  1.0000
  H   H1824     1.0  0.10427  0.57816  0.69447  1.0000
  H   H1825     1.0  0.10826  0.57138  0.67419  1.0000
  C   C1020     1.0  0.02611  0.57791  0.59669  1.0000
  H   H1826     1.0  0.22143  0.57639  0.70661  1.0000
  H   H1827     1.0  0.08538  0.53884  0.55285  1.0000
  H   H1828     1.0  0.01893  0.66417  0.53913  1.0000
  S   S215      1.0  0.11808  0.50930  0.63137  1.0000
  H   H1829     1.0  0.12529  0.58111  0.52715  1.0000
  H   H1830     1.0  0.18742  0.56731  0.50600  1.0000
  H   H1831     1.0  0.25941  0.91552  0.49564  1.0000
  H   H1832     1.0  0.04027  0.68206  0.50515  1.0000
  H   H1833     1.0  0.04626  0.58560  0.50524  1.0000
  C   C1021     1.0  0.15825  0.66453  0.54880  1.0000
  H   H1834     1.0  0.07982  0.71300  0.49466  1.0000
  Fe  Fe98      1.0  0.11672  0.80415  0.48730  1.0000
  C   C1022     1.0  0.26739  0.92174  0.51593  1.0000
  H   H1835     1.0  0.27311  0.90864  0.54733  1.0000
  C   C1023     1.0  0.05483  0.58446  0.59097  1.0000
  H   H1836     1.0  0.18026  0.54562  0.53995  1.0000
  C   C1024     1.0  0.02724  0.56391  0.61390  1.0000
  H   H1837     1.0  0.04475  0.49369  0.56616  1.0000
  H   H1838     1.0  0.12309  0.60113  0.54844  1.0000
  Fe  Fe99      1.0  0.12895  0.53247  0.61574  1.0000
  H   H1839     1.0  0.03618  0.71356  0.56025  1.0000
  H   H1840     1.0  0.09551  0.72526  0.52489  1.0000
  S   S216      1.0  0.10443  0.69049  0.52020  1.0000
  H   H1841     1.0  0.99429  0.48951  0.51403  1.0000
  H   H1842     1.0  0.07174  0.74515  0.49209  1.0000
  H   H1843     1.0  0.07429  0.53017  0.57445  1.0000
  H   H1844     1.0  0.07232  0.71894  0.51497  1.0000
  C   C1025     1.0  0.06799  0.55850  0.56633  1.0000
  C   C1026     1.0  0.28670  0.96397  0.52295  1.0000
  H   H1845     1.0  0.14891  0.55022  0.49728  1.0000
  Fe  Fe100     1.0  0.24331  0.87708  0.49853  1.0000
  C   C1027     1.0  0.99811  0.57862  0.55227  1.0000
  H   H1846     1.0  0.00934  0.80460  0.53149  1.0000
  H   H1847     1.0  0.18862  0.51505  0.70147  1.0000
  C   C1028     1.0  0.06819  0.59452  0.57780  1.0000
  C   C1029     1.0  0.05839  0.49485  0.56366  1.0000
  C   C1030     1.0  0.28903  0.94572  0.53544  1.0000
  H   H1848     1.0  0.03834  0.56369  0.61925  1.0000
  H   H1849     1.0  0.01717  0.71073  0.55525  1.0000
  C   C1031     1.0  0.06801  0.52320  0.64864  1.0000
  H   H1850     1.0  0.31249  0.82606  0.52035  1.0000
  H   H1851     1.0  0.07439  0.60393  0.59725  1.0000
  H   H1852     1.0  0.14186  0.68708  0.51185  1.0000
  H   H1853     1.0  0.16481  0.53010  0.51909  1.0000
  H   H1854     1.0  0.05538  0.60739  0.52000  1.0000
  H   H1855     1.0  0.25028  0.93258  0.54954  1.0000
  C   C1032     1.0  0.20555  0.55878  0.70761  1.0000
  C   C1033     1.0  0.20677  0.54796  0.72624  1.0000
  N   N58       1.0  0.32250  0.83856  0.49405  1.0000
  C   C1034     1.0  0.01685  0.73680  0.55495  1.0000
  C   C1035     1.0  0.14391  0.59437  0.56207  1.0000
  H   H1856     1.0  0.08695  0.53347  0.62719  1.0000
  C   C1036     1.0  0.30661  0.85327  0.49315  1.0000
  C   C1037     1.0  0.05090  0.56078  0.58014  1.0000
  H   H1857     1.0  0.27418  0.90802  0.52015  1.0000
  S   S217      1.0  0.22845  0.97335  0.49684  1.0000
  C   C1038     1.0  0.06799  0.71890  0.50333  1.0000
  H   H1858     1.0  0.18520  0.57168  0.52700  1.0000
  H   H1859     1.0  0.22857  0.94108  0.49131  1.0000
  H   H1860     1.0  0.16639  0.65304  0.58217  1.0000
  H   H1861     1.0  0.04910  0.66933  0.52365  1.0000
  C   C1039     1.0  0.10797  0.56543  0.52871  1.0000
  H   H1862     1.0  0.16467  0.56366  0.49016  1.0000
  H   H1863     1.0  0.13415  0.83983  0.48720  1.0000
  H   H1864     1.0  0.00574  0.50374  0.49626  1.0000
  H   H1865     1.0  0.29566  0.80216  0.53071  1.0000
  H   H1866     1.0  0.02428  0.84368  0.48833  1.0000
  H   H1867     1.0  0.14731  0.65028  0.62045  1.0000
  C   C1040     1.0  0.18954  0.85038  0.58136  1.0000
  H   H1868     1.0  0.29162  0.96272  0.50920  1.0000
  H   H1869     1.0  0.02721  0.72849  0.52397  1.0000
  N   N59       1.0  0.17394  0.85730  0.57299  1.0000
  H   H1870     1.0  0.18415  0.87169  0.59488  1.0000
  H   H1871     1.0  0.05866  0.50579  0.56895  1.0000
  H   H1872     1.0  0.18385  0.84033  0.55500  1.0000
  C   C1041     1.0  0.07287  0.54042  0.56241  1.0000
  H   H1873     1.0  0.14111  0.64824  0.55075  1.0000
  H   H1874     1.0  0.17053  0.51832  0.54531  1.0000
  C   C1042     1.0  0.13751  0.72870  0.51481  1.0000
  Fe  Fe101     1.0  0.14069  0.50120  0.64416  1.0000
  H   H1875     1.0  0.06210  0.57300  0.59923  1.0000
  H   H1876     1.0  0.06107  0.69584  0.50297  1.0000
  H   H1877     1.0  0.15169  0.67412  0.53874  1.0000
  C   C1043     1.0  0.29929  0.79994  0.51728  1.0000
  C   C1044     1.0  0.25531  0.95250  0.55893  1.0000
  H   H1878     1.0  0.07529  0.52872  0.60476  1.0000
  H   H1879     1.0  0.00780  0.49535  0.53479  1.0000
  H   H1880     1.0  0.17226  0.60279  0.51585  1.0000
  C   C1045     1.0  0.05409  0.70792  0.50767  1.0000
  H   H1881     1.0  0.02106  0.70354  0.52060  1.0000
  H   H1882     1.0  0.11725  0.67350  0.55357  1.0000
  C   C1046     1.0  0.16557  0.81338  0.57152  1.0000
  H   H1883     1.0  0.17449  0.81094  0.55912  1.0000
  C   C1047     1.0  0.11001  0.48785  0.69925  1.0000
  C   C1048     1.0  0.00036  0.81618  0.52542  1.0000
  H   H1884     1.0  0.09478  0.67706  0.58047  1.0000
  H   H1885     1.0  0.12996  0.62880  0.60388  1.0000
  C   C1049     1.0  0.17172  0.82525  0.57877  1.0000
  H   H1886     1.0  0.16304  0.82685  0.59148  1.0000
  N   N60       1.0  0.13176  0.65898  0.57367  1.0000
  S   S218      1.0  0.15001  0.74412  0.51097  1.0000
  C   C1050     1.0  0.12932  0.59181  0.55840  1.0000
  C   C1051     1.0  0.12133  0.67573  0.56454  1.0000
  H   H1887     1.0  0.10625  0.71119  0.56117  1.0000
  C   C1052     1.0  0.19533  0.86375  0.58737  1.0000
  H   H1888     1.0  0.20091  0.84425  0.57237  1.0000
  H   H1889     1.0  0.07835  0.66591  0.55745  1.0000
  H   H1890     1.0  0.09028  0.60425  0.57709  1.0000
  C   C1053     1.0  0.11749  0.70475  0.51847  1.0000
  H   H1891     1.0  0.11311  0.74594  0.52234  1.0000
  C   C1054     1.0  0.15791  0.65351  0.60919  1.0000
  H   H1892     1.0  0.12079  0.50664  0.70449  1.0000
  C   C1055     1.0  0.10486  0.68479  0.57609  1.0000
  Fe  Fe102     1.0  0.13825  0.62793  0.52894  1.0000
  C   C1056     1.0  0.05843  0.69229  0.53711  1.0000
  S   S219      1.0  0.15336  0.52267  0.62629  1.0000
  H   H1893     1.0  0.04947  0.66817  0.55099  1.0000
  C   C1057     1.0  0.06588  0.67200  0.56514  1.0000
  S   S220      1.0  0.10208  0.81627  0.50975  1.0000
  C   C1058     1.0  0.12308  0.57679  0.56718  1.0000
  C   C1059     1.0  0.09683  0.70264  0.56602  1.0000
  H   H1894     1.0  0.12942  0.68555  0.55850  1.0000
  H   H1895     1.0  0.09258  0.70129  0.55481  1.0000
  C   C1060     1.0  0.17116  0.52209  0.56991  1.0000
  C   C1061     1.0  0.03724  0.67810  0.51956  1.0000
  C   C1062     1.0  0.03983  0.78221  0.50087  1.0000
  C   C1063     1.0  0.14559  0.71182  0.51242  1.0000
  H   H1896     1.0  0.28845  0.79592  0.51500  1.0000
  H   H1897     1.0  0.02017  0.59062  0.60046  1.0000
  H   H1898     1.0  0.27983  0.92205  0.48879  1.0000
  H   H1899     1.0  0.06790  0.68255  0.56981  1.0000
  H   H1900     1.0  0.19959  0.52030  0.72410  1.0000
  C   C1064     1.0  0.23613  0.95760  0.56731  1.0000
  H   H1901     1.0  0.12767  0.66248  0.59978  1.0000
  H   H1902     1.0  0.08531  0.70898  0.57466  1.0000
  C   C1065     1.0  0.20869  0.85469  0.59875  1.0000
  H   H1903     1.0  0.20302  0.84615  0.61087  1.0000
  C   C1066     1.0  0.03115  0.69437  0.52752  1.0000
  H   H1904     1.0  0.15848  0.66726  0.60733  1.0000
  Fe  Fe103     1.0  0.13825  0.53808  0.64653  1.0000
  C   C1067     1.0  0.08116  0.59675  0.58679  1.0000
  C   C1068     1.0  0.06873  0.62833  0.51101  1.0000
  C   C1069     1.0  0.06278  0.79181  0.50632  1.0000
  H   H1905     1.0  0.07583  0.50435  0.72465  1.0000
  H   H1906     1.0  0.10643  0.49670  0.72295  1.0000
  H   H1907     1.0  0.03068  0.55197  0.72682  1.0000
  H   H1908     1.0  0.99921  0.56732  0.62287  1.0000
  S   S221      1.0  0.12754  0.51609  0.66509  1.0000
  H   H1909     1.0  0.18297  0.64570  0.54887  1.0000
  H   H1910     1.0  0.14033  0.67607  0.58382  1.0000
  H   H1911     1.0  0.21297  0.86460  0.60237  1.0000
  C   C1070     1.0  0.07567  0.52795  0.63104  1.0000
  C   C1071     1.0  0.04565  0.51498  0.64051  1.0000
  H   H1912     1.0  0.16114  0.67185  0.55672  1.0000
  H   H1913     1.0  0.11212  0.57459  0.56391  1.0000
  C   C1072     1.0  0.02111  0.52848  0.54099  1.0000
  C   C1073     1.0  0.04437  0.62769  0.50028  1.0000
  C   C1074     1.0  0.02707  0.60917  0.56904  1.0000
  C   C1075     1.0  0.16785  0.88368  0.48853  1.0000
  H   H1914     1.0  0.31452  0.87730  0.53480  1.0000
  H   H1915     1.0  0.29985  0.85509  0.50651  1.0000
  N   N61       1.0  0.04509  0.70342  0.52658  1.0000
  C   C1076     1.0  0.03651  0.72031  0.53234  1.0000
  S   S222      1.0  0.15314  0.61198  0.54953  1.0000
  C   C1077     1.0  0.25797  0.94282  0.54433  1.0000
  H   H1916     1.0  0.30260  0.93861  0.53117  1.0000
  C   C1078     1.0  0.27725  0.93436  0.51791  1.0000
  H   H1917     1.0  0.02437  0.61745  0.54194  1.0000
  H   H1918     1.0  0.04027  0.53776  0.51853  1.0000
  C   C1079     1.0  0.02677  0.71892  0.55156  1.0000
  S   S223      1.0  0.07813  0.52429  0.66446  1.0000
  Fe  Fe104     1.0  0.11720  0.66372  0.51559  1.0000
  H   H1919     1.0  0.11711  0.86838  0.48581  1.0000
  C   C1080     1.0  0.13695  0.54930  0.68864  1.0000
  H   H1920     1.0  0.26231  0.94461  0.56931  1.0000
  H   H1921     1.0  0.02589  0.74549  0.55220  1.0000
  C   C1081     1.0  0.26658  0.92450  0.49694  1.0000
  H   H1922     1.0  0.02234  0.57179  0.71232  1.0000
  H   H1923     1.0  0.05055  0.59320  0.55688  1.0000
  H   H1924     1.0  0.09898  0.57678  0.52233  1.0000
  H   H1925     1.0  0.19375  0.56941  0.70742  1.0000
  N   N62       1.0  0.15815  0.55423  0.52752  1.0000
  C   C1082     1.0  0.05768  0.65241  0.48887  1.0000
  C   C1083     1.0  0.31236  0.86437  0.54046  1.0000
  H   H1926     1.0  0.29498  0.91047  0.53857  1.0000
  H   H1927     1.0  0.01647  0.57549  0.59085  1.0000
  H   H1928     1.0  0.01157  0.67576  0.51924  1.0000
  H   H1929     1.0  0.02877  0.55093  0.61148  1.0000
  C   C1084     1.0  0.03092  0.56588  0.72177  1.0000
  H   H1930     1.0  0.00703  0.74280  0.54672  1.0000
  C   C1085     1.0  0.29688  0.97525  0.52619  1.0000
  H   H1931     1.0  0.18173  0.54124  0.51242  1.0000
  H   H1932     1.0  0.01795  0.81840  0.50058  1.0000
  C   C1086     1.0  0.16604  0.54648  0.54344  1.0000
  H   H1933     1.0  0.09996  0.49864  0.69392  1.0000
  H   H1934     1.0  0.25969  0.93801  0.49222  1.0000
  C   C1087     1.0  0.05609  0.61993  0.51132  1.0000
  H   H1935     1.0  0.21791  0.53676  0.72453  1.0000
  H   H1936     1.0  0.16062  0.55514  0.55283  1.0000
  C   C1088     1.0  0.11670  0.49427  0.71137  1.0000
  C   C1089     1.0  0.16367  0.52790  0.55349  1.0000
  H   H1937     1.0  0.15344  0.58030  0.53107  1.0000
  H   H1938     1.0  0.14981  0.52727  0.55761  1.0000
  C   C1090     1.0  0.13907  0.55376  0.53294  1.0000
  H   H1939     1.0  0.31090  0.96893  0.52440  1.0000
  H   H1940     1.0  0.13715  0.54124  0.53193  1.0000
  C   C1091     1.0  0.06638  0.48756  0.69814  1.0000
  C   C1092     1.0  0.16744  0.54337  0.51425  1.0000
  H   H1941     1.0  0.03241  0.55114  0.53439  1.0000
  H   H1942     1.0  0.06910  0.68419  0.52914  1.0000
  H   H1943     1.0  0.17461  0.59849  0.49474  1.0000
  H   H1944     1.0  0.00046  0.55073  0.53879  1.0000
  H   H1945     1.0  0.15745  0.59174  0.73412  1.0000
  H   H1946     1.0  0.15958  0.70814  0.50884  1.0000
  H   H1947     1.0  0.15432  0.57948  0.50956  1.0000
  H   H1948     1.0  0.18527  0.52166  0.56653  1.0000
  H   H1949     1.0  0.01820  0.52765  0.55525  1.0000
  H   H1950     1.0  0.00891  0.57923  0.63175  1.0000
  H   H1951     1.0  0.03183  0.58532  0.56079  1.0000
  H   H1952     1.0  0.25134  0.95247  0.53420  1.0000
  C   C1093     1.0  0.02762  0.62242  0.55165  1.0000
  H   H1953     1.0  0.23464  0.96470  0.57751  1.0000
  H   H1954     1.0  0.28936  0.88729  0.49718  1.0000
  H   H1955     1.0  0.01794  0.63459  0.55351  1.0000
  S   S224      1.0  0.01126  0.61211  0.48801  1.0000
  C   C1094     1.0  0.03870  0.59110  0.56689  1.0000
  H   H1956     1.0  0.28852  0.94757  0.54847  1.0000
  H   H1957     1.0  0.29100  0.93061  0.51099  1.0000
  H   H1958     1.0  0.16116  0.88024  0.50237  1.0000
  H   H1959     1.0  0.16692  0.52560  0.69865  1.0000
  S   S225      1.0  0.13336  0.61628  0.50965  1.0000
  C   C1095     1.0  0.17988  0.59422  0.50679  1.0000
  S   S226      1.0  0.99506  0.52788  0.62708  1.0000
  S   S227      1.0  0.99810  0.63914  0.51380  1.0000
  C   C1096     1.0  0.06815  0.53155  0.72612  1.0000
  H   H1960     1.0  0.02552  0.51507  0.53898  1.0000
  C   C1097     1.0  0.05328  0.79107  0.49484  1.0000
  C   C1098     1.0  0.04786  0.49195  0.70855  1.0000
  H   H1961     1.0  0.01940  0.50945  0.51702  1.0000
  H   H1962     1.0  0.04737  0.53049  0.53889  1.0000
  H   H1963     1.0  0.31105  0.78925  0.51616  1.0000
  H   H1964     1.0  0.08183  0.53229  0.72418  1.0000
  H   H1965     1.0  0.00270  0.80536  0.50383  1.0000
  H   H1966     1.0  0.00480  0.51834  0.66257  1.0000
  H   H1967     1.0  0.00061  0.50786  0.55666  1.0000
  H   H1968     1.0  0.25206  0.81996  0.48683  1.0000
  H   H1969     1.0  0.01533  0.70368  0.49244  1.0000
  S   S228      1.0  0.02899  0.78094  0.48574  1.0000
  H   H1970     1.0  0.04952  0.74412  0.50135  1.0000
  C   C1099     1.0  0.04557  0.64363  0.48858  1.0000
  H   H1971     1.0  0.16411  0.82994  0.48709  1.0000
  C   C1100     1.0  0.06735  0.51252  0.73373  1.0000
  Fe  Fe105     1.0  0.13797  0.64087  0.49041  1.0000
  C   C1101     1.0  0.06185  0.73768  0.49383  1.0000
  H   H1972     1.0  0.21084  0.55555  0.73311  1.0000
  S   S229      1.0  0.11026  0.65513  0.49523  1.0000
  Fe  Fe106     1.0  0.00927  0.64021  0.48555  1.0000
  H   H1973     1.0  0.17936  0.85755  0.48603  1.0000
  S   S230      1.0  0.32444  0.93881  0.55385  1.0000
  H   H1974     1.0  0.99280  0.52941  0.51070  1.0000
  H   H1975     1.0  0.13040  0.68584  0.48509  1.0000
  C   C1102     1.0  0.99151  0.83325  0.49683  1.0000
  C   C1103     1.0  0.99157  0.52041  0.52376  1.0000
  H   H1976     1.0  0.31988  0.87530  0.48510  1.0000
  C   C1104     1.0  0.29385  0.49210  0.91286  1.0000
  Fe  Fe107     1.0  0.00175  0.54071  0.77460  1.0000
  S   S231      1.0  0.00494  0.56244  0.78411  1.0000
  H   H1977     1.0  0.15651  0.48690  0.86430  1.0000
  S   S232      1.0  0.10796  0.49782  0.75788  1.0000
  C   C1105     1.0  0.25826  0.61288  0.95026  1.0000
  Fe  Fe108     1.0  0.24568  0.55326  0.84561  1.0000
  S   S233      1.0  0.21829  0.56914  0.85032  1.0000
  S   S234      1.0  0.27016  0.56323  0.83943  1.0000
  Fe  Fe109     1.0  0.23421  0.52054  0.84897  1.0000
  S   S235      1.0  0.20594  0.53289  0.85470  1.0000
  C   C1106     1.0  0.17514  0.55658  0.73908  1.0000
  Fe  Fe110     1.0  0.21324  0.55494  0.83301  1.0000
  S   S236      1.0  0.19676  0.56755  0.81284  1.0000
  Fe  Fe111     1.0  0.21309  0.54586  0.87150  1.0000
  S   S237      1.0  0.19645  0.54671  0.89810  1.0000
  S   S238      1.0  0.24112  0.54155  0.82603  1.0000
  S   S239      1.0  0.24071  0.53101  0.86812  1.0000
  Fe  Fe112     1.0  0.22515  0.56351  0.96865  1.0000
  C   C1107     1.0  0.23603  0.49792  0.91844  1.0000
  S   S240      1.0  0.22710  0.57925  0.94112  1.0000
  H   H1978     1.0  0.26914  0.60772  0.95723  1.0000
  C   C1108     1.0  0.26596  0.59710  0.90064  1.0000
  H   H1979     1.0  0.10926  0.55490  0.83712  1.0000
  H   H1980     1.0  0.18651  0.51080  0.81568  1.0000
  S   S241      1.0  0.12349  0.55711  0.77759  1.0000
  Fe  Fe113     1.0  0.11540  0.51890  0.76464  1.0000
  C   C1109     1.0  0.05631  0.55848  0.79776  1.0000
  H   H1981     1.0  0.27390  0.54831  0.95265  1.0000
  C   C1110     1.0  0.18322  0.52468  0.81048  1.0000
  C   C1111     1.0  0.03991  0.54880  0.78312  1.0000
  S   S242      1.0  0.02172  0.52234  0.75974  1.0000
  H   H1982     1.0  0.20604  0.50607  0.75155  1.0000
  C   C1112     1.0  0.29859  0.51949  0.82085  1.0000
  H   H1983     1.0  0.29625  0.53900  0.95324  1.0000
  H   H1984     1.0  0.31451  0.58312  0.91725  1.0000
  H   H1985     1.0  0.29139  0.57039  0.94191  1.0000
  H   H1986     1.0  0.16235  0.59603  0.75243  1.0000
  C   C1113     1.0  0.16063  0.58573  0.74716  1.0000
  C   C1114     1.0  0.31519  0.56724  0.98022  1.0000
  C   C1115     1.0  0.17026  0.53173  0.80071  1.0000
  H   H1987     1.0  0.17341  0.50658  0.90872  1.0000
  C   C1116     1.0  0.22871  0.51292  0.92824  1.0000
  C   C1117     1.0  0.28257  0.55694  0.85555  1.0000
  C   C1118     1.0  0.29859  0.56155  0.85154  1.0000
  C   C1119     1.0  0.30901  0.55627  0.86396  1.0000
  C   C1120     1.0  0.30330  0.54653  0.88054  1.0000
  C   C1121     1.0  0.28710  0.54230  0.88471  1.0000
  C   C1122     1.0  0.27679  0.54746  0.87224  1.0000
  H   H1988     1.0  0.30287  0.56933  0.83881  1.0000
  C   C1123     1.0  0.26774  0.49307  0.98250  1.0000
  S   S243      1.0  0.07580  0.55807  0.80297  1.0000
  H   H1989     1.0  0.26419  0.54447  0.87575  1.0000
  C   C1124     1.0  0.20443  0.55657  0.90973  1.0000
  C   C1125     1.0  0.21819  0.56485  0.90160  1.0000
  C   C1126     1.0  0.22479  0.57212  0.91127  1.0000
  C   C1127     1.0  0.21797  0.57086  0.92909  1.0000
  C   C1128     1.0  0.20424  0.56255  0.93720  1.0000
  C   C1129     1.0  0.19737  0.55556  0.92751  1.0000
  H   H1990     1.0  0.22376  0.56562  0.88789  1.0000
  H   H1991     1.0  0.23540  0.57841  0.90504  1.0000
  H   H1992     1.0  0.19872  0.56169  0.95088  1.0000
  H   H1993     1.0  0.18675  0.54915  0.93386  1.0000
  H   H1994     1.0  0.24384  0.53109  0.91023  1.0000
  H   H1995     1.0  0.30211  0.57885  0.89297  1.0000
  C   C1130     1.0  0.17463  0.56054  0.79744  1.0000
  C   C1131     1.0  0.18723  0.55354  0.80765  1.0000
  C   C1132     1.0  0.19167  0.53555  0.81395  1.0000
  H   H1996     1.0  0.26366  0.50622  0.95651  1.0000
  H   H1997     1.0  0.17119  0.57445  0.79250  1.0000
  H   H1998     1.0  0.20158  0.53001  0.82154  1.0000
  C   C1133     1.0  0.27567  0.49144  0.79799  1.0000
  C   C1134     1.0  0.02481  0.56027  0.78943  1.0000
  H   H1999     1.0  0.25910  0.58834  0.94572  1.0000
  H   H2000     1.0  0.17901  0.57060  0.84927  1.0000
  C   C1135     1.0  0.16952  0.57014  0.86189  1.0000
  C   C1136     1.0  0.18319  0.50470  0.89662  1.0000
  H   H2001     1.0  0.30517  0.55893  0.92550  1.0000
  N   N63       1.0  0.13829  0.54852  0.85079  1.0000
  C   C1137     1.0  0.13369  0.56239  0.83512  1.0000
  C   C1138     1.0  0.15412  0.55114  0.85479  1.0000
  C   C1139     1.0  0.14316  0.53117  0.84580  1.0000
  C   C1140     1.0  0.12349  0.54819  0.86656  1.0000
  C   C1141     1.0  0.11060  0.56578  0.86858  1.0000
  C   C1142     1.0  0.15060  0.51512  0.85918  1.0000
  C   C1143     1.0  0.15218  0.56838  0.85998  1.0000
  H   H2002     1.0  0.14783  0.48752  0.79318  1.0000
  C   C1144     1.0  0.09839  0.56404  0.88648  1.0000
  H   H2003     1.0  0.18024  0.56684  0.75899  1.0000
  H   H2004     1.0  0.14549  0.56338  0.82459  1.0000
  H   H2005     1.0  0.12917  0.57545  0.83810  1.0000
  H   H2006     1.0  0.15833  0.54075  0.86585  1.0000
  H   H2007     1.0  0.16523  0.55008  0.84341  1.0000
  H   H2008     1.0  0.15287  0.53160  0.83337  1.0000
  H   H2009     1.0  0.13173  0.52833  0.84327  1.0000
  H   H2010     1.0  0.11535  0.53936  0.86670  1.0000
  H   H2011     1.0  0.12868  0.54248  0.87868  1.0000
  H   H2012     1.0  0.10246  0.57012  0.85868  1.0000
  H   H2013     1.0  0.11724  0.57626  0.86694  1.0000
  H   H2014     1.0  0.14262  0.51502  0.87253  1.0000
  H   H2015     1.0  0.16410  0.51514  0.85920  1.0000
  H   H2016     1.0  0.14748  0.57989  0.85014  1.0000
  H   H2017     1.0  0.14321  0.56858  0.87283  1.0000
  H   H2018     1.0  0.24712  0.48955  0.92431  1.0000
  H   H2019     1.0  0.28218  0.56325  0.91089  1.0000
  S   S244      1.0  0.31585  0.53987  0.89648  1.0000
  H   H2020     1.0  0.10582  0.56047  0.89693  1.0000
  H   H2021     1.0  0.08905  0.57665  0.88740  1.0000
  H   H2022     1.0  0.09096  0.55401  0.88853  1.0000
  H   H2023     1.0  0.17776  0.49934  0.88879  1.0000
  H   H2024     1.0  0.16382  0.55157  0.74794  1.0000
  H   H2025     1.0  0.30856  0.54008  0.82245  1.0000
  H   H2026     1.0  0.20991  0.50093  0.84535  1.0000
  C   C1145     1.0  0.11230  0.57636  0.81507  1.0000
  Fe  Fe114     1.0  0.00786  0.50206  0.77761  1.0000
  C   C1146     1.0  0.29727  0.59072  0.89843  1.0000
  H   H2027     1.0  0.12265  0.58112  0.80433  1.0000
  H   H2028     1.0  0.21358  0.51059  0.90059  1.0000
  H   H2029     1.0  0.26492  0.57492  0.89139  1.0000
  C   C1147     1.0  0.26783  0.58798  0.88577  1.0000
  H   H2030     1.0  0.28420  0.49738  0.92360  1.0000
  C   C1148     1.0  0.12000  0.55960  0.82697  1.0000
  H   H2031     1.0  0.10276  0.57386  0.80928  1.0000
  H   H2032     1.0  0.01385  0.57953  0.80489  1.0000
  H   H2033     1.0  0.30276  0.50607  0.81886  1.0000
  C   C1149     1.0  0.27668  0.60156  0.92365  1.0000
  H   H2034     1.0  0.25591  0.59081  0.86424  1.0000
  C   C1150     1.0  0.31224  0.59288  0.90518  1.0000
  H   H2035     1.0  0.26516  0.61123  0.89481  1.0000
  C   C1151     1.0  0.05571  0.54799  0.78719  1.0000
  C   C1152     1.0  0.24170  0.52435  0.92421  1.0000
  C   C1153     1.0  0.25965  0.60163  0.93775  1.0000
  H   H2036     1.0  0.28134  0.51097  0.96204  1.0000
  S   S245      1.0  0.15905  0.51780  0.79781  1.0000
  H   H2037     1.0  0.28094  0.54330  0.81080  1.0000
  C   C1154     1.0  0.02547  0.57063  0.80003  1.0000
  C   C1155     1.0  0.03966  0.50850  0.81767  1.0000
  H   H2038     1.0  0.31725  0.52531  0.84921  1.0000
  C   C1156     1.0  0.31920  0.49312  0.92438  1.0000
  C   C1157     1.0  0.16609  0.54966  0.79405  1.0000
  N   N64       1.0  0.28003  0.59002  0.91109  1.0000
  C   C1158     1.0  0.04112  0.56961  0.80433  1.0000
  H   H2039     1.0  0.32066  0.52053  0.93664  1.0000
  H   H2040     1.0  0.15615  0.55521  0.78650  1.0000
  H   H2041     1.0  0.28102  0.58632  0.87744  1.0000
  H   H2042     1.0  0.03946  0.54075  0.77494  1.0000
  H   H2043     1.0  0.14515  0.49570  0.74761  1.0000
  H   H2044     1.0  0.10546  0.58658  0.82254  1.0000
  Fe  Fe115     1.0  0.09936  0.54679  0.78487  1.0000
  H   H2045     1.0  0.19789  0.50411  0.78338  1.0000
  C   C1159     1.0  0.27463  0.50058  0.96333  1.0000
  H   H2046     1.0  0.29268  0.53025  0.79499  1.0000
  C   C1160     1.0  0.27921  0.57154  0.92041  1.0000
  H   H2047     1.0  0.23653  0.53435  0.93213  1.0000
  S   S246      1.0  0.11297  0.51899  0.79253  1.0000
  H   H2048     1.0  0.12618  0.54973  0.81894  1.0000
  S   S247      1.0  0.14115  0.52631  0.75578  1.0000
  H   H2049     1.0  0.26138  0.49386  0.80283  1.0000
  H   H2050     1.0  0.19852  0.50621  0.92038  1.0000
  H   H2051     1.0  0.28240  0.53519  0.89767  1.0000
  H   H2052     1.0  0.28726  0.59797  0.93082  1.0000
  H   H2053     1.0  0.20796  0.49030  0.94467  1.0000
  H   H2054     1.0  0.29126  0.51907  0.83451  1.0000
  H   H2055     1.0  0.06735  0.50011  0.81362  1.0000
  H   H2056     1.0  0.29569  0.60184  0.88700  1.0000
  H   H2057     1.0  0.27658  0.61523  0.91628  1.0000
  H   H2058     1.0  0.04153  0.57771  0.81249  1.0000
  C   C1161     1.0  0.15123  0.49820  0.85451  1.0000
  H   H2059     1.0  0.25834  0.62653  0.94311  1.0000
  H   H2060     1.0  0.28751  0.53652  0.93628  1.0000
  S   S248      1.0  0.09976  0.54600  0.75765  1.0000
  C   C1162     1.0  0.28612  0.52981  0.80884  1.0000
  H   H2061     1.0  0.21652  0.52127  0.92463  1.0000
  H   H2062     1.0  0.25302  0.59611  0.90917  1.0000
  Fe  Fe116     1.0  0.13733  0.52915  0.78308  1.0000
  H   H2063     1.0  0.06735  0.53915  0.78232  1.0000
  H   H2064     1.0  0.25887  0.61088  0.86648  1.0000
  C   C1163     1.0  0.25528  0.59836  0.87378  1.0000
  H   H2065     1.0  0.24591  0.61275  0.96009  1.0000
  H   H2066     1.0  0.24810  0.60698  0.93180  1.0000
  H   H2067     1.0  0.16775  0.58235  0.86607  1.0000
  H   H2068     1.0  0.31348  0.50542  0.84869  1.0000
  H   H2069     1.0  0.31896  0.50452  0.95692  1.0000
  H   H2070     1.0  0.30924  0.60602  0.90790  1.0000
  H   H2071     1.0  0.15969  0.49748  0.84146  1.0000
  C   C1164     1.0  0.31408  0.52811  0.81723  1.0000
  C   C1165     1.0  0.29173  0.56233  0.93302  1.0000
  H   H2072     1.0  0.29660  0.50306  0.90171  1.0000
  H   H2073     1.0  0.05389  0.51091  0.73625  1.0000
  S   S249      1.0  0.24301  0.53735  0.97074  1.0000
  H   H2074     1.0  0.24174  0.60106  0.88129  1.0000
  H   H2075     1.0  0.25425  0.51650  0.92746  1.0000
  S   S250      1.0  0.24590  0.49269  0.84827  1.0000
  C   C1166     1.0  0.28704  0.54545  0.94443  1.0000
  C   C1167     1.0  0.19409  0.53289  0.75527  1.0000
  H   H2076     1.0  0.13803  0.49728  0.85446  1.0000
  N   N65       1.0  0.22333  0.48746  0.91913  1.0000
  H   H2077     1.0  0.27510  0.52346  0.81184  1.0000
  Fe  Fe117     1.0  0.00177  0.52686  0.74395  1.0000
  H   H2078     1.0  0.30873  0.50035  0.93323  1.0000
  H   H2079     1.0  0.24168  0.50345  0.90461  1.0000
  H   H2080     1.0  0.02884  0.50798  0.81229  1.0000
  H   H2081     1.0  0.00247  0.53440  0.81833  1.0000
  H   H2082     1.0  0.26573  0.57078  0.92757  1.0000
  H   H2083     1.0  0.00071  0.53122  0.84146  1.0000
  H   H2084     1.0  0.28050  0.48974  0.82278  1.0000
  H   H2085     1.0  0.17479  0.55908  0.87185  1.0000
  C   C1168     1.0  0.20876  0.49973  0.91070  1.0000
  H   H2086     1.0  0.18196  0.52957  0.76414  1.0000
  H   H2087     1.0  0.27933  0.50416  0.79215  1.0000
  H   H2088     1.0  0.03684  0.50358  0.83201  1.0000
  H   H2089     1.0  0.18773  0.57771  0.73690  1.0000
  H   H2090     1.0  0.22600  0.50762  0.94255  1.0000
  Fe  Fe118     1.0  0.12527  0.55348  0.75095  1.0000
  C   C1169     1.0  0.05672  0.49780  0.80924  1.0000
  H   H2091     1.0  0.27359  0.56880  0.97891  1.0000
  C   C1170     1.0  0.32363  0.51313  0.84451  1.0000
  H   H2092     1.0  0.32310  0.50311  0.91257  1.0000
  C   C1171     1.0  0.21014  0.50788  0.77559  1.0000
  H   H2093     1.0  0.20870  0.48973  0.88863  1.0000
  H   H2094     1.0  0.04051  0.52228  0.81489  1.0000
  C   C1172     1.0  0.19983  0.49211  0.90105  1.0000
  H   H2095     1.0  0.05859  0.50278  0.79491  1.0000
  H   H2096     1.0  0.03055  0.56880  0.74754  1.0000
  H   H2097     1.0  0.00951  0.57274  0.74279  1.0000
  H   H2098     1.0  0.07181  0.50798  0.74623  1.0000
  H   H2099     1.0  0.18583  0.51751  0.88895  1.0000
  H   H2100     1.0  0.21302  0.51718  0.78137  1.0000
  H   H2101     1.0  0.19772  0.54174  0.76100  1.0000
  N   N66       1.0  0.19079  0.54171  0.73720  1.0000
  C   C1173     1.0  0.20863  0.51600  0.75666  1.0000
  H   H2102     1.0  0.29499  0.58756  0.97008  1.0000
  H   H2103     1.0  0.99571  0.51551  0.83316  1.0000
  H   H2104     1.0  0.16217  0.49108  0.77212  1.0000
  C   C1174     1.0  0.29861  0.57402  0.97644  1.0000
  H   H2105     1.0  0.28369  0.49020  0.95703  1.0000
  C   C1175     1.0  0.17726  0.57153  0.74585  1.0000
  C   C1176     1.0  0.28651  0.56343  0.98143  1.0000
  H   H2106     1.0  0.14962  0.58030  0.75602  1.0000
  H   H2107     1.0  0.22077  0.49603  0.77624  1.0000
  H   H2108     1.0  0.32129  0.55995  0.86079  1.0000
  H   H2109     1.0  0.22141  0.51879  0.74939  1.0000
  H   H2110     1.0  0.18050  0.51912  0.74058  1.0000
  C   C1177     1.0  0.99488  0.52958  0.83146  1.0000
  C   C1178     1.0  0.02293  0.57464  0.73717  1.0000
  H   H2111     1.0  0.31827  0.53289  0.80293  1.0000
  H   H2112     1.0  0.06002  0.53897  0.73602  1.0000
  C   C1179     1.0  0.21309  0.48783  0.85293  1.0000
  H   H2113     1.0  0.32072  0.49121  0.87738  1.0000
  Fe  Fe119     1.0  0.38247  0.38449  0.03133  1.0000
  S   S251      1.0  0.36838  0.38914  0.01002  1.0000
  S   S252      1.0  0.38428  0.35889  0.05075  1.0000
  Fe  Fe120     1.0  0.38723  0.42167  0.02182  1.0000
  S   S253      1.0  0.54931  0.12121  0.01795  1.0000
  S   S254      1.0  0.40096  0.43991  0.02583  1.0000
  Fe  Fe121     1.0  0.35426  0.41396  0.01838  1.0000
  S   S255      1.0  0.59182  0.17612  0.01103  1.0000
  H   H2114     1.0  0.56916  0.20206  0.05653  1.0000
  H   H2115     1.0  0.40970  0.47332  0.01594  1.0000
  S   S256      1.0  0.36707  0.40848  0.04090  1.0000
  S   S257      1.0  0.40400  0.39703  0.01434  1.0000
  H   H2116     1.0  0.44622  0.33288  0.07652  1.0000
  H   H2117     1.0  0.62227  0.06354  0.17366  1.0000
  C   C1180     1.0  0.44696  0.13407  0.99108  1.0000
  C   C1181     1.0  0.45172  0.23097  0.99064  1.0000
  Fe  Fe122     1.0  0.61143  0.31031  0.00453  1.0000
  S   S258      1.0  0.58943  0.33089  0.01457  1.0000
  S   S259      1.0  0.62949  0.29198  0.02136  1.0000
  Fe  Fe123     1.0  0.47053  0.29865  0.01727  1.0000
  C   C1182     1.0  0.52120  0.22037  0.99958  1.0000
  S   S260      1.0  0.44476  0.29466  0.03414  1.0000
  Fe  Fe124     1.0  0.50631  0.27894  0.00249  1.0000
  C   C1183     1.0  0.59292  0.20489  0.06019  1.0000
  C   C1184     1.0  0.47026  0.37163  0.00439  1.0000
  H   H2118     1.0  0.63747  0.09935  0.18066  1.0000
  C   C1185     1.0  0.55252  0.00684  0.13781  1.0000
  S   S261      1.0  0.63923  0.02738  0.08259  1.0000
  H   H2119     1.0  0.47846  0.01727  0.20060  1.0000
  S   S262      1.0  0.49496  0.28769  0.02769  1.0000
  H   H2120     1.0  0.42603  0.23784  0.00745  1.0000
  Fe  Fe125     1.0  0.49444  0.16775  0.01009  1.0000
  S   S263      1.0  0.47851  0.15583  0.00035  1.0000
  S   S264      1.0  0.48218  0.19435  0.01601  1.0000
  Fe  Fe126     1.0  0.52376  0.13548  0.01087  1.0000
  H   H2121     1.0  0.60055  0.21495  0.05726  1.0000
  Fe  Fe127     1.0  0.48710  0.13136  0.01972  1.0000
  S   S265      1.0  0.47028  0.11339  0.03782  1.0000
  S   S266      1.0  0.50076  0.14407  0.03107  1.0000
  S   S267      1.0  0.51061  0.12114  0.00083  1.0000
  H   H2122     1.0  0.52020  0.20974  0.04227  1.0000
  H   H2123     1.0  0.53119  0.03028  0.05668  1.0000
  H   H2124     1.0  0.32577  0.30269  0.09812  1.0000
  H   H2125     1.0  0.49403  0.05877  0.05365  1.0000
  H   H2126     1.0  0.50342  0.07668  0.17211  1.0000
  H   H2127     1.0  0.55421  0.25514  0.01337  1.0000
  Fe  Fe128     1.0  0.49770  0.04314  0.11790  1.0000
  S   S268      1.0  0.50193  0.03790  0.14508  1.0000
  S   S269      1.0  0.50898  0.06405  0.09717  1.0000
  C   C1186     1.0  0.55586  0.27445  0.03385  1.0000
  C   C1187     1.0  0.55267  0.15396  0.01524  1.0000
  Fe  Fe129     1.0  0.47599  0.03109  0.15375  1.0000
  S   S270      1.0  0.45666  0.03933  0.17686  1.0000
  Fe  Fe130     1.0  0.51196  0.01027  0.14243  1.0000
  H   H2128     1.0  0.59563  0.00541  0.12954  1.0000
  S   S271      1.0  0.47053  0.03907  0.12681  1.0000
  S   S272      1.0  0.50964  0.01579  0.11470  1.0000
  H   H2129     1.0  0.33406  0.40096  0.99845  1.0000
  C   C1188     1.0  0.46678  0.04401  0.19074  1.0000
  C   C1189     1.0  0.47655  0.03060  0.20139  1.0000
  H   H2130     1.0  0.57128  0.24997  0.04424  1.0000
  C   C1190     1.0  0.37058  0.46316  0.03526  1.0000
  C   C1191     1.0  0.47160  0.06504  0.20351  1.0000
  C   C1192     1.0  0.46424  0.06121  0.19189  1.0000
  H   H2131     1.0  0.51404  0.04609  0.18405  1.0000
  H   H2132     1.0  0.64668  0.02325  0.21145  1.0000
  H   H2133     1.0  0.46975  0.07841  0.20418  1.0000
  H   H2134     1.0  0.45663  0.07159  0.18374  1.0000
  H   H2135     1.0  0.58807  0.20638  0.02771  1.0000
  H   H2136     1.0  0.57340  0.30798  0.00535  1.0000
  H   H2137     1.0  0.57653  0.25209  0.01336  1.0000
  C   C1193     1.0  0.41282  0.05936  0.20958  1.0000
  C   C1194     1.0  0.56441  0.24789  0.02103  1.0000
  H   H2138     1.0  0.50448  0.02059  0.07281  1.0000
  H   H2139     1.0  0.60113  0.19368  0.05458  1.0000
  C   C1195     1.0  0.42551  0.36953  0.05440  1.0000
  H   H2140     1.0  0.58933  0.04002  0.14332  1.0000
  C   C1196     1.0  0.55996  0.25462  0.03790  1.0000
  S   S273      1.0  0.52400  0.25322  0.99853  1.0000
  C   C1197     1.0  0.48078  0.09970  0.05452  1.0000
  C   C1198     1.0  0.49842  0.09832  0.05306  1.0000
  C   C1199     1.0  0.50680  0.08743  0.06631  1.0000
  C   C1200     1.0  0.49771  0.07763  0.08104  1.0000
  C   C1201     1.0  0.48008  0.07882  0.08250  1.0000
  C   C1202     1.0  0.47161  0.08994  0.06928  1.0000
  H   H2141     1.0  0.50569  0.10561  0.04168  1.0000
  H   H2142     1.0  0.52042  0.08652  0.06503  1.0000
  H   H2143     1.0  0.47295  0.07142  0.09392  1.0000
  H   H2144     1.0  0.45791  0.09111  0.07054  1.0000
  C   C1203     1.0  0.51285  0.23635  0.00419  1.0000
  C   C1204     1.0  0.52064  0.00272  0.19287  1.0000
  C   C1205     1.0  0.51218  0.20703  0.00370  1.0000
  C   C1206     1.0  0.49476  0.20968  0.01243  1.0000
  C   C1207     1.0  0.48661  0.22554  0.01730  1.0000
  C   C1208     1.0  0.49557  0.23884  0.01315  1.0000
  H   H2145     1.0  0.45056  0.14224  0.99760  1.0000
  H   H2146     1.0  0.63542  0.33681  0.07967  1.0000
  H   H2147     1.0  0.47322  0.22762  0.02421  1.0000
  H   H2148     1.0  0.48909  0.25102  0.01696  1.0000
  C   C1209     1.0  0.56774  0.33022  0.01646  1.0000
  C   C1210     1.0  0.55456  0.34272  0.02378  1.0000
  C   C1211     1.0  0.53712  0.34268  0.02574  1.0000
  H   H2149     1.0  0.45422  0.41435  0.99536  1.0000
  H   H2150     1.0  0.49607  0.04006  0.08123  1.0000
  H   H2151     1.0  0.51857  0.19487  0.99983  1.0000
  H   H2152     1.0  0.55786  0.35241  0.02810  1.0000
  H   H2153     1.0  0.52708  0.35233  0.03159  1.0000
  S   S274      1.0  0.63928  0.14984  0.01403  1.0000
  Fe  Fe131     1.0  0.62821  0.27204  0.00812  1.0000
  H   H2154     1.0  0.58228  0.01528  0.22735  1.0000
  H   H2155     1.0  0.61486  0.10358  0.10885  1.0000
  N   N67       1.0  0.55076  0.03276  0.18982  1.0000
  H   H2156     1.0  0.55865  0.04418  0.16242  1.0000
  C   C1212     1.0  0.40123  0.34148  0.04531  1.0000
  C   C1213     1.0  0.40111  0.32490  0.05599  1.0000
  C   C1214     1.0  0.41444  0.31068  0.05225  1.0000
  C   C1215     1.0  0.42821  0.31296  0.03799  1.0000
  C   C1216     1.0  0.42843  0.32956  0.02726  1.0000
  C   C1217     1.0  0.41485  0.34383  0.03086  1.0000
  H   H2157     1.0  0.39065  0.32301  0.06720  1.0000
  H   H2158     1.0  0.41420  0.29789  0.06057  1.0000
  H   H2159     1.0  0.43892  0.33131  0.01611  1.0000
  H   H2160     1.0  0.41492  0.35664  0.02260  1.0000
  H   H2161     1.0  0.64050  0.06944  0.13920  1.0000
  H   H2162     1.0  0.47305  0.38445  0.99699  1.0000
  C   C1218     1.0  0.53262  0.33024  0.02025  1.0000
  C   C1219     1.0  0.46076  0.35355  0.03452  1.0000
  C   C1220     1.0  0.46454  0.04732  0.06558  1.0000
  C   C1221     1.0  0.45065  0.33442  0.06217  1.0000
  H   H2163     1.0  0.33568  0.32568  0.05198  1.0000
  C   C1222     1.0  0.46074  0.03495  0.08370  1.0000
  C   C1223     1.0  0.44575  0.04407  0.09608  1.0000
  H   H2164     1.0  0.52804  0.04565  0.20641  1.0000
  H   H2165     1.0  0.46569  0.05962  0.06776  1.0000
  H   H2166     1.0  0.56060  0.01829  0.06630  1.0000
  H   H2167     1.0  0.58533  0.24444  0.98769  1.0000
  S   S275      1.0  0.51551  0.30343  0.98825  1.0000
  H   H2168     1.0  0.42553  0.23073  0.98869  1.0000
  H   H2169     1.0  0.45679  0.02354  0.08255  1.0000
  H   H2170     1.0  0.47218  0.03017  0.08974  1.0000
  H   H2171     1.0  0.44325  0.03487  0.10889  1.0000
  H   H2172     1.0  0.44897  0.05549  0.09811  1.0000
  H   H2173     1.0  0.43375  0.04843  0.09083  1.0000
  H   H2174     1.0  0.46524  0.04655  0.03221  1.0000
  H   H2175     1.0  0.60628  0.02353  0.15230  1.0000
  H   H2176     1.0  0.48398  0.07498  0.03069  1.0000
  H   H2177     1.0  0.64673  0.00757  0.05412  1.0000
  H   H2178     1.0  0.56792  0.05031  0.17611  1.0000
  S   S276      1.0  0.53708  0.99483  0.14994  1.0000
  H   H2179     1.0  0.49204  0.35802  0.07904  1.0000
  C   C1224     1.0  0.56066  0.13629  0.01774  1.0000
  S   S277      1.0  0.49036  0.05703  0.22862  1.0000
  H   H2180     1.0  0.34644  0.38644  0.07282  1.0000
  Fe  Fe132     1.0  0.61899  0.02754  0.10717  1.0000
  Fe  Fe133     1.0  0.63280  0.04765  0.23465  1.0000
  C   C1225     1.0  0.53014  0.01154  0.20027  1.0000
  H   H2181     1.0  0.44317  0.29117  0.99924  1.0000
  H   H2182     1.0  0.62192  0.32021  0.04252  1.0000
  C   C1226     1.0  0.33343  0.36295  0.06403  1.0000
  C   C1227     1.0  0.46804  0.07866  0.01274  1.0000
  C   C1228     1.0  0.56708  0.01633  0.07717  1.0000
  C   C1229     1.0  0.48191  0.02158  0.05377  1.0000
  H   H2183     1.0  0.53594  0.00177  0.21084  1.0000
  H   H2184     1.0  0.54230  0.30820  0.00841  1.0000
  N   N68       1.0  0.65302  0.31657  0.05450  1.0000
  C   C1230     1.0  0.35601  0.35217  0.00427  1.0000
  C   C1231     1.0  0.33651  0.33387  0.06024  1.0000
  H   H2185     1.0  0.49553  0.01838  0.02722  1.0000
  H   H2186     1.0  0.50659  0.07464  0.19357  1.0000
  C   C1232     1.0  0.61653  0.98597  0.22891  1.0000
  H   H2187     1.0  0.48470  0.34216  0.05242  1.0000
  H   H2188     1.0  0.43918  0.20044  0.00201  1.0000
  C   C1233     1.0  0.58121  0.21844  0.03258  1.0000
  C   C1234     1.0  0.41334  0.38612  0.05920  1.0000
  C   C1235     1.0  0.56784  0.03651  0.21029  1.0000
  H   H2189     1.0  0.54022  0.02383  0.17326  1.0000
  N   N69       1.0  0.55844  0.09212  0.08394  1.0000
  C   C1236     1.0  0.57541  0.09789  0.07744  1.0000
  C   C1237     1.0  0.54339  0.10751  0.08104  1.0000
  C   C1238     1.0  0.55642  0.08473  0.10334  1.0000
  C   C1239     1.0  0.55818  0.07801  0.07565  1.0000
  C   C1240     1.0  0.56107  0.08246  0.05556  1.0000
  C   C1241     1.0  0.59195  0.08362  0.08046  1.0000
  C   C1242     1.0  0.53848  0.08063  0.11317  1.0000
  C   C1243     1.0  0.54648  0.12234  0.06472  1.0000
  C   C1244     1.0  0.52939  0.13488  0.06159  1.0000
  C   C1245     1.0  0.56250  0.06647  0.04886  1.0000
  C   C1246     1.0  0.60826  0.09087  0.07243  1.0000
  C   C1247     1.0  0.53795  0.07338  0.13257  1.0000
  H   H2190     1.0  0.57495  0.10844  0.08372  1.0000
  H   H2191     1.0  0.57757  0.10380  0.06328  1.0000
  H   H2192     1.0  0.53188  0.10299  0.08082  1.0000
  H   H2193     1.0  0.53919  0.11415  0.09211  1.0000
  H   H2194     1.0  0.55895  0.09383  0.10969  1.0000
  H   H2195     1.0  0.56615  0.07233  0.10608  1.0000
  H   H2196     1.0  0.56779  0.06591  0.07972  1.0000
  H   H2197     1.0  0.54547  0.07422  0.08044  1.0000
  H   H2198     1.0  0.57308  0.08726  0.04922  1.0000
  H   H2199     1.0  0.54982  0.09238  0.05135  1.0000
  H   H2200     1.0  0.59177  0.07847  0.09456  1.0000
  H   H2201     1.0  0.59326  0.07270  0.07444  1.0000
  H   H2202     1.0  0.53570  0.07074  0.10825  1.0000
  H   H2203     1.0  0.52776  0.09234  0.11182  1.0000
  H   H2204     1.0  0.55486  0.12990  0.06653  1.0000
  H   H2205     1.0  0.55295  0.11734  0.05289  1.0000
  H   H2206     1.0  0.53194  0.14552  0.05003  1.0000
  H   H2207     1.0  0.52087  0.12793  0.05907  1.0000
  H   H2208     1.0  0.52262  0.14069  0.07301  1.0000
  H   H2209     1.0  0.55061  0.06127  0.05460  1.0000
  H   H2210     1.0  0.56403  0.07015  0.03447  1.0000
  H   H2211     1.0  0.57395  0.05619  0.05217  1.0000
  H   H2212     1.0  0.60998  0.09500  0.05803  1.0000
  H   H2213     1.0  0.60758  0.10212  0.07773  1.0000
  H   H2214     1.0  0.61975  0.08062  0.07562  1.0000
  H   H2215     1.0  0.54800  0.06117  0.13472  1.0000
  H   H2216     1.0  0.54000  0.08301  0.13852  1.0000
  H   H2217     1.0  0.52502  0.07045  0.13902  1.0000
  H   H2218     1.0  0.38726  0.45987  0.99553  1.0000
  S   S278      1.0  0.63018  0.04302  0.11795  1.0000
  H   H2219     1.0  0.58702  0.01846  0.18098  1.0000
  H   H2220     1.0  0.58136  0.01303  0.07243  1.0000
  H   H2221     1.0  0.43986  0.36350  0.07441  1.0000
  C   C1248     1.0  0.49841  0.99339  0.04461  1.0000
  H   H2222     1.0  0.53048  0.05396  0.16675  1.0000
  C   C1249     1.0  0.55962  0.03224  0.11634  1.0000
  H   H2223     1.0  0.59801  0.34609  0.04092  1.0000
  C   C1250     1.0  0.54573  0.31781  0.01267  1.0000
  H   H2224     1.0  0.45318  0.38206  0.02573  1.0000
  C   C1251     1.0  0.52350  0.05451  0.18023  1.0000
  H   H2225     1.0  0.57972  0.03826  0.20016  1.0000
  H   H2226     1.0  0.58932  0.20032  0.07454  1.0000
  S   S279      1.0  0.51045  0.33072  0.02338  1.0000
  H   H2227     1.0  0.58398  0.11703  0.02188  1.0000
  C   C1252     1.0  0.47251  0.07046  0.03064  1.0000
  H   H2228     1.0  0.56722  0.01218  0.20524  1.0000
  C   C1253     1.0  0.45792  0.30139  0.07001  1.0000
  H   H2229     1.0  0.55330  0.27904  0.04601  1.0000
  H   H2230     1.0  0.61873  0.21177  0.02517  1.0000
  H   H2231     1.0  0.36820  0.35554  0.00412  1.0000
  C   C1254     1.0  0.44301  0.36591  0.05996  1.0000
  C   C1255     1.0  0.56331  0.31774  0.01088  1.0000
  C   C1256     1.0  0.62944  0.05037  0.17753  1.0000
  H   H2232     1.0  0.63032  0.04322  0.15386  1.0000
  C   C1257     1.0  0.63323  0.31760  0.10355  1.0000
  H   H2233     1.0  0.44781  0.37814  0.05548  1.0000
  H   H2234     1.0  0.56859  0.22315  0.05900  1.0000
  H   H2235     1.0  0.50584  0.99113  0.09487  1.0000
  H   H2236     1.0  0.58059  0.03661  0.23022  1.0000
  H   H2237     1.0  0.46245  0.35203  0.08689  1.0000
  H   H2238     1.0  0.61100  0.35871  0.04431  1.0000
  H   H2239     1.0  0.44965  0.00496  0.20019  1.0000
  C   C1258     1.0  0.34177  0.35785  0.03455  1.0000
  H   H2240     1.0  0.47897  0.07436  0.00232  1.0000
  H   H2241     1.0  0.47220  0.34342  0.03042  1.0000
  H   H2242     1.0  0.57398  0.98808  0.14729  1.0000
  C   C1259     1.0  0.65214  0.09282  0.02601  1.0000
  H   H2243     1.0  0.61556  0.32818  0.06224  1.0000
  H   H2244     1.0  0.56885  0.99989  0.10243  1.0000
  H   H2245     1.0  0.32957  0.46048  0.01773  1.0000
  H   H2246     1.0  0.64073  0.07159  0.02809  1.0000
  C   C1260     1.0  0.64620  0.31072  0.07378  1.0000
  H   H2247     1.0  0.65020  0.00055  0.03427  1.0000
  C   C1261     1.0  0.45657  0.99169  0.19834  1.0000
  H   H2248     1.0  0.35414  0.36006  0.03569  1.0000
  H   H2249     1.0  0.34688  0.35815  0.06642  1.0000
  C   C1262     1.0  0.43294  0.21028  0.01005  1.0000
  H   H2250     1.0  0.47693  0.31686  0.05970  1.0000
  S   S280      1.0  0.62272  0.24585  0.02274  1.0000
  C   C1263     1.0  0.56133  0.00193  0.09241  1.0000
  C   C1264     1.0  0.42696  0.99914  0.13964  1.0000
  H   H2251     1.0  0.55612  0.17982  0.01100  1.0000
  H   H2252     1.0  0.50135  0.33618  0.07569  1.0000
  H   H2253     1.0  0.46975  0.01931  0.05219  1.0000
  H   H2254     1.0  0.59807  0.04346  0.15982  1.0000
  H   H2255     1.0  0.50941  0.98743  0.03521  1.0000
  C   C1265     1.0  0.46477  0.37134  0.02383  1.0000
  Fe  Fe134     1.0  0.64611  0.13151  0.99617  1.0000
  H   H2256     1.0  0.41943  0.20894  0.01613  1.0000
  H   H2257     1.0  0.47623  0.36351  0.05545  1.0000
  H   H2258     1.0  0.52286  0.05072  0.06341  1.0000
  C   C1266     1.0  0.62215  0.33077  0.04831  1.0000
  H   H2259     1.0  0.45063  0.25989  0.99892  1.0000
  N   N70       1.0  0.56660  0.22859  0.02334  1.0000
  C   C1267     1.0  0.57115  0.22499  0.00533  1.0000
  C   C1268     1.0  0.54946  0.22380  0.03266  1.0000
  C   C1269     1.0  0.54817  0.20540  0.03261  1.0000
  H   H2260     1.0  0.53455  0.21840  0.99257  1.0000
  S   S281      1.0  0.48634  0.00286  0.15345  1.0000
  C   C1270     1.0  0.53214  0.20021  0.04544  1.0000
  H   H2261     1.0  0.57300  0.21089  0.00626  1.0000
  C   C1271     1.0  0.53609  0.04822  0.19298  1.0000
  H   H2262     1.0  0.53879  0.23311  0.02671  1.0000
  H   H2263     1.0  0.59115  0.22627  0.02942  1.0000
  H   H2264     1.0  0.33101  0.40578  0.06521  1.0000
  H   H2265     1.0  0.55987  0.19544  0.03570  1.0000
  H   H2266     1.0  0.54692  0.20534  0.01951  1.0000
  H   H2267     1.0  0.56699  0.27941  0.02465  1.0000
  C   C1272     1.0  0.48121  0.05168  0.21432  1.0000
  C   C1273     1.0  0.54454  0.01899  0.18589  1.0000
  Fe  Fe135     1.0  0.48297  0.01119  0.12579  1.0000
  H   H2268     1.0  0.32857  0.47859  0.02636  1.0000
  H   H2269     1.0  0.53284  0.19947  0.05898  1.0000
  H   H2270     1.0  0.53139  0.18724  0.04451  1.0000
  H   H2271     1.0  0.42379  0.29543  0.99103  1.0000
  H   H2272     1.0  0.52968  0.99156  0.18784  1.0000
  S   S282      1.0  0.59168  0.03845  0.10403  1.0000
  H   H2273     1.0  0.33979  0.38645  0.04484  1.0000
  H   H2274     1.0  0.46557  0.09303  0.01047  1.0000
  C   C1274     1.0  0.64696  0.07718  0.03452  1.0000
  C   C1275     1.0  0.64765  0.01627  0.18771  1.0000
  H   H2275     1.0  0.44011  0.20761  0.02059  1.0000
  C   C1276     1.0  0.51332  0.07319  0.18016  1.0000
  N   N71       1.0  0.45688  0.35105  0.05404  1.0000
  H   H2276     1.0  0.50974  0.01472  0.04186  1.0000
  Fe  Fe136     1.0  0.38850  0.40398  0.99382  1.0000
  H   H2277     1.0  0.46679  0.28961  0.06593  1.0000
  H   H2278     1.0  0.65527  0.29900  0.07947  1.0000
  H   H2279     1.0  0.53419  0.02749  0.12517  1.0000
  H   H2280     1.0  0.32864  0.33293  0.08846  1.0000
  H   H2281     1.0  0.35985  0.46615  0.98707  1.0000
  C   C1277     1.0  0.64724  0.10121  0.16825  1.0000
  S   S283      1.0  0.60840  0.28995  0.99309  1.0000
  S   S284      1.0  0.37307  0.42940  0.00004  1.0000
  H   H2282     1.0  0.41352  0.00705  0.14004  1.0000
  H   H2283     1.0  0.45619  0.07519  0.01203  1.0000
  N   N72       1.0  0.47999  0.04075  0.05220  1.0000
  C   C1278     1.0  0.42509  0.05413  0.22213  1.0000
  C   C1279     1.0  0.61148  0.34752  0.03902  1.0000
  H   H2284     1.0  0.51470  0.01208  0.18219  1.0000
  Fe  Fe137     1.0  0.65091  0.29858  0.99844  1.0000
  H   H2285     1.0  0.61250  0.99512  0.21757  1.0000
  S   S285      1.0  0.65110  0.27690  0.98663  1.0000
  C   C1280     1.0  0.44521  0.26240  0.98710  1.0000
  H   H2286     1.0  0.47180  0.33020  0.08388  1.0000
  H   H2287     1.0  0.54136  0.05946  0.19248  1.0000
  C   C1281     1.0  0.57788  0.13073  0.01966  1.0000
  C   C1282     1.0  0.47639  0.05026  0.03437  1.0000
  H   H2288     1.0  0.43569  0.00799  0.13760  1.0000
  Fe  Fe138     1.0  0.61883  0.16448  0.99871  1.0000
  H   H2289     1.0  0.35055  0.33087  0.06059  1.0000
  Fe  Fe139     1.0  0.64478  0.01706  0.13024  1.0000
  H   H2290     1.0  0.64269  0.11417  0.16005  1.0000
  C   C1283     1.0  0.58220  0.01026  0.12873  1.0000
  H   H2291     1.0  0.63393  0.30642  0.07612  1.0000
  H   H2292     1.0  0.44461  0.30159  0.06921  1.0000
  H   H2293     1.0  0.34709  0.36398  0.99845  1.0000
  Fe  Fe140     1.0  0.50192  0.31306  0.01248  1.0000
  H   H2294     1.0  0.55535  0.00761  0.18389  1.0000
  H   H2295     1.0  0.52728  0.03082  0.07930  1.0000
  C   C1284     1.0  0.54743  0.02268  0.12653  1.0000
  C   C1285     1.0  0.55821  0.02503  0.20597  1.0000
  H   H2296     1.0  0.54413  0.27980  0.02814  1.0000
  C   C1286     1.0  0.63179  0.21251  0.01850  1.0000
  H   H2297     1.0  0.54853  0.25042  0.04717  1.0000
  C   C1287     1.0  0.57958  0.16071  0.01482  1.0000
  H   H2298     1.0  0.55458  0.98721  0.07811  1.0000
  H   H2299     1.0  0.49112  0.02404  0.22145  1.0000
  H   H2300     1.0  0.62615  0.08249  0.10475  1.0000
  H   H2301     1.0  0.48351  0.01391  0.06699  1.0000
  H   H2302     1.0  0.65633  0.33649  0.99978  1.0000
  C   C1288     1.0  0.59443  0.03367  0.15538  1.0000
  H   H2303     1.0  0.50658  0.04304  0.04174  1.0000
  H   H2304     1.0  0.63436  0.10210  0.12728  1.0000
  H   H2305     1.0  0.55728  0.28563  0.99078  1.0000
  H   H2306     1.0  0.46144  0.07571  0.04041  1.0000
  C   C1289     1.0  0.56994  0.00054  0.13889  1.0000
  H   H2307     1.0  0.44688  0.99672  0.17529  1.0000
  C   C1290     1.0  0.63863  0.09286  0.11856  1.0000
  H   H2308     1.0  0.41885  0.35870  0.06116  1.0000
  H   H2309     1.0  0.57805  0.01557  0.16451  1.0000
  S   S286      1.0  0.63006  0.05987  0.20678  1.0000
  C   C1291     1.0  0.58096  0.02529  0.16962  1.0000
  H   H2310     1.0  0.50061  0.98703  0.05796  1.0000
  H   H2311     1.0  0.45237  0.05067  0.06064  1.0000
  H   H2312     1.0  0.42730  0.37114  0.04018  1.0000
  C   C1292     1.0  0.38828  0.46074  0.02782  1.0000
  H   H2313     1.0  0.52043  0.02169  0.20627  1.0000
  C   C1293     1.0  0.44797  0.98612  0.18714  1.0000
  H   H2314     1.0  0.54593  0.22510  0.04634  1.0000
  C   C1294     1.0  0.57654  0.21241  0.05271  1.0000
  C   C1295     1.0  0.58742  0.14298  0.01800  1.0000
  S   S287      1.0  0.64956  0.10232  0.00446  1.0000
  H   H2315     1.0  0.41879  0.39766  0.05181  1.0000
  H   H2316     1.0  0.62016  0.31645  0.10334  1.0000
  H   H2317     1.0  0.41901  0.45364  0.98988  1.0000
  H   H2318     1.0  0.48221  0.36145  0.00172  1.0000
  C   C1296     1.0  0.56418  0.03905  0.17432  1.0000
  H   H2319     1.0  0.53924  0.15827  0.01431  1.0000
  C   C1297     1.0  0.43293  0.22865  0.99884  1.0000
  C   C1298     1.0  0.64334  0.02194  0.17130  1.0000
  H   H2320     1.0  0.60088  0.13871  0.01900  1.0000
  C   C1299     1.0  0.49020  0.34448  0.08291  1.0000
  H   H2321     1.0  0.56024  0.23157  0.99846  1.0000
  H   H2322     1.0  0.61410  0.08457  0.12646  1.0000
  C   C1300     1.0  0.58791  0.23022  0.99315  1.0000
  H   H2323     1.0  0.42425  0.99271  0.16731  1.0000
  H   H2324     1.0  0.40624  0.04873  0.21130  1.0000
  H   H2325     1.0  0.43342  0.35811  0.99447  1.0000
  H   H2326     1.0  0.63988  0.34392  0.05137  1.0000
  C   C1301     1.0  0.47319  0.34388  0.07917  1.0000
  H   H2327     1.0  0.40939  0.43781  0.98765  1.0000
  H   H2328     1.0  0.34736  0.48134  0.04386  1.0000
  C   C1302     1.0  0.63430  0.04487  0.19371  1.0000
  C   C1303     1.0  0.63753  0.22769  0.01588  1.0000
  H   H2329     1.0  0.55938  0.04951  0.21121  1.0000
  H   H2330     1.0  0.64049  0.30478  0.10980  1.0000
  H   H2331     1.0  0.51009  0.99790  0.20311  1.0000
  H   H2332     1.0  0.48998  0.33957  0.09705  1.0000
  C   C1304     1.0  0.63394  0.03891  0.16635  1.0000
  C   C1305     1.0  0.34753  0.34441  0.02288  1.0000
  H   H2333     1.0  0.63647  0.08760  0.15667  1.0000
  C   C1306     1.0  0.47325  0.35039  0.05943  1.0000
  H   H2334     1.0  0.47033  0.99187  0.19210  1.0000
  H   H2335     1.0  0.40296  0.07139  0.21168  1.0000
  C   C1307     1.0  0.57697  0.02610  0.11740  1.0000
  H   H2336     1.0  0.45976  0.36942  0.99977  1.0000
  H   H2337     1.0  0.65479  0.26645  0.05106  1.0000
  H   H2338     1.0  0.41109  0.38529  0.07339  1.0000
  H   H2339     1.0  0.54770  0.02217  0.21753  1.0000
  S   S288      1.0  0.63170  0.00147  0.12153  1.0000
  S   S289      1.0  0.47651  0.32465  0.00403  1.0000
  C   C1308     1.0  0.46379  0.31761  0.05810  1.0000
  H   H2340     1.0  0.65168  0.06633  0.11823  1.0000
  C   C1309     1.0  0.48360  0.03442  0.21331  1.0000
  C   C1310     1.0  0.64981  0.06872  0.05130  1.0000
  H   H2341     1.0  0.52213  0.08234  0.17458  1.0000
  H   H2342     1.0  0.40065  0.38789  0.05589  1.0000
  H   H2343     1.0  0.45812  0.22940  0.00152  1.0000
  C   C1311     1.0  0.50393  0.03469  0.06980  1.0000
  C   C1312     1.0  0.64284  0.19820  0.01228  1.0000
  C   C1313     1.0  0.62244  0.09067  0.11446  1.0000
  H   H2344     1.0  0.48762  0.04650  0.02394  1.0000
  H   H2345     1.0  0.55561  0.04422  0.10729  1.0000
  H   H2346     1.0  0.36452  0.45215  0.03993  1.0000
  H   H2347     1.0  0.56361  0.02874  0.08148  1.0000
  C   C1314     1.0  0.36084  0.47974  0.03739  1.0000
  H   H2348     1.0  0.64196  0.29723  0.05071  1.0000
  S   S290      1.0  0.47070  0.99593  0.11565  1.0000
  C   C1315     1.0  0.65679  0.00253  0.04348  1.0000
  Fe  Fe141     1.0  0.65148  0.04119  0.09426  1.0000
  C   C1316     1.0  0.44171  0.42402  0.99688  1.0000
  C   C1317     1.0  0.52245  0.03676  0.06708  1.0000
  H   H2349     1.0  0.45000  0.35143  0.03014  1.0000
  H   H2350     1.0  0.45815  0.30055  0.08372  1.0000
  H   H2351     1.0  0.46481  0.31709  0.04445  1.0000
  H   H2352     1.0  0.34696  0.30392  0.08470  1.0000
  C   C1318     1.0  0.56214  0.16616  0.01376  1.0000
  H   H2353     1.0  0.61709  0.35021  0.02480  1.0000
  H   H2354     1.0  0.54741  0.00668  0.09786  1.0000
  C   C1319     1.0  0.33289  0.30730  0.08469  1.0000
  H   H2355     1.0  0.47551  0.37403  0.02765  1.0000
  H   H2356     1.0  0.59868  0.22670  0.00010  1.0000
  C   C1320     1.0  0.49627  0.04481  0.05357  1.0000
  H   H2357     1.0  0.43897  0.33487  0.05755  1.0000
  C   C1321     1.0  0.49722  0.01294  0.04083  1.0000
  H   H2358     1.0  0.43109  0.26305  0.99191  1.0000
  S   S291      1.0  0.32519  0.42337  0.02294  1.0000
  Fe  Fe142     1.0  0.65631  0.16531  0.99256  1.0000
  H   H2359     1.0  0.35731  0.33310  0.02813  1.0000
  C   C1322     1.0  0.64309  0.32393  0.08509  1.0000
  C   C1323     1.0  0.65420  0.30196  0.04612  1.0000
  S   S292      1.0  0.51886  0.16036  0.99075  1.0000
  C   C1324     1.0  0.64308  0.02768  0.19893  1.0000
  H   H2360     1.0  0.63808  0.18669  0.01416  1.0000
  C   C1325     1.0  0.43799  0.29454  0.98724  1.0000
  C   C1326     1.0  0.65479  0.22816  0.00768  1.0000
  H   H2361     1.0  0.35925  0.34251  0.99613  1.0000
  H   H2362     1.0  0.59966  0.11771  0.99023  1.0000
  H   H2363     1.0  0.65564  0.30676  0.03176  1.0000
  H   H2364     1.0  0.43173  0.06490  0.21947  1.0000
  H   H2365     1.0  0.42037  0.06187  0.19596  1.0000
  C   C1327     1.0  0.39602  0.47511  0.02179  1.0000
  H   H2366     1.0  0.63161  0.32706  0.11154  1.0000
  H   H2367     1.0  0.48630  0.99082  0.04335  1.0000
  C   C1328     1.0  0.64095  0.33246  0.04627  1.0000
  C   C1329     1.0  0.57348  0.02826  0.22766  1.0000
  H   H2368     1.0  0.43496  0.04251  0.21892  1.0000
  Fe  Fe143     1.0  0.65318  0.00278  0.09786  1.0000
  H   H2369     1.0  0.65573  0.32532  0.08627  1.0000
  S   S293      1.0  0.48128  0.28769  0.99345  1.0000
  H   H2370     1.0  0.36039  0.48346  0.99606  1.0000
  H   H2371     1.0  0.65474  0.00308  0.19171  1.0000
  H   H2372     1.0  0.43167  0.41733  0.00604  1.0000
  C   C1330     1.0  0.64911  0.07513  0.12719  1.0000
  H   H2373     1.0  0.33054  0.30045  0.07595  1.0000
  H   H2374     1.0  0.33785  0.45000  0.99030  1.0000
  N   N73       1.0  0.33065  0.35298  0.05247  1.0000
  H   H2375     1.0  0.64566  0.05680  0.05767  1.0000
  H   H2376     1.0  0.64646  0.09877  0.10610  1.0000
  C   C1331     1.0  0.32656  0.32696  0.07885  1.0000
  H   H2377     1.0  0.33518  0.37042  0.02717  1.0000
  S   S294      1.0  0.65060  0.00777  0.15702  1.0000
  H   H2378     1.0  0.45700  0.12176  0.99130  1.0000
  H   H2379     1.0  0.33661  0.33951  0.02223  1.0000
  H   H2380     1.0  0.44314  0.43419  0.00254  1.0000
  H   H2381     1.0  0.64646  0.33623  0.03209  1.0000
  H   H2382     1.0  0.43431  0.13097  0.99847  1.0000
  H   H2383     1.0  0.43081  0.99273  0.12848  1.0000
  H   H2384     1.0  0.58016  0.11246  0.98926  1.0000
  C   C1332     1.0  0.64935  0.08681  0.15898  1.0000
  H   H2385     1.0  0.65320  0.07429  0.16811  1.0000
  H   H2386     1.0  0.50264  0.99178  0.23380  1.0000
  C   C1333     1.0  0.33051  0.38298  0.05724  1.0000
  C   C1334     1.0  0.33307  0.39149  0.07041  1.0000
  H   H2387     1.0  0.45971  0.00591  0.23104  1.0000
  Fe  Fe144     1.0  0.51100  0.99811  0.26472  1.0000
  Fe  Fe145     1.0  0.65279  0.04114  0.26339  1.0000
  N   N74       1.0  0.48553  0.02908  0.34906  1.0000
  H   H2388     1.0  0.50238  0.00680  0.36234  1.0000
  H   H2389     1.0  0.53554  0.04269  0.32419  1.0000
  H   H2390     1.0  0.46192  0.05560  0.32975  1.0000
  H   H2391     1.0  0.44897  0.02939  0.35985  1.0000
  H   H2392     1.0  0.43273  0.05998  0.32804  1.0000
  Fe  Fe146     1.0  0.49607  0.03589  0.25190  1.0000
  H   H2393     1.0  0.50377  0.03037  0.37459  1.0000
  S   S295      1.0  0.48587  0.04088  0.27882  1.0000
  H   H2394     1.0  0.38774  0.00436  0.30272  1.0000
  C   C1335     1.0  0.40741  0.00307  0.47732  1.0000
  S   S296      1.0  0.35070  0.00943  0.39795  1.0000
  S   S297      1.0  0.36395  0.04434  0.39647  1.0000
  C   C1336     1.0  0.35993  0.01429  0.46829  1.0000
  C   C1337     1.0  0.57074  0.05050  0.29244  1.0000
  S   S298      1.0  0.40573  0.05115  0.35776  1.0000
  C   C1338     1.0  0.56745  0.04460  0.27941  1.0000
  C   C1339     1.0  0.43913  0.02187  0.31596  1.0000
  S   S299      1.0  0.39211  0.00913  0.38783  1.0000
  C   C1340     1.0  0.39097  0.99661  0.31537  1.0000
  H   H2395     1.0  0.44389  0.06191  0.24178  1.0000
  H   H2396     1.0  0.45987  0.99510  0.25355  1.0000
  H   H2397     1.0  0.56930  0.00150  0.31188  1.0000
  H   H2398     1.0  0.45141  0.04362  0.30565  1.0000
  H   H2399     1.0  0.45106  0.05130  0.35742  1.0000
  H   H2400     1.0  0.44358  0.02476  0.39190  1.0000
  C   C1341     1.0  0.37628  0.03163  0.44385  1.0000
  C   C1342     1.0  0.36793  0.01778  0.45063  1.0000
  C   C1343     1.0  0.37751  0.04126  0.45498  1.0000
  H   H2401     1.0  0.38240  0.03445  0.43018  1.0000
  C   C1344     1.0  0.41594  0.02401  0.34153  1.0000
  S   S300      1.0  0.36677  0.03270  0.36010  1.0000
  Fe  Fe147     1.0  0.61334  0.04776  0.27174  1.0000
  Fe  Fe148     1.0  0.37281  0.00528  0.37536  1.0000
  Fe  Fe149     1.0  0.34646  0.03740  0.38396  1.0000
  H   H2402     1.0  0.65323  0.05482  0.29773  1.0000
  Fe  Fe150     1.0  0.38484  0.03695  0.37384  1.0000
  C   C1345     1.0  0.44226  0.03809  0.38352  1.0000
  H   H2403     1.0  0.41481  0.10354  0.47443  1.0000
  H   H2404     1.0  0.41032  0.13485  0.47407  1.0000
  H   H2405     1.0  0.54832  0.98776  0.26846  1.0000
  C   C1346     1.0  0.54106  0.03727  0.29878  1.0000
  S   S301      1.0  0.36816  0.00394  0.43766  1.0000
  S   S302      1.0  0.61249  0.03375  0.25241  1.0000
  C   C1347     1.0  0.42632  0.01489  0.32894  1.0000
  H   H2406     1.0  0.57620  0.04541  0.26685  1.0000
  Fe  Fe151     1.0  0.36946  0.01594  0.40908  1.0000
  H   H2407     1.0  0.46991  0.07799  0.30375  1.0000
  C   C1348     1.0  0.48732  0.04671  0.33729  1.0000
  C   C1349     1.0  0.42069  0.01053  0.46205  1.0000
  S   S303      1.0  0.63209  0.06344  0.25337  1.0000
  H   H2408     1.0  0.49191  0.07233  0.30665  1.0000
  C   C1350     1.0  0.55907  0.04987  0.30849  1.0000
  H   H2409     1.0  0.54997  0.03354  0.27251  1.0000
  C   C1351     1.0  0.51146  0.02908  0.36140  1.0000
  C   C1352     1.0  0.45350  0.03781  0.36528  1.0000
  H   H2410     1.0  0.45560  0.07237  0.27784  1.0000
  C   C1353     1.0  0.43578  0.01364  0.24926  1.0000
  H   H2411     1.0  0.34527  0.06829  0.42755  1.0000
  C   C1354     1.0  0.44160  0.03810  0.31567  1.0000
  H   H2412     1.0  0.48994  0.01734  0.32728  1.0000
  C   C1355     1.0  0.43111  0.04730  0.32835  1.0000
  C   C1356     1.0  0.54441  0.04314  0.31170  1.0000
  H   H2413     1.0  0.40612  0.01840  0.35142  1.0000
  H   H2414     1.0  0.56200  0.02698  0.23847  1.0000
  S   S304      1.0  0.48535  0.01232  0.25818  1.0000
  H   H2415     1.0  0.51244  0.04225  0.35338  1.0000
  H   H2416     1.0  0.34402  0.99418  0.36878  1.0000
  H   H2417     1.0  0.57427  0.00168  0.28220  1.0000
  H   H2418     1.0  0.54783  0.99331  0.29628  1.0000
  N   N75       1.0  0.42618  0.04484  0.25483  1.0000
  H   H2419     1.0  0.42464  0.00217  0.32964  1.0000
  C   C1357     1.0  0.43376  0.05986  0.25393  1.0000
  C   C1358     1.0  0.41511  0.03942  0.27256  1.0000
  C   C1359     1.0  0.41513  0.05048  0.24139  1.0000
  S   S305      1.0  0.45149  0.00999  0.30023  1.0000
  C   C1360     1.0  0.47076  0.99114  0.34121  1.0000
  C   C1361     1.0  0.39999  0.05389  0.27906  1.0000
  C   C1362     1.0  0.45183  0.00012  0.24355  1.0000
  C   C1363     1.0  0.47937  0.99949  0.35002  1.0000
  C   C1364     1.0  0.48047  0.01833  0.33984  1.0000
  C   C1365     1.0  0.52980  0.01892  0.36329  1.0000
  C   C1366     1.0  0.39174  0.04776  0.29821  1.0000
  H   H2420     1.0  0.44792  0.02468  0.26225  1.0000
  H   H2421     1.0  0.40735  0.04080  0.24315  1.0000
  H   H2422     1.0  0.33231  0.06757  0.41330  1.0000
  H   H2423     1.0  0.42378  0.07227  0.25296  1.0000
  H   H2424     1.0  0.42327  0.03356  0.28252  1.0000
  H   H2425     1.0  0.40908  0.02885  0.27273  1.0000
  H   H2426     1.0  0.43999  0.08592  0.26515  1.0000
  H   H2427     1.0  0.45282  0.04613  0.27031  1.0000
  C   C1367     1.0  0.47575  0.05464  0.32362  1.0000
  H   H2428     1.0  0.44796  0.98905  0.24161  1.0000
  H   H2429     1.0  0.44591  0.04662  0.38963  1.0000
  H   H2430     1.0  0.32925  0.04943  0.45200  1.0000
  H   H2431     1.0  0.38979  0.05742  0.27138  1.0000
  H   H2432     1.0  0.40433  0.06582  0.27791  1.0000
  H   H2433     1.0  0.41012  0.13133  0.45340  1.0000
  C   C1368     1.0  0.37012  0.03728  0.47283  1.0000
  H   H2434     1.0  0.42843  0.04325  0.38266  1.0000
  S   S306      1.0  0.50201  0.99939  0.29271  1.0000
  H   H2435     1.0  0.59442  0.00992  0.31410  1.0000
  H   H2436     1.0  0.51237  0.01659  0.34104  1.0000
  H   H2437     1.0  0.43280  0.05729  0.28175  1.0000
  H   H2438     1.0  0.50078  0.04616  0.32946  1.0000
  C   C1369     1.0  0.41835  0.04017  0.34139  1.0000
  H   H2439     1.0  0.41825  0.99535  0.30720  1.0000
  C   C1370     1.0  0.40964  0.98602  0.31278  1.0000
  H   H2440     1.0  0.40140  0.04446  0.30652  1.0000
  H   H2441     1.0  0.38092  0.05827  0.30258  1.0000
  H   H2442     1.0  0.38647  0.03620  0.30009  1.0000
  H   H2443     1.0  0.38470  0.05141  0.44986  1.0000
  S   S307      1.0  0.52255  0.02869  0.30400  1.0000
  S   S308      1.0  0.52272  0.02147  0.25635  1.0000
  C   C1371     1.0  0.45010  0.07366  0.26646  1.0000
  H   H2444     1.0  0.47608  0.04039  0.37167  1.0000
  S   S309      1.0  0.63395  0.02690  0.28340  1.0000
  H   H2445     1.0  0.56147  0.05451  0.31853  1.0000
  C   C1372     1.0  0.47818  0.07282  0.31358  1.0000
  H   H2446     1.0  0.47930  0.04649  0.31393  1.0000
  Fe  Fe152     1.0  0.47725  0.01593  0.28542  1.0000
  H   H2447     1.0  0.32888  0.01477  0.45850  1.0000
  C   C1373     1.0  0.55254  0.03802  0.28256  1.0000
  H   H2448     1.0  0.47432  0.01867  0.37594  1.0000
  H   H2449     1.0  0.35338  0.00366  0.47355  1.0000
  H   H2450     1.0  0.52477  0.99429  0.32351  1.0000
  H   H2451     1.0  0.46780  0.02477  0.33613  1.0000
  H   H2452     1.0  0.56518  0.99965  0.26068  1.0000
  S   S310      1.0  0.58906  0.05892  0.28933  1.0000
  H   H2453     1.0  0.62464  0.00461  0.23700  1.0000
  H   H2454     1.0  0.39435  0.10796  0.46811  1.0000
  C   C1374     1.0  0.47293  0.03114  0.36602  1.0000
  H   H2455     1.0  0.42835  0.00733  0.26179  1.0000
  Fe  Fe153     1.0  0.63477  0.01426  0.26230  1.0000
  H   H2456     1.0  0.43350  0.00735  0.46562  1.0000
  Fe  Fe154     1.0  0.51146  0.02410  0.28400  1.0000
  C   C1375     1.0  0.50308  0.01956  0.35313  1.0000
  C   C1376     1.0  0.44234  0.05802  0.26919  1.0000
  H   H2457     1.0  0.47439  0.08179  0.32255  1.0000
  H   H2458     1.0  0.48519  0.05649  0.34511  1.0000
  C   C1377     1.0  0.58214  0.99387  0.30642  1.0000
  H   H2459     1.0  0.59305  0.01638  0.29153  1.0000
  C   C1378     1.0  0.58112  0.98937  0.28967  1.0000
  C   C1379     1.0  0.44091  0.02959  0.25138  1.0000
  H   H2460     1.0  0.42787  0.01727  0.23926  1.0000
  H   H2461     1.0  0.53816  0.01750  0.35036  1.0000
  H   H2462     1.0  0.53560  0.02600  0.36911  1.0000
  C   C1380     1.0  0.62341  0.99133  0.23991  1.0000
  H   H2463     1.0  0.38930  0.00563  0.32387  1.0000
  H   H2464     1.0  0.46065  0.07439  0.25460  1.0000
  H   H2465     1.0  0.41626  0.02491  0.45853  1.0000
  H   H2466     1.0  0.35972  0.09094  0.46981  1.0000
  H   H2467     1.0  0.42200  0.00536  0.45050  1.0000
  H   H2468     1.0  0.60872  0.99726  0.29894  1.0000
  C   C1381     1.0  0.59537  0.00504  0.30247  1.0000
  H   H2469     1.0  0.40531  0.06265  0.24325  1.0000
  H   H2470     1.0  0.38182  0.98788  0.32190  1.0000
  H   H2471     1.0  0.34056  0.03900  0.43441  1.0000
  S   S311      1.0  0.65519  0.02675  0.24289  1.0000
  H   H2472     1.0  0.65739  0.10104  0.27506  1.0000
  C   C1382     1.0  0.33244  0.06674  0.42705  1.0000
  C   C1383     1.0  0.32932  0.04924  0.43855  1.0000
  H   H2473     1.0  0.65667  0.00292  0.37727  1.0000
  H   H2474     1.0  0.47172  0.99915  0.36350  1.0000
  H   H2475     1.0  0.32936  0.01479  0.43683  1.0000
  C   C1384     1.0  0.36072  0.02425  0.47929  1.0000
  H   H2476     1.0  0.45692  0.99786  0.34194  1.0000
  H   H2477     1.0  0.45082  0.03368  0.23968  1.0000
  H   H2478     1.0  0.49256  0.99126  0.35054  1.0000
  H   H2479     1.0  0.32764  0.02811  0.36388  1.0000
  H   H2480     1.0  0.52953  0.00581  0.37189  1.0000
  H   H2481     1.0  0.39501  0.00710  0.47298  1.0000
  H   H2482     1.0  0.47736  0.99177  0.32735  1.0000
  H   H2483     1.0  0.39000  0.13929  0.46729  1.0000
  C   C1385     1.0  0.40303  0.13047  0.46716  1.0000
  H   H2484     1.0  0.55576  0.99273  0.23726  1.0000
  C   C1386     1.0  0.40145  0.11171  0.47567  1.0000
  C   C1387     1.0  0.56229  0.98683  0.26254  1.0000
  H   H2485     1.0  0.33896  0.10216  0.48021  1.0000
  C   C1388     1.0  0.35117  0.09268  0.48258  1.0000
  H   H2486     1.0  0.38518  0.08386  0.48295  1.0000
  H   H2487     1.0  0.65730  0.05760  0.32568  1.0000
  H   H2488     1.0  0.59442  0.98692  0.28143  1.0000
  Fe  Fe155     1.0  0.49474  0.03084  0.60821  1.0000
  S   S312      1.0  0.47132  0.05249  0.60422  1.0000
  S   S313      1.0  0.52239  0.02962  0.59351  1.0000
  Fe  Fe156     1.0  0.47300  0.00609  0.63378  1.0000
  S   S314      1.0  0.44791  0.02552  0.63194  1.0000
  H   H2489     1.0  0.64603  0.07589  0.61403  1.0000
  Fe  Fe157     1.0  0.45871  0.03194  0.60310  1.0000
  H   H2490     1.0  0.37887  0.99614  0.60148  1.0000
  Fe  Fe158     1.0  0.46261  0.04402  0.63349  1.0000
  S   S315      1.0  0.44979  0.06169  0.65226  1.0000
  S   S316      1.0  0.48283  0.01099  0.60510  1.0000
  S   S317      1.0  0.48718  0.02399  0.63726  1.0000
  Fe  Fe159     1.0  0.59739  0.04760  0.61293  1.0000
  S   S318      1.0  0.59672  0.03789  0.64149  1.0000
  S   S319      1.0  0.57486  0.06728  0.60323  1.0000
  Fe  Fe160     1.0  0.63198  0.02341  0.60246  1.0000
  S   S320      1.0  0.63386  0.01125  0.63023  1.0000
  S   S321      1.0  0.65234  0.01146  0.58169  1.0000
  Fe  Fe161     1.0  0.60572  0.01167  0.63536  1.0000
  Fe  Fe162     1.0  0.33105  0.04058  0.54463  1.0000
  Fe  Fe163     1.0  0.62487  0.03842  0.63428  1.0000
  C   C1389     1.0  0.43324  0.03737  0.72891  1.0000
  S   S322      1.0  0.60448  0.02115  0.60723  1.0000
  S   S323      1.0  0.62497  0.05082  0.60596  1.0000
  H   H2491     1.0  0.38613  0.01521  0.58950  1.0000
  H   H2492     1.0  0.59711  0.00126  0.55063  1.0000
  H   H2493     1.0  0.41373  0.08365  0.51017  1.0000
  S   S324      1.0  0.58852  0.06170  0.72111  1.0000
  S   S325      1.0  0.34580  0.02904  0.56619  1.0000
  C   C1390     1.0  0.39578  0.02311  0.61411  1.0000
  H   H2494     1.0  0.53144  0.07995  0.64641  1.0000
  H   H2495     1.0  0.37521  0.11929  0.52585  1.0000
  H   H2496     1.0  0.48229  0.06873  0.62777  1.0000
  H   H2497     1.0  0.36262  0.03454  0.59611  1.0000
  H   H2498     1.0  0.54646  0.05778  0.67343  1.0000
  H   H2499     1.0  0.39547  0.99389  0.51416  1.0000
  C   C1391     1.0  0.42168  0.03096  0.56666  1.0000
  H   H2500     1.0  0.50837  0.01459  0.57052  1.0000
  C   C1392     1.0  0.43793  0.99706  0.69867  1.0000
  H   H2501     1.0  0.55098  0.01176  0.67654  1.0000
  C   C1393     1.0  0.40526  0.03791  0.56260  1.0000
  H   H2502     1.0  0.41664  0.00079  0.59204  1.0000
  H   H2503     1.0  0.45952  0.00778  0.72017  1.0000
  C   C1394     1.0  0.39015  0.99514  0.63190  1.0000
  H   H2504     1.0  0.63766  0.02858  0.51396  1.0000
  C   C1395     1.0  0.39339  0.03135  0.62972  1.0000
  H   H2505     1.0  0.65218  0.00810  0.52049  1.0000
  H   H2506     1.0  0.50346  0.08388  0.66346  1.0000
  C   C1396     1.0  0.51525  0.99477  0.73182  1.0000
  C   C1397     1.0  0.50241  0.07635  0.63454  1.0000
  H   H2507     1.0  0.42085  0.03555  0.52315  1.0000
  Fe  Fe164     1.0  0.36400  0.04633  0.55047  1.0000
  C   C1398     1.0  0.51329  0.98765  0.56849  1.0000
  H   H2508     1.0  0.57166  0.03484  0.57472  1.0000
  C   C1399     1.0  0.40208  0.04673  0.62429  1.0000
  H   H2509     1.0  0.50235  0.99961  0.72830  1.0000
  H   H2510     1.0  0.37840  0.99361  0.49550  1.0000
  C   C1400     1.0  0.40516  0.07933  0.50457  1.0000
  H   H2511     1.0  0.58215  0.99493  0.72032  1.0000
  H   H2512     1.0  0.49234  0.08499  0.64229  1.0000
  H   H2513     1.0  0.40451  0.99036  0.62967  1.0000
  H   H2514     1.0  0.35821  0.00876  0.62190  1.0000
  H   H2515     1.0  0.54668  0.02996  0.70278  1.0000
  H   H2516     1.0  0.61855  0.99405  0.58752  1.0000
  C   C1401     1.0  0.41785  0.05448  0.58052  1.0000
  H   H2517     1.0  0.42273  0.06093  0.58736  1.0000
  C   C1402     1.0  0.50901  0.05849  0.64625  1.0000
  H   H2518     1.0  0.35778  0.11592  0.51888  1.0000
  H   H2519     1.0  0.56663  0.99178  0.60684  1.0000
  H   H2520     1.0  0.64647  0.99909  0.67628  1.0000
  H   H2521     1.0  0.40985  0.05775  0.73292  1.0000
  Fe  Fe165     1.0  0.36188  0.01099  0.54890  1.0000
  C   C1403     1.0  0.55038  0.05941  0.65916  1.0000
  H   H2522     1.0  0.58177  0.02923  0.70902  1.0000
  H   H2523     1.0  0.39947  0.02163  0.64010  1.0000
  H   H2524     1.0  0.33532  0.04290  0.62848  1.0000
  H   H2525     1.0  0.64619  0.09765  0.50006  1.0000
  H   H2526     1.0  0.40608  0.00904  0.48830  1.0000
  H   H2527     1.0  0.54769  0.99949  0.66320  1.0000
  H   H2528     1.0  0.49441  0.06609  0.67672  1.0000
  C   C1404     1.0  0.62502  0.04863  0.67097  1.0000
  C   C1405     1.0  0.63073  0.04247  0.68672  1.0000
  C   C1406     1.0  0.61959  0.04622  0.70227  1.0000
  C   C1407     1.0  0.60285  0.05649  0.70202  1.0000
  C   C1408     1.0  0.59724  0.06276  0.68622  1.0000
  C   C1409     1.0  0.60825  0.05875  0.67077  1.0000
  C   C1410     1.0  0.43509  0.00420  0.68003  1.0000
  H   H2529     1.0  0.62400  0.04131  0.71440  1.0000
  C   C1411     1.0  0.51501  0.00648  0.56081  1.0000
  H   H2530     1.0  0.60390  0.06379  0.65861  1.0000
  H   H2531     1.0  0.42949  0.01908  0.56289  1.0000
  C   C1412     1.0  0.51375  0.07207  0.68617  1.0000
  H   H2532     1.0  0.34688  0.98886  0.50477  1.0000
  H   H2533     1.0  0.62126  0.00561  0.52849  1.0000
  H   H2534     1.0  0.65432  0.11702  0.49534  1.0000
  H   H2535     1.0  0.34788  0.08007  0.49008  1.0000
  H   H2536     1.0  0.58436  0.07081  0.68594  1.0000
  N   N76       1.0  0.38804  0.09242  0.50456  1.0000
  C   C1413     1.0  0.33951  0.04129  0.61483  1.0000
  H   H2537     1.0  0.49556  0.09662  0.68952  1.0000
  H   H2538     1.0  0.59049  0.98754  0.57080  1.0000
  C   C1414     1.0  0.53457  0.04111  0.59880  1.0000
  C   C1415     1.0  0.54605  0.03232  0.60996  1.0000
  C   C1416     1.0  0.55811  0.04053  0.61174  1.0000
  C   C1417     1.0  0.55876  0.05750  0.60236  1.0000
  C   C1418     1.0  0.54675  0.06656  0.59183  1.0000
  C   C1419     1.0  0.53484  0.05830  0.58987  1.0000
  H   H2539     1.0  0.54602  0.01898  0.61672  1.0000
  H   H2540     1.0  0.56709  0.03370  0.62018  1.0000
  H   H2541     1.0  0.54717  0.07971  0.58458  1.0000
  H   H2542     1.0  0.52623  0.06505  0.58098  1.0000
  C   C1420     1.0  0.45726  0.05445  0.67185  1.0000
  C   C1421     1.0  0.46691  0.03751  0.67633  1.0000
  C   C1422     1.0  0.47537  0.03269  0.69022  1.0000
  C   C1423     1.0  0.47356  0.04454  0.70025  1.0000
  C   C1424     1.0  0.46252  0.06097  0.69691  1.0000
  C   C1425     1.0  0.45450  0.06598  0.68257  1.0000
  H   H2543     1.0  0.46816  0.02819  0.66890  1.0000
  H   H2544     1.0  0.48384  0.01994  0.69279  1.0000
  H   H2545     1.0  0.46110  0.07022  0.70458  1.0000
  H   H2546     1.0  0.44683  0.07905  0.67932  1.0000
  C   C1426     1.0  0.42785  0.03892  0.57603  1.0000
  H   H2547     1.0  0.39332  0.03363  0.60252  1.0000
  C   C1427     1.0  0.52347  0.01019  0.72835  1.0000
  C   C1428     1.0  0.49391  0.07418  0.62111  1.0000
  H   H2548     1.0  0.49928  0.98771  0.57174  1.0000
  H   H2549     1.0  0.40138  0.00084  0.72312  1.0000
  H   H2550     1.0  0.42968  0.06367  0.73164  1.0000
  H   H2551     1.0  0.48976  0.08701  0.61252  1.0000
  S   S326      1.0  0.37399  0.06158  0.56322  1.0000
  C   C1429     1.0  0.55743  0.02155  0.70916  1.0000
  C   C1430     1.0  0.57586  0.02377  0.56819  1.0000
  H   H2552     1.0  0.56548  0.01633  0.57267  1.0000
  H   H2553     1.0  0.64922  0.08454  0.59086  1.0000
  H   H2554     1.0  0.53102  0.00429  0.68187  1.0000
  H   H2555     1.0  0.39544  0.05754  0.61504  1.0000
  H   H2556     1.0  0.52519  0.01613  0.71422  1.0000
  H   H2557     1.0  0.59038  0.00786  0.69023  1.0000
  H   H2558     1.0  0.39995  0.11350  0.50197  1.0000
  C   C1431     1.0  0.58485  0.02182  0.68537  1.0000
  H   H2559     1.0  0.43050  0.98678  0.70486  1.0000
  H   H2560     1.0  0.57759  0.02910  0.55393  1.0000
  C   C1432     1.0  0.59280  0.01221  0.57293  1.0000
  H   H2561     1.0  0.35479  0.02123  0.49293  1.0000
  H   H2562     1.0  0.54006  0.06179  0.63701  1.0000
  C   C1433     1.0  0.65597  0.07841  0.60187  1.0000
  S   S327      1.0  0.44811  0.02877  0.58164  1.0000
  N   N77       1.0  0.55151  0.01848  0.72876  1.0000
  H   H2563     1.0  0.59013  0.00739  0.58727  1.0000
  C   C1434     1.0  0.53296  0.02620  0.65950  1.0000
  H   H2564     1.0  0.36479  0.04589  0.61091  1.0000
  H   H2565     1.0  0.38653  0.99976  0.64421  1.0000
  H   H2566     1.0  0.60254  0.02028  0.56936  1.0000
  H   H2567     1.0  0.39575  0.05988  0.52768  1.0000
  H   H2568     1.0  0.62615  0.00331  0.69179  1.0000
  H   H2569     1.0  0.56738  0.07380  0.63832  1.0000
  H   H2570     1.0  0.41216  0.07831  0.49110  1.0000
  H   H2571     1.0  0.37956  0.03615  0.63534  1.0000
  H   H2572     1.0  0.34833  0.09811  0.54859  1.0000
  H   H2573     1.0  0.64371  0.03465  0.68695  1.0000
  H   H2574     1.0  0.35097  0.10017  0.50550  1.0000
  C   C1435     1.0  0.39194  0.10996  0.49506  1.0000
  C   C1436     1.0  0.35922  0.03548  0.60992  1.0000
  C   C1437     1.0  0.40409  0.06041  0.51449  1.0000
  H   H2575     1.0  0.36581  0.10178  0.55552  1.0000
  H   H2576     1.0  0.51733  0.05019  0.63712  1.0000
  H   H2577     1.0  0.52984  0.03926  0.68007  1.0000
  C   C1438     1.0  0.63228  0.00016  0.67884  1.0000
  H   H2578     1.0  0.51325  0.08287  0.62744  1.0000
  H   H2579     1.0  0.56016  0.00910  0.70498  1.0000
  S   S328      1.0  0.38108  0.02740  0.53456  1.0000
  H   H2580     1.0  0.55816  0.04660  0.65665  1.0000
  H   H2581     1.0  0.43092  0.04901  0.50367  1.0000
  H   H2582     1.0  0.50303  0.06540  0.61292  1.0000
  H   H2583     1.0  0.38864  0.08871  0.53186  1.0000
  H   H2584     1.0  0.43945  0.99352  0.67295  1.0000
  H   H2585     1.0  0.52966  0.04042  0.72669  1.0000
  C   C1439     1.0  0.56223  0.07226  0.65256  1.0000
  C   C1440     1.0  0.43210  0.01167  0.70879  1.0000
  H   H2586     1.0  0.40049  0.03129  0.55592  1.0000
  H   H2587     1.0  0.57329  0.06739  0.65924  1.0000
  H   H2588     1.0  0.52478  0.07860  0.68087  1.0000
  H   H2589     1.0  0.52406  0.02292  0.65348  1.0000
  C   C1441     1.0  0.50685  0.07035  0.67107  1.0000
  H   H2590     1.0  0.48850  0.07748  0.70361  1.0000
  H   H2591     1.0  0.41893  0.01909  0.70681  1.0000
  C   C1442     1.0  0.40674  0.99310  0.59478  1.0000
  Fe  Fe166     1.0  0.36331  0.03921  0.51579  1.0000
  H   H2592     1.0  0.36174  0.11244  0.48537  1.0000
  C   C1443     1.0  0.40148  0.06166  0.57613  1.0000
  H   H2593     1.0  0.40481  0.99848  0.56764  1.0000
  H   H2594     1.0  0.56866  0.04405  0.69475  1.0000
  H   H2595     1.0  0.51045  0.03634  0.67767  1.0000
  H   H2596     1.0  0.51262  0.98693  0.59501  1.0000
  H   H2597     1.0  0.51778  0.05929  0.69483  1.0000
  H   H2598     1.0  0.52887  0.00719  0.55668  1.0000
  C   C1444     1.0  0.52273  0.04027  0.67005  1.0000
  C   C1445     1.0  0.53485  0.06547  0.64984  1.0000
  N   N78       1.0  0.51878  0.05863  0.65939  1.0000
  H   H2599     1.0  0.54342  0.03080  0.64891  1.0000
  H   H2600     1.0  0.57734  0.02306  0.67554  1.0000
  N   N79       1.0  0.38507  0.00997  0.61716  1.0000
  H   H2601     1.0  0.49757  0.05260  0.65297  1.0000
  H   H2602     1.0  0.33517  0.05398  0.60608  1.0000
  H   H2603     1.0  0.57267  0.00375  0.62867  1.0000
  H   H2604     1.0  0.55512  0.08514  0.65537  1.0000
  C   C1446     1.0  0.57330  0.03002  0.70034  1.0000
  S   S329      1.0  0.34560  0.02081  0.52866  1.0000
  H   H2605     1.0  0.42751  0.05396  0.52475  1.0000
  C   C1447     1.0  0.49987  0.08343  0.69744  1.0000
  H   H2606     1.0  0.41416  0.99953  0.53082  1.0000
  S   S330      1.0  0.34772  0.05973  0.53046  1.0000
  C   C1448     1.0  0.45087  0.00029  0.73070  1.0000
  C   C1449     1.0  0.54111  0.00942  0.67108  1.0000
  N   N80       1.0  0.43242  0.00630  0.72795  1.0000
  H   H2607     1.0  0.63358  0.00537  0.56084  1.0000
  H   H2608     1.0  0.50892  0.01196  0.54930  1.0000
  C   C1450     1.0  0.62602  0.01112  0.53663  1.0000
  H   H2609     1.0  0.39367  0.07358  0.57981  1.0000
  H   H2610     1.0  0.41594  0.04279  0.61806  1.0000
  C   C1451     1.0  0.39502  0.05319  0.56743  1.0000
  H   H2611     1.0  0.59578  0.02838  0.67912  1.0000
  C   C1452     1.0  0.42199  0.04911  0.51657  1.0000
  S   S331      1.0  0.37456  0.04728  0.48701  1.0000
  C   C1453     1.0  0.36717  0.10989  0.52749  1.0000
  H   H2612     1.0  0.37113  0.08246  0.52859  1.0000
  H   H2613     1.0  0.39875  0.05444  0.50713  1.0000
  H   H2614     1.0  0.44071  0.02085  0.70181  1.0000
  H   H2615     1.0  0.40136  0.05152  0.63591  1.0000
  H   H2616     1.0  0.40986  0.01712  0.61082  1.0000
  S   S332      1.0  0.48815  0.03998  0.71387  1.0000
  H   H2617     1.0  0.50521  0.08473  0.70795  1.0000
  C   C1454     1.0  0.36594  0.01786  0.62197  1.0000
  C   C1455     1.0  0.37901  0.09251  0.52337  1.0000
  H   H2618     1.0  0.37419  0.07422  0.50340  1.0000
  H   H2619     1.0  0.62686  0.01109  0.66886  1.0000
  C   C1456     1.0  0.59938  0.99655  0.56407  1.0000
  S   S333      1.0  0.59532  0.98888  0.65283  1.0000
  H   H2620     1.0  0.44267  0.01427  0.67295  1.0000
  C   C1457     1.0  0.63093  0.99763  0.55310  1.0000
  H   H2621     1.0  0.37991  0.12033  0.49528  1.0000
  C   C1458     1.0  0.40827  0.98717  0.57829  1.0000
  H   H2622     1.0  0.42115  0.00993  0.67999  1.0000
  C   C1459     1.0  0.38833  0.00390  0.60056  1.0000
  S   S334      1.0  0.63892  0.04368  0.65159  1.0000
  H   H2623     1.0  0.36222  0.01966  0.63557  1.0000
  H   H2624     1.0  0.55673  0.05294  0.71952  1.0000
  H   H2625     1.0  0.64369  0.98894  0.54908  1.0000
  H   H2626     1.0  0.43511  0.04195  0.71459  1.0000
  C   C1460     1.0  0.35689  0.10719  0.54630  1.0000
  C   C1461     1.0  0.37745  0.08676  0.49567  1.0000
  N   N81       1.0  0.61796  0.98693  0.56421  1.0000
  H   H2627     1.0  0.61561  0.02218  0.54042  1.0000
  H   H2628     1.0  0.64651  0.02465  0.53294  1.0000
  H   H2629     1.0  0.65398  0.04783  0.57318  1.0000
  H   H2630     1.0  0.52616  0.07003  0.72762  1.0000
  C   C1462     1.0  0.35998  0.09930  0.49280  1.0000
  C   C1463     1.0  0.64158  0.01853  0.52534  1.0000
  H   H2631     1.0  0.54838  0.99289  0.72997  1.0000
  H   H2632     1.0  0.45199  0.99139  0.69769  1.0000
  H   H2633     1.0  0.44611  0.03349  0.73248  1.0000
  H   H2634     1.0  0.45509  0.99433  0.62118  1.0000
  H   H2635     1.0  0.41053  0.02762  0.73303  1.0000
  C   C1464     1.0  0.57807  0.99030  0.62815  1.0000
  H   H2636     1.0  0.34868  0.11980  0.54897  1.0000
  H   H2637     1.0  0.33321  0.03169  0.61327  1.0000
  H   H2638     1.0  0.33595  0.99066  0.56240  1.0000
  C   C1465     1.0  0.54891  0.04945  0.73273  1.0000
  H   H2639     1.0  0.60283  0.00123  0.73336  1.0000
  C   C1466     1.0  0.54003  0.03469  0.73432  1.0000
  C   C1467     1.0  0.57867  0.99452  0.73441  1.0000
  C   C1468     1.0  0.54082  0.00483  0.73458  1.0000
  H   H2640     1.0  0.54225  0.07651  0.73388  1.0000
  C   C1469     1.0  0.65793  0.10258  0.49838  1.0000
  H   H2641     1.0  0.44671  0.46524  0.96630  1.0000
  Fe  Fe167     1.0  0.47174  0.05701  0.77339  1.0000
  S   S335      1.0  0.46746  0.03231  0.79287  1.0000
  S   S336      1.0  0.47444  0.08149  0.77900  1.0000
  H   H2642     1.0  0.39554  0.00740  0.74362  1.0000
  S   S337      1.0  0.47385  0.01498  0.75906  1.0000
  Fe  Fe168     1.0  0.45181  0.03056  0.77502  1.0000
  S   S338      1.0  0.42570  0.02380  0.78450  1.0000
  H   H2643     1.0  0.57892  0.34274  0.82211  1.0000
  S   S339      1.0  0.45428  0.05640  0.75672  1.0000
  H   H2644     1.0  0.51466  0.14038  0.90366  1.0000
  N   N82       1.0  0.41443  0.45756  0.96408  1.0000
  H   H2645     1.0  0.53586  0.31304  0.85264  1.0000
  H   H2646     1.0  0.58677  0.21335  0.84482  1.0000
  Fe  Fe169     1.0  0.39491  0.39826  0.87187  1.0000
  S   S340      1.0  0.37126  0.39055  0.89043  1.0000
  S   S341      1.0  0.42226  0.38223  0.87228  1.0000
  Fe  Fe170     1.0  0.35938  0.39920  0.86696  1.0000
  S   S342      1.0  0.34427  0.38296  0.86173  1.0000
  Fe  Fe171     1.0  0.36255  0.41862  0.89171  1.0000
  S   S343      1.0  0.34913  0.42591  0.91730  1.0000
  S   S344      1.0  0.38367  0.40487  0.84809  1.0000
  S   S345      1.0  0.38723  0.42590  0.87513  1.0000
  Fe  Fe172     1.0  0.61471  0.12842  0.84819  1.0000
  S   S346      1.0  0.58865  0.13815  0.86391  1.0000
  Fe  Fe173     1.0  0.62359  0.16388  0.83915  1.0000
  S   S347      1.0  0.59800  0.17647  0.85361  1.0000
  H   H2647     1.0  0.53271  0.14534  0.80267  1.0000
  Fe  Fe174     1.0  0.60185  0.15206  0.87430  1.0000
  S   S348      1.0  0.59285  0.15282  0.90264  1.0000
  Fe  Fe175     1.0  0.58718  0.16152  0.84184  1.0000
  S   S349      1.0  0.56311  0.17237  0.83115  1.0000
  S   S350      1.0  0.62841  0.14024  0.86070  1.0000
  S   S351      1.0  0.61237  0.15101  0.82541  1.0000
  H   H2648     1.0  0.51136  0.07904  0.81046  1.0000
  H   H2649     1.0  0.54713  0.22747  0.95570  1.0000
  H   H2650     1.0  0.61445  0.20010  0.88804  1.0000
  H   H2651     1.0  0.34249  0.42985  0.81009  1.0000
  H   H2652     1.0  0.62593  0.22312  0.85805  1.0000
  H   H2653     1.0  0.40843  0.31053  0.82449  1.0000
  S   S352      1.0  0.51287  0.99812  0.78117  1.0000
  H   H2654     1.0  0.49405  0.11904  0.96899  1.0000
  Fe  Fe176     1.0  0.47775  0.04070  0.74211  1.0000
  Fe  Fe177     1.0  0.59664  0.28392  0.85041  1.0000
  S   S353      1.0  0.58010  0.29237  0.83036  1.0000
  S   S354      1.0  0.60442  0.25686  0.86616  1.0000
  Fe  Fe178     1.0  0.45957  0.28302  0.88757  1.0000
  S   S355      1.0  0.46798  0.26120  0.90922  1.0000
  S   S356      1.0  0.43296  0.30027  0.89359  1.0000
  Fe  Fe179     1.0  0.49185  0.27128  0.86168  1.0000
  S   S357      1.0  0.50270  0.24812  0.88086  1.0000
  S   S358      1.0  0.50678  0.27929  0.83468  1.0000
  Fe  Fe180     1.0  0.47545  0.24435  0.88996  1.0000
  S   S359      1.0  0.46928  0.21793  0.90120  1.0000
  Fe  Fe181     1.0  0.49426  0.26680  0.89828  1.0000
  S   S360      1.0  0.51158  0.26483  0.91576  1.0000
  S   S361      1.0  0.46519  0.26577  0.86886  1.0000
  S   S362      1.0  0.48533  0.29042  0.87844  1.0000
  Fe  Fe182     1.0  0.46727  0.10950  0.86437  1.0000
  S   S363      1.0  0.48542  0.09691  0.88274  1.0000
  S   S364      1.0  0.45498  0.09262  0.85614  1.0000
  Fe  Fe183     1.0  0.47030  0.14590  0.86267  1.0000
  S   S365      1.0  0.48915  0.13626  0.88029  1.0000
  S   S366      1.0  0.46211  0.17468  0.85162  1.0000
  Fe  Fe184     1.0  0.50132  0.11559  0.86527  1.0000
  S   S367      1.0  0.53010  0.10722  0.85780  1.0000
  Fe  Fe185     1.0  0.47154  0.11865  0.89643  1.0000
  S   S368      1.0  0.46554  0.11379  0.92585  1.0000
  S   S369      1.0  0.48431  0.12670  0.84586  1.0000
  S   S370      1.0  0.45160  0.12965  0.87976  1.0000
  H   H2655     1.0  0.62708  0.30519  0.91091  1.0000
  H   H2656     1.0  0.58540  0.19722  0.81941  1.0000
  C   C1470     1.0  0.43744  0.98949  0.78102  1.0000
  C   C1471     1.0  0.50413  0.23337  0.96133  1.0000
  C   C1472     1.0  0.47677  0.12406  0.93388  1.0000
  C   C1473     1.0  0.48113  0.13973  0.92418  1.0000
  C   C1474     1.0  0.49034  0.14776  0.93040  1.0000
  C   C1475     1.0  0.49502  0.14037  0.94651  1.0000
  C   C1476     1.0  0.49048  0.12480  0.95648  1.0000
  C   C1477     1.0  0.48128  0.11668  0.95017  1.0000
  H   H2657     1.0  0.47712  0.14589  0.91201  1.0000
  H   H2658     1.0  0.49372  0.15987  0.92271  1.0000
  H   H2659     1.0  0.42712  0.20675  0.96023  1.0000
  H   H2660     1.0  0.47780  0.10461  0.95782  1.0000
  C   C1478     1.0  0.46804  0.20629  0.88673  1.0000
  C   C1479     1.0  0.46657  0.21430  0.86950  1.0000
  C   C1480     1.0  0.46471  0.20463  0.85867  1.0000
  C   C1481     1.0  0.46441  0.18696  0.86504  1.0000
  C   C1482     1.0  0.46586  0.17911  0.88224  1.0000
  C   C1483     1.0  0.46784  0.18866  0.89298  1.0000
  H   H2661     1.0  0.46675  0.22792  0.86457  1.0000
  H   H2662     1.0  0.46361  0.21080  0.84535  1.0000
  H   H2663     1.0  0.46512  0.16573  0.88740  1.0000
  H   H2664     1.0  0.46918  0.18236  0.90619  1.0000
  C   C1484     1.0  0.50482  0.28241  0.92580  1.0000
  C   C1485     1.0  0.50984  0.28071  0.94124  1.0000
  C   C1486     1.0  0.50431  0.29449  0.94964  1.0000
  C   C1487     1.0  0.49392  0.31014  0.94253  1.0000
  C   C1488     1.0  0.48949  0.31216  0.92666  1.0000
  C   C1489     1.0  0.49470  0.29818  0.91843  1.0000
  H   H2665     1.0  0.51768  0.26863  0.94701  1.0000
  C   C1490     1.0  0.33977  0.42729  0.82452  1.0000
  H   H2666     1.0  0.48174  0.32432  0.92098  1.0000
  H   H2667     1.0  0.49100  0.29967  0.90637  1.0000
  C   C1491     1.0  0.61247  0.27826  0.94887  1.0000
  C   C1492     1.0  0.60355  0.26990  0.94250  1.0000
  H   H2668     1.0  0.61278  0.27479  0.96254  1.0000
  C   C1493     1.0  0.56313  0.22963  0.92890  1.0000
  C   C1494     1.0  0.55996  0.28773  0.83255  1.0000
  C   C1495     1.0  0.55063  0.27986  0.84845  1.0000
  C   C1496     1.0  0.53409  0.27738  0.84939  1.0000
  C   C1497     1.0  0.52723  0.28227  0.83431  1.0000
  C   C1498     1.0  0.53678  0.28982  0.81849  1.0000
  C   C1499     1.0  0.55298  0.29268  0.81765  1.0000
  H   H2669     1.0  0.55601  0.27591  0.85999  1.0000
  H   H2670     1.0  0.52676  0.27154  0.86169  1.0000
  H   H2671     1.0  0.53155  0.29367  0.80685  1.0000
  H   H2672     1.0  0.56015  0.29878  0.80534  1.0000
  H   H2673     1.0  0.53219  0.22007  0.93637  1.0000
  H   H2674     1.0  0.34715  0.41402  0.82951  1.0000
  C   C1500     1.0  0.58158  0.25340  0.79117  1.0000
  C   C1501     1.0  0.56608  0.08018  0.81757  1.0000
  H   H2675     1.0  0.60363  0.11565  0.89982  1.0000
  C   C1502     1.0  0.42452  0.13938  0.80421  1.0000
  H   H2676     1.0  0.65749  0.19538  0.94601  1.0000
  H   H2677     1.0  0.40435  0.12994  0.83700  1.0000
  C   C1503     1.0  0.64273  0.11605  0.93279  1.0000
  C   C1504     1.0  0.65057  0.22416  0.84038  1.0000
  H   H2678     1.0  0.57805  0.27579  0.97893  1.0000
  C   C1505     1.0  0.56625  0.01169  0.73824  1.0000
  C   C1506     1.0  0.55393  0.15449  0.83513  1.0000
  C   C1507     1.0  0.56453  0.13775  0.83717  1.0000
  C   C1508     1.0  0.55717  0.12321  0.84369  1.0000
  C   C1509     1.0  0.53916  0.12539  0.84797  1.0000
  C   C1510     1.0  0.52855  0.14209  0.84484  1.0000
  C   C1511     1.0  0.53596  0.15667  0.83829  1.0000
  H   H2679     1.0  0.57846  0.13598  0.83409  1.0000
  H   H2680     1.0  0.56545  0.11034  0.84581  1.0000
  H   H2681     1.0  0.51463  0.14386  0.84781  1.0000
  H   H2682     1.0  0.52772  0.16961  0.83662  1.0000
  H   H2683     1.0  0.43413  0.25885  0.85406  1.0000
  S   S371      1.0  0.64406  0.17845  0.82313  1.0000
  C   C1512     1.0  0.54125  0.21771  0.92410  1.0000
  H   H2684     1.0  0.62121  0.10187  0.88804  1.0000
  H   H2685     1.0  0.56747  0.22031  0.89832  1.0000
  C   C1513     1.0  0.60754  0.15826  0.91104  1.0000
  H   H2686     1.0  0.45962  0.30291  0.84812  1.0000
  H   H2687     1.0  0.33837  0.43898  0.97414  1.0000
  C   C1514     1.0  0.60368  0.15854  0.92870  1.0000
  H   H2688     1.0  0.64683  0.35260  0.95556  1.0000
  H   H2689     1.0  0.59158  0.15572  0.93685  1.0000
  C   C1515     1.0  0.42512  0.35945  0.87772  1.0000
  C   C1516     1.0  0.41105  0.35165  0.88576  1.0000
  C   C1517     1.0  0.41369  0.33348  0.89075  1.0000
  C   C1518     1.0  0.43038  0.32297  0.88754  1.0000
  C   C1519     1.0  0.44450  0.33072  0.87944  1.0000
  C   C1520     1.0  0.44184  0.34893  0.87447  1.0000
  H   H2690     1.0  0.39813  0.35959  0.88831  1.0000
  H   H2691     1.0  0.40272  0.32755  0.89706  1.0000
  H   H2692     1.0  0.45741  0.32273  0.87685  1.0000
  H   H2693     1.0  0.45274  0.35490  0.86794  1.0000
  C   C1521     1.0  0.36387  0.41889  0.93111  1.0000
  C   C1522     1.0  0.35789  0.41822  0.94893  1.0000
  C   C1523     1.0  0.36972  0.41327  0.95991  1.0000
  C   C1524     1.0  0.38754  0.40904  0.95300  1.0000
  C   C1525     1.0  0.39349  0.40970  0.93519  1.0000
  C   C1526     1.0  0.38167  0.41436  0.92432  1.0000
  H   H2694     1.0  0.34411  0.42133  0.95422  1.0000
  H   H2695     1.0  0.40663  0.37469  0.94283  1.0000
  H   H2696     1.0  0.40725  0.40645  0.92980  1.0000
  H   H2697     1.0  0.38639  0.41460  0.91065  1.0000
  C   C1527     1.0  0.52552  0.00794  0.78776  1.0000
  H   H2698     1.0  0.50556  0.24006  0.94741  1.0000
  H   H2699     1.0  0.45028  0.99198  0.77604  1.0000
  Fe  Fe186     1.0  0.63131  0.26157  0.85579  1.0000
  C   C1528     1.0  0.42110  0.16560  0.81524  1.0000
  H   H2700     1.0  0.37908  0.19158  0.81631  1.0000
  Fe  Fe187     1.0  0.63142  0.29646  0.97280  1.0000
  H   H2701     1.0  0.42612  0.12255  0.77835  1.0000
  H   H2702     1.0  0.58687  0.17959  0.97362  1.0000
  C   C1529     1.0  0.47015  0.08336  0.80078  1.0000
  C   C1530     1.0  0.47678  0.09542  0.80471  1.0000
  C   C1531     1.0  0.47259  0.09807  0.82174  1.0000
  C   C1532     1.0  0.46154  0.08883  0.83489  1.0000
  C   C1533     1.0  0.45501  0.07670  0.83097  1.0000
  C   C1534     1.0  0.45941  0.07385  0.81400  1.0000
  H   H2703     1.0  0.48508  0.10282  0.79451  1.0000
  H   H2704     1.0  0.47773  0.10739  0.82461  1.0000
  H   H2705     1.0  0.44646  0.06950  0.84108  1.0000
  H   H2706     1.0  0.45414  0.06462  0.81107  1.0000
  C   C1535     1.0  0.37979  0.47514  0.85047  1.0000
  H   H2707     1.0  0.39939  0.19832  0.80803  1.0000
  C   C1536     1.0  0.43310  0.16119  0.97099  1.0000
  C   C1537     1.0  0.41646  0.19975  0.96530  1.0000
  C   C1538     1.0  0.60185  0.10717  0.96796  1.0000
  Fe  Fe188     1.0  0.59731  0.05043  0.74667  1.0000
  H   H2708     1.0  0.43454  0.30460  0.93701  1.0000
  C   C1539     1.0  0.38572  0.48551  0.81916  1.0000
  C   C1540     1.0  0.60443  0.34858  0.95341  1.0000
  H   H2709     1.0  0.43475  0.44282  0.94716  1.0000
  C   C1541     1.0  0.57015  0.34691  0.83388  1.0000
  H   H2710     1.0  0.43398  0.11143  0.81503  1.0000
  H   H2711     1.0  0.51897  0.36072  0.95965  1.0000
  C   C1542     1.0  0.42906  0.17176  0.92286  1.0000
  H   H2712     1.0  0.43472  0.14183  0.84174  1.0000
  C   C1543     1.0  0.54990  0.23760  0.94373  1.0000
  H   H2713     1.0  0.56625  0.25471  0.81646  1.0000
  C   C1544     1.0  0.41797  0.18759  0.95335  1.0000
  C   C1545     1.0  0.60387  0.19411  0.79587  1.0000
  C   C1546     1.0  0.42348  0.00269  0.78627  1.0000
  H   H2714     1.0  0.58941  0.07646  0.82691  1.0000
  H   H2715     1.0  0.50953  0.17198  0.88934  1.0000
  N   N83       1.0  0.58734  0.23224  0.82035  1.0000
  H   H2716     1.0  0.53435  0.09739  0.75264  1.0000
  C   C1547     1.0  0.59768  0.24259  0.82449  1.0000
  H   H2717     1.0  0.48242  0.22454  0.96013  1.0000
  H   H2718     1.0  0.59232  0.99095  0.75469  1.0000
  H   H2719     1.0  0.54678  0.25583  0.95958  1.0000
  C   C1548     1.0  0.54535  0.13019  0.91575  1.0000
  C   C1549     1.0  0.61494  0.24524  0.81144  1.0000
  C   C1550     1.0  0.62211  0.25872  0.81511  1.0000
  C   C1551     1.0  0.57665  0.18051  0.96670  1.0000
  C   C1552     1.0  0.62660  0.10544  0.91118  1.0000
  H   H2720     1.0  0.58952  0.25559  0.82620  1.0000
  H   H2721     1.0  0.60157  0.23612  0.83722  1.0000
  H   H2722     1.0  0.39078  0.47343  0.95589  1.0000
  H   H2723     1.0  0.58374  0.22401  0.97070  1.0000
  H   H2724     1.0  0.51542  0.13693  0.81863  1.0000
  H   H2725     1.0  0.63381  0.12598  0.80160  1.0000
  C   C1553     1.0  0.59094  0.20646  0.90729  1.0000
  C   C1554     1.0  0.43489  0.30704  0.80948  1.0000
  C   C1555     1.0  0.57427  0.24409  0.80988  1.0000
  H   H2726     1.0  0.50809  0.29285  0.96169  1.0000
  C   C1556     1.0  0.51107  0.07238  0.83775  1.0000
  H   H2727     1.0  0.34328  0.46452  0.91707  1.0000
  H   H2728     1.0  0.63507  0.25934  0.80654  1.0000
  H   H2729     1.0  0.61336  0.27177  0.81260  1.0000
  H   H2730     1.0  0.58904  0.19623  0.94346  1.0000
  C   C1557     1.0  0.57592  0.19669  0.95180  1.0000
  H   H2731     1.0  0.55283  0.09939  0.75906  1.0000
  H   H2732     1.0  0.53960  0.15798  0.89174  1.0000
  H   H2733     1.0  0.37441  0.34518  0.85447  1.0000
  H   H2734     1.0  0.44878  0.22339  0.96189  1.0000
  H   H2735     1.0  0.55733  0.04565  0.74234  1.0000
  H   H2736     1.0  0.46256  0.23559  0.94461  1.0000
  H   H2737     1.0  0.51243  0.34860  0.98151  1.0000
  H   H2738     1.0  0.51237  0.19738  0.91708  1.0000
  H   H2739     1.0  0.64899  0.25413  0.93179  1.0000
  C   C1558     1.0  0.54339  0.00129  0.78609  1.0000
  H   H2740     1.0  0.63368  0.24287  0.98004  1.0000
  S   S372      1.0  0.63155  0.27254  0.87775  1.0000
  H   H2741     1.0  0.39018  0.44948  0.91418  1.0000
  C   C1559     1.0  0.63504  0.16549  0.90768  1.0000
  H   H2742     1.0  0.43237  0.34240  0.97306  1.0000
  N   N84       1.0  0.33448  0.48375  0.93291  1.0000
  H   H2743     1.0  0.38284  0.46978  0.89972  1.0000
  H   H2744     1.0  0.44791  0.26257  0.95258  1.0000
  H   H2745     1.0  0.65678  0.47493  0.84318  1.0000
  H   H2746     1.0  0.48452  0.14228  0.80733  1.0000
  C   C1560     1.0  0.42380  0.02209  0.73564  1.0000
  H   H2747     1.0  0.54841  0.30189  0.96297  1.0000
  H   H2748     1.0  0.43634  0.25252  0.93198  1.0000
  Fe  Fe189     1.0  0.50350  0.14669  0.98250  1.0000
  H   H2749     1.0  0.39613  0.00938  0.79696  1.0000
  C   C1561     1.0  0.62624  0.07622  0.82738  1.0000
  C   C1562     1.0  0.64198  0.23570  0.95503  1.0000
  H   H2750     1.0  0.58013  0.21309  0.80024  1.0000
  C   C1563     1.0  0.32857  0.47085  0.94926  1.0000
  H   H2751     1.0  0.42297  0.98897  0.75168  1.0000
  H   H2752     1.0  0.62135  0.14512  0.76829  1.0000
  H   H2753     1.0  0.63998  0.23493  0.88851  1.0000
  Fe  Fe190     1.0  0.64271  0.16071  0.96377  1.0000
  H   H2754     1.0  0.41684  0.48063  0.97015  1.0000
  H   H2755     1.0  0.57248  0.34133  0.96695  1.0000
  H   H2756     1.0  0.54936  0.07809  0.76106  1.0000
  C   C1564     1.0  0.63563  0.21751  0.84809  1.0000
  C   C1565     1.0  0.63681  0.08731  0.94809  1.0000
  C   C1566     1.0  0.38281  0.36387  0.93453  1.0000
  S   S373      1.0  0.40248  0.40263  0.96650  1.0000
  C   C1567     1.0  0.59727  0.33473  0.95034  1.0000
  H   H2757     1.0  0.62728  0.04616  0.95910  1.0000
  H   H2758     1.0  0.54953  0.98983  0.78088  1.0000
  H   H2759     1.0  0.36375  0.45315  0.93575  1.0000
  H   H2760     1.0  0.54414  0.11683  0.79418  1.0000
  H   H2761     1.0  0.44547  0.31418  0.80504  1.0000
  H   H2762     1.0  0.59725  0.21622  0.87909  1.0000
  H   H2763     1.0  0.54463  0.11575  0.81631  1.0000
  C   C1568     1.0  0.34807  0.47454  0.91995  1.0000
  H   H2764     1.0  0.40378  0.14659  0.84777  1.0000
  C   C1569     1.0  0.57749  0.22319  0.83734  1.0000
  C   C1570     1.0  0.64616  0.19592  0.83026  1.0000
  H   H2765     1.0  0.45860  0.21955  0.98489  1.0000
  C   C1571     1.0  0.63240  0.22529  0.89669  1.0000
  H   H2766     1.0  0.41497  0.43601  0.95373  1.0000
  C   C1572     1.0  0.40695  0.99927  0.79289  1.0000
  H   H2767     1.0  0.43842  0.44374  0.91610  1.0000
  H   H2768     1.0  0.56909  0.21600  0.83494  1.0000
  H   H2769     1.0  0.32548  0.40396  0.88662  1.0000
  H   H2770     1.0  0.60341  0.33305  0.93690  1.0000
  H   H2771     1.0  0.42083  0.15518  0.94778  1.0000
  C   C1573     1.0  0.33817  0.46657  0.96434  1.0000
  H   H2772     1.0  0.62214  0.19801  0.84936  1.0000
  H   H2773     1.0  0.55762  0.27294  0.78843  1.0000
  H   H2774     1.0  0.64854  0.15172  0.76920  1.0000
  C   C1574     1.0  0.42052  0.44781  0.94965  1.0000
  H   H2775     1.0  0.35242  0.46324  0.95986  1.0000
  H   H2776     1.0  0.43049  0.25431  0.96736  1.0000
  H   H2777     1.0  0.61503  0.18685  0.80210  1.0000
  C   C1575     1.0  0.39279  0.18837  0.81760  1.0000
  H   H2778     1.0  0.56110  0.00949  0.75255  1.0000
  H   H2779     1.0  0.56644  0.09396  0.81163  1.0000
  C   C1576     1.0  0.44980  0.14701  0.80754  1.0000
  H   H2780     1.0  0.60566  0.10990  0.79071  1.0000
  S   S374      1.0  0.34850  0.42675  0.86981  1.0000
  H   H2781     1.0  0.57299  0.07250  0.80751  1.0000
  H   H2782     1.0  0.63215  0.20437  0.91903  1.0000
  H   H2783     1.0  0.63305  0.35035  0.87520  1.0000
  H   H2784     1.0  0.51344  0.98812  0.74583  1.0000
  H   H2785     1.0  0.39865  0.22151  0.95235  1.0000
  H   H2786     1.0  0.42051  0.45466  0.90550  1.0000
  H   H2787     1.0  0.64800  0.12966  0.82122  1.0000
  H   H2788     1.0  0.56853  0.29158  0.95091  1.0000
  C   C1577     1.0  0.56697  0.26318  0.78145  1.0000
  C   C1578     1.0  0.61705  0.10916  0.92936  1.0000
  C   C1579     1.0  0.53886  0.33868  0.96894  1.0000
  C   C1580     1.0  0.42590  0.11400  0.79158  1.0000
  H   H2789     1.0  0.41234  0.11327  0.79824  1.0000
  H   H2790     1.0  0.37131  0.47307  0.92949  1.0000
  H   H2791     1.0  0.57352  0.35325  0.94515  1.0000
  H   H2792     1.0  0.56405  0.18124  0.97621  1.0000
  H   H2793     1.0  0.34440  0.43673  0.82852  1.0000
  H   H2794     1.0  0.41062  0.13913  0.80909  1.0000
  H   H2795     1.0  0.58530  0.30454  0.96208  1.0000
  H   H2796     1.0  0.47472  0.25782  0.95822  1.0000
  C   C1581     1.0  0.59541  0.99106  0.74065  1.0000
  H   H2797     1.0  0.59301  0.10770  0.95967  1.0000
  S   S375      1.0  0.62367  0.28806  0.83885  1.0000
  H   H2798     1.0  0.60866  0.20190  0.78283  1.0000
  C   C1582     1.0  0.64033  0.21398  0.91219  1.0000
  Fe  Fe191     1.0  0.62103  0.29864  0.86208  1.0000
  H   H2799     1.0  0.38922  0.45205  0.96783  1.0000
  C   C1583     1.0  0.61809  0.11413  0.95728  1.0000
  C   C1584     1.0  0.56239  0.29673  0.96283  1.0000
  H   H2800     1.0  0.50748  0.24113  0.96852  1.0000
  H   H2801     1.0  0.47859  0.16247  0.79193  1.0000
  H   H2802     1.0  0.42539  0.14788  0.79085  1.0000
  H   H2803     1.0  0.62358  0.25511  0.82882  1.0000
  H   H2804     1.0  0.65158  0.11003  0.92208  1.0000
  H   H2805     1.0  0.37788  0.35685  0.94794  1.0000
  C   C1585     1.0  0.42137  0.47379  0.95927  1.0000
  N   N85       1.0  0.53684  0.32544  0.87227  1.0000
  C   C1586     1.0  0.52689  0.32086  0.86190  1.0000
  C   C1587     1.0  0.54876  0.30906  0.87976  1.0000
  C   C1588     1.0  0.52412  0.33363  0.88645  1.0000
  C   C1589     1.0  0.54771  0.33818  0.86097  1.0000
  C   C1590     1.0  0.56003  0.33297  0.84427  1.0000
  C   C1591     1.0  0.53205  0.33630  0.90042  1.0000
  C   C1592     1.0  0.53991  0.29489  0.89301  1.0000
  C   C1593     1.0  0.55337  0.27973  0.90066  1.0000
  C   C1594     1.0  0.51829  0.34656  0.91278  1.0000
  H   H2806     1.0  0.51818  0.31231  0.87060  1.0000
  H   H2807     1.0  0.55731  0.30268  0.86918  1.0000
  H   H2808     1.0  0.55759  0.31216  0.88601  1.0000
  H   H2809     1.0  0.51410  0.32590  0.89333  1.0000
  H   H2810     1.0  0.51677  0.34662  0.88065  1.0000
  H   H2811     1.0  0.53938  0.35127  0.85708  1.0000
  H   H2812     1.0  0.55619  0.34011  0.86843  1.0000
  H   H2813     1.0  0.56970  0.32082  0.84767  1.0000
  H   H2814     1.0  0.54244  0.34360  0.89441  1.0000
  H   H2815     1.0  0.53762  0.32364  0.90842  1.0000
  H   H2816     1.0  0.53069  0.30000  0.90400  1.0000
  H   H2817     1.0  0.53286  0.28962  0.88667  1.0000
  H   H2818     1.0  0.56038  0.28422  0.90776  1.0000
  H   H2819     1.0  0.54677  0.26971  0.90997  1.0000
  H   H2820     1.0  0.56284  0.27372  0.89027  1.0000
  H   H2821     1.0  0.50743  0.33991  0.91912  1.0000
  H   H2822     1.0  0.52404  0.34763  0.92311  1.0000
  H   H2823     1.0  0.51312  0.35987  0.90560  1.0000
  C   C1595     1.0  0.43820  0.32285  0.83850  1.0000
  C   C1596     1.0  0.40773  0.32209  0.85158  1.0000
  C   C1597     1.0  0.40249  0.34231  0.84676  1.0000
  C   C1598     1.0  0.45724  0.31218  0.83573  1.0000
  C   C1599     1.0  0.47002  0.32399  0.83045  1.0000
  H   H2824     1.0  0.43187  0.29402  0.86221  1.0000
  H   H2825     1.0  0.43718  0.33486  0.82791  1.0000
  H   H2826     1.0  0.43648  0.32739  0.85054  1.0000
  H   H2827     1.0  0.40897  0.31828  0.86546  1.0000
  H   H2828     1.0  0.41199  0.34811  0.84923  1.0000
  H   H2829     1.0  0.46796  0.33127  0.84064  1.0000
  H   H2830     1.0  0.48346  0.31594  0.82882  1.0000
  H   H2831     1.0  0.46853  0.33332  0.81787  1.0000
  H   H2832     1.0  0.38201  0.36353  0.85481  1.0000
  H   H2833     1.0  0.53338  0.03131  0.74828  1.0000
  C   C1600     1.0  0.43677  0.23958  0.94106  1.0000
  H   H2834     1.0  0.45768  0.15197  0.82909  1.0000
  H   H2835     1.0  0.52833  0.06357  0.75014  1.0000
  N   N86       1.0  0.43124  0.35675  0.93757  1.0000
  C   C1601     1.0  0.43750  0.36652  0.91931  1.0000
  C   C1602     1.0  0.41166  0.36086  0.94189  1.0000
  C   C1603     1.0  0.43700  0.36355  0.94989  1.0000
  C   C1604     1.0  0.43852  0.33732  0.94031  1.0000
  C   C1605     1.0  0.44236  0.32910  0.92441  1.0000
  C   C1606     1.0  0.45708  0.36673  0.91441  1.0000
  H   H2836     1.0  0.60145  0.32245  0.95962  1.0000
  C   C1607     1.0  0.40248  0.35780  0.92922  1.0000
  H   H2837     1.0  0.46065  0.28178  0.97132  1.0000
  C   C1608     1.0  0.44650  0.30925  0.92979  1.0000
  C   C1609     1.0  0.46372  0.37126  0.89473  1.0000
  C   C1610     1.0  0.43152  0.15919  0.91132  1.0000
  H   H2838     1.0  0.43017  0.38035  0.91731  1.0000
  H   H2839     1.0  0.43467  0.36145  0.90944  1.0000
  H   H2840     1.0  0.61282  0.07709  0.95658  1.0000
  H   H2841     1.0  0.48583  0.22161  0.98149  1.0000
  H   H2842     1.0  0.43312  0.37805  0.94712  1.0000
  H   H2843     1.0  0.45140  0.36015  0.94790  1.0000
  H   H2844     1.0  0.45103  0.33368  0.94468  1.0000
  H   H2845     1.0  0.60154  0.98977  0.78901  1.0000
  H   H2846     1.0  0.45368  0.33305  0.91464  1.0000
  H   H2847     1.0  0.41918  0.43502  0.92217  1.0000
  H   H2848     1.0  0.45918  0.37670  0.91990  1.0000
  H   H2849     1.0  0.46505  0.35399  0.91978  1.0000
  H   H2850     1.0  0.45154  0.00318  0.74297  1.0000
  H   H2851     1.0  0.42215  0.01838  0.75010  1.0000
  H   H2852     1.0  0.40644  0.36516  0.91574  1.0000
  H   H2853     1.0  0.40519  0.34377  0.92953  1.0000
  H   H2854     1.0  0.62954  0.23616  0.92456  1.0000
  H   H2855     1.0  0.51410  0.33970  0.96325  1.0000
  H   H2856     1.0  0.62618  0.11216  0.96688  1.0000
  C   C1611     1.0  0.62542  0.07097  0.81272  1.0000
  C   C1612     1.0  0.42968  0.13618  0.83383  1.0000
  H   H2857     1.0  0.56000  0.25400  0.78019  1.0000
  H   H2858     1.0  0.47716  0.37309  0.89177  1.0000
  H   H2859     1.0  0.46384  0.36052  0.88901  1.0000
  H   H2860     1.0  0.45538  0.38343  0.88865  1.0000
  H   H2861     1.0  0.42978  0.16662  0.89804  1.0000
  H   H2862     1.0  0.37912  0.37807  0.93391  1.0000
  H   H2863     1.0  0.40057  0.17031  0.80100  1.0000
  C   C1613     1.0  0.53566  0.20355  0.91906  1.0000
  C   C1614     1.0  0.51594  0.20715  0.92162  1.0000
  H   H2864     1.0  0.53851  0.23004  0.91414  1.0000
  H   H2865     1.0  0.54005  0.19043  0.92704  1.0000
  H   H2866     1.0  0.54124  0.20341  0.90511  1.0000
  H   H2867     1.0  0.50970  0.20625  0.93561  1.0000
  H   H2868     1.0  0.51086  0.22028  0.91404  1.0000
  H   H2869     1.0  0.63238  0.21692  0.88823  1.0000
  N   N87       1.0  0.56864  0.32756  0.94987  1.0000
  C   C1615     1.0  0.57642  0.32356  0.93213  1.0000
  C   C1616     1.0  0.64463  0.34355  0.86772  1.0000
  C   C1617     1.0  0.54965  0.33592  0.95078  1.0000
  H   H2870     1.0  0.48332  0.16273  0.81209  1.0000
  H   H2871     1.0  0.45181  0.17123  0.81306  1.0000
  C   C1618     1.0  0.57674  0.33946  0.91649  1.0000
  H   H2872     1.0  0.59830  0.20699  0.98254  1.0000
  H   H2873     1.0  0.60830  0.09232  0.90818  1.0000
  H   H2874     1.0  0.59954  0.35002  0.96711  1.0000
  H   H2875     1.0  0.55838  0.27116  0.97744  1.0000
  C   C1619     1.0  0.58577  0.33366  0.89947  1.0000
  H   H2876     1.0  0.60610  0.11881  0.81709  1.0000
  H   H2877     1.0  0.56921  0.31532  0.92951  1.0000
  H   H2878     1.0  0.58982  0.31557  0.93170  1.0000
  H   H2879     1.0  0.42350  0.23909  0.94887  1.0000
  H   H2880     1.0  0.56717  0.31338  0.97669  1.0000
  H   H2881     1.0  0.54330  0.32838  0.94604  1.0000
  H   H2882     1.0  0.54806  0.34899  0.94182  1.0000
  H   H2883     1.0  0.38641  0.48387  0.80632  1.0000
  C   C1620     1.0  0.39485  0.46313  0.96709  1.0000
  N   N88       1.0  0.62852  0.10627  0.94198  1.0000
  H   H2884     1.0  0.63711  0.12957  0.92636  1.0000
  H   H2885     1.0  0.56338  0.34673  0.91526  1.0000
  H   H2886     1.0  0.58384  0.34846  0.91785  1.0000
  S   S376      1.0  0.62372  0.32399  0.86556  1.0000
  S   S377      1.0  0.62346  0.10022  0.84607  1.0000
  H   H2887     1.0  0.63882  0.15710  0.79024  1.0000
  S   S378      1.0  0.59156  0.02494  0.76252  1.0000
  H   H2888     1.0  0.54821  0.23270  0.87517  1.0000
  H   H2889     1.0  0.43138  0.33322  0.91779  1.0000
  H   H2890     1.0  0.39296  0.18882  0.83098  1.0000
  H   H2891     1.0  0.57752  0.05969  0.83742  1.0000
  H   H2892     1.0  0.61793  0.16689  0.77104  1.0000
  H   H2893     1.0  0.43829  0.18035  0.91653  1.0000
  H   H2894     1.0  0.57921  0.32461  0.89729  1.0000
  H   H2895     1.0  0.58562  0.34512  0.88833  1.0000
  H   H2896     1.0  0.59951  0.32706  0.89974  1.0000
  H   H2897     1.0  0.62617  0.16183  0.88679  1.0000
  H   H2898     1.0  0.59062  0.24414  0.78347  1.0000
  H   H2899     1.0  0.43730  0.37666  0.97727  1.0000
  H   H2900     1.0  0.41217  0.25734  0.86475  1.0000
  H   H2901     1.0  0.52126  0.04227  0.80492  1.0000
  H   H2902     1.0  0.54219  0.08218  0.83701  1.0000
  H   H2903     1.0  0.51949  0.10378  0.82837  1.0000
  H   H2904     1.0  0.40167  0.34734  0.83289  1.0000
  H   H2905     1.0  0.56904  0.24581  0.95174  1.0000
  C   C1621     1.0  0.54547  0.02443  0.79787  1.0000
  H   H2906     1.0  0.39641  0.31737  0.85134  1.0000
  H   H2907     1.0  0.52288  0.34565  0.84232  1.0000
  H   H2908     1.0  0.60695  0.10146  0.93484  1.0000
  C   C1622     1.0  0.38482  0.34910  0.85765  1.0000
  H   H2909     1.0  0.41816  0.30053  0.79684  1.0000
  H   H2910     1.0  0.55285  0.33108  0.83555  1.0000
  S   S379      1.0  0.59327  0.29674  0.87216  1.0000
  H   H2911     1.0  0.56552  0.18567  0.93687  1.0000
  H   H2912     1.0  0.61389  0.12844  0.95279  1.0000
  H   H2913     1.0  0.52433  0.17874  0.86933  1.0000
  H   H2914     1.0  0.55531  0.24468  0.84333  1.0000
  Fe  Fe192     1.0  0.48987  0.01905  0.77491  1.0000
  N   N89       1.0  0.42405  0.31364  0.84033  1.0000
  H   H2915     1.0  0.56305  0.24001  0.91672  1.0000
  H   H2916     1.0  0.44196  0.13454  0.96668  1.0000
  H   H2917     1.0  0.50481  0.34342  0.86050  1.0000
  H   H2918     1.0  0.39890  0.12039  0.86933  1.0000
  C   C1623     1.0  0.60328  0.27426  0.92474  1.0000
  H   H2919     1.0  0.44363  0.15123  0.93962  1.0000
  C   C1624     1.0  0.51900  0.16755  0.87803  1.0000
  H   H2920     1.0  0.60545  0.22604  0.96878  1.0000
  H   H2921     1.0  0.56910  0.19752  0.90718  1.0000
  C   C1625     1.0  0.54351  0.08426  0.79430  1.0000
  H   H2922     1.0  0.49208  0.05856  0.85584  1.0000
  H   H2923     1.0  0.41242  0.28346  0.84079  1.0000
  C   C1626     1.0  0.42896  0.29480  0.84949  1.0000
  H   H2924     1.0  0.40318  0.28899  0.86176  1.0000
  H   H2925     1.0  0.51210  0.16323  0.87070  1.0000
  C   C1627     1.0  0.56417  0.28140  0.97847  1.0000
  H   H2926     1.0  0.54980  0.19767  0.95118  1.0000
  H   H2927     1.0  0.54400  0.34700  0.97391  1.0000
  H   H2928     1.0  0.40675  0.35308  0.95494  1.0000
  H   H2929     1.0  0.44013  0.29316  0.81492  1.0000
  H   H2930     1.0  0.49224  0.06086  0.83326  1.0000
  H   H2931     1.0  0.46035  0.30457  0.82568  1.0000
  H   H2932     1.0  0.42480  0.26458  0.87497  1.0000
  C   C1628     1.0  0.62142  0.29063  0.93737  1.0000
  H   H2933     1.0  0.53752  0.24421  0.93948  1.0000
  S   S380      1.0  0.48580  0.32661  0.95411  1.0000
  H   H2934     1.0  0.60999  0.29196  0.90030  1.0000
  C   C1629     1.0  0.50055  0.05844  0.84272  1.0000
  H   H2935     1.0  0.50934  0.04537  0.84297  1.0000
  H   H2936     1.0  0.59637  0.19348  0.88585  1.0000
  C   C1630     1.0  0.41536  0.28379  0.85311  1.0000
  H   H2937     1.0  0.44113  0.28785  0.84221  1.0000
  H   H2938     1.0  0.41663  0.32950  0.81637  1.0000
  N   N90       1.0  0.55978  0.21352  0.92624  1.0000
  C   C1631     1.0  0.57115  0.20949  0.90935  1.0000
  S   S381      1.0  0.63373  0.30068  0.94418  1.0000
  Fe  Fe193     1.0  0.58253  0.03745  0.78526  1.0000
  H   H2939     1.0  0.44055  0.28464  0.96505  1.0000
  C   C1632     1.0  0.55596  0.22422  0.86605  1.0000
  S   S382      1.0  0.63510  0.18147  0.97878  1.0000
  C   C1633     1.0  0.63351  0.20326  0.84318  1.0000
  H   H2940     1.0  0.49826  0.34122  0.83377  1.0000
  H   H2941     1.0  0.48349  0.18423  0.93825  1.0000
  C   C1634     1.0  0.56222  0.19801  0.94137  1.0000
  C   C1635     1.0  0.51529  0.33637  0.85154  1.0000
  C   C1636     1.0  0.42013  0.31555  0.82285  1.0000
  C   C1637     1.0  0.42208  0.26501  0.86226  1.0000
  C   C1638     1.0  0.61113  0.28754  0.91369  1.0000
  C   C1639     1.0  0.62060  0.29531  0.91982  1.0000
  C   C1640     1.0  0.44124  0.47156  0.95448  1.0000
  H   H2942     1.0  0.54374  0.15001  0.87248  1.0000
  C   C1641     1.0  0.42266  0.05296  0.73666  1.0000
  H   H2943     1.0  0.51706  0.13871  0.79573  1.0000
  C   C1642     1.0  0.53375  0.15286  0.88413  1.0000
  H   H2944     1.0  0.57825  0.34876  0.84179  1.0000
  H   H2945     1.0  0.50388  0.02804  0.79571  1.0000
  C   C1643     1.0  0.60025  0.20397  0.88893  1.0000
  H   H2946     1.0  0.44784  0.12038  0.79519  1.0000
  C   C1644     1.0  0.57626  0.07390  0.83211  1.0000
  H   H2947     1.0  0.63612  0.21624  0.93853  1.0000
  H   H2948     1.0  0.42067  0.04940  0.75108  1.0000
  H   H2949     1.0  0.53769  0.00077  0.74906  1.0000
  H   H2950     1.0  0.44101  0.22952  0.93321  1.0000
  H   H2951     1.0  0.51674  0.32336  0.83122  1.0000
  C   C1645     1.0  0.50676  0.33000  0.84089  1.0000
  H   H2952     1.0  0.52227  0.08395  0.78279  1.0000
  H   H2953     1.0  0.50190  0.08487  0.83952  1.0000
  H   H2954     1.0  0.59462  0.21757  0.90932  1.0000
  H   H2955     1.0  0.52357  0.13129  0.88510  1.0000
  H   H2956     1.0  0.45076  0.18938  0.96716  1.0000
  H   H2957     1.0  0.52509  0.10545  0.78080  1.0000
  H   H2958     1.0  0.36504  0.41263  0.97371  1.0000
  C   C1646     1.0  0.52701  0.13624  0.89471  1.0000
  H   H2959     1.0  0.59079  0.08048  0.88957  1.0000
  H   H2960     1.0  0.59571  0.19449  0.91652  1.0000
  H   H2961     1.0  0.53899  0.32611  0.97849  1.0000
  H   H2962     1.0  0.63691  0.09335  0.91229  1.0000
  C   C1647     1.0  0.37867  0.45857  0.90970  1.0000
  H   H2963     1.0  0.57633  0.22719  0.93133  1.0000
  H   H2964     1.0  0.49876  0.32078  0.84954  1.0000
  H   H2965     1.0  0.51371  0.10771  0.80826  1.0000
  H   H2966     1.0  0.42340  0.32162  0.78704  1.0000
  C   C1648     1.0  0.52131  0.07405  0.81857  1.0000
  H   H2967     1.0  0.52781  0.06070  0.81667  1.0000
  H   H2968     1.0  0.56484  0.23697  0.80933  1.0000
  H   H2969     1.0  0.39435  0.16094  0.82369  1.0000
  H   H2970     1.0  0.60957  0.12287  0.92710  1.0000
  H   H2971     1.0  0.56535  0.21356  0.87264  1.0000
  C   C1649     1.0  0.63140  0.16527  0.92547  1.0000
  S   S383      1.0  0.49546  0.04373  0.75688  1.0000
  C   C1650     1.0  0.62638  0.07376  0.94944  1.0000
  H   H2972     1.0  0.41568  0.17986  0.92346  1.0000
  C   C1651     1.0  0.55615  0.25125  0.94830  1.0000
  C   C1652     1.0  0.42850  0.30791  0.79333  1.0000
  H   H2973     1.0  0.65376  0.10089  0.81592  1.0000
  H   H2974     1.0  0.64828  0.05148  0.95168  1.0000
  H   H2975     1.0  0.51972  0.06872  0.84708  1.0000
  H   H2976     1.0  0.54920  0.11054  0.88228  1.0000
  H   H2977     1.0  0.56086  0.12481  0.88327  1.0000
  S   S384      1.0  0.58558  0.06372  0.76895  1.0000
  H   H2978     1.0  0.44477  0.15073  0.91016  1.0000
  C   C1653     1.0  0.39948  0.21352  0.96567  1.0000
  C   C1654     1.0  0.36555  0.46478  0.92518  1.0000
  H   H2979     1.0  0.56723  0.00446  0.78978  1.0000
  C   C1655     1.0  0.61971  0.09359  0.82886  1.0000
  C   C1656     1.0  0.51767  0.02281  0.79440  1.0000
  C   C1657     1.0  0.52757  0.03089  0.79967  1.0000
  H   H2980     1.0  0.60737  0.22390  0.79886  1.0000
  C   C1658     1.0  0.64031  0.22432  0.92548  1.0000
  H   H2981     1.0  0.57260  0.20793  0.95789  1.0000
  H   H2982     1.0  0.43942  0.30207  0.78378  1.0000
  C   C1659     1.0  0.52513  0.10341  0.81448  1.0000
  C   C1660     1.0  0.53195  0.09180  0.78057  1.0000
  C   C1661     1.0  0.52454  0.13570  0.80604  1.0000
  Fe  Fe194     1.0  0.60389  0.27018  0.88687  1.0000
  N   N91       1.0  0.53918  0.12207  0.90474  1.0000
  C   C1662     1.0  0.55404  0.11459  0.89158  1.0000
  H   H2983     1.0  0.59723  0.25984  0.95120  1.0000
  H   H2984     1.0  0.55671  0.13579  0.90794  1.0000
  H   H2985     1.0  0.53502  0.14132  0.91981  1.0000
  H   H2986     1.0  0.51174  0.10888  0.89992  1.0000
  S   S385      1.0  0.59425  0.26263  0.91586  1.0000
  H   H2987     1.0  0.54897  0.06300  0.82888  1.0000
  H   H2988     1.0  0.56121  0.35945  0.82965  1.0000
  C   C1663     1.0  0.63930  0.14858  0.78171  1.0000
  H   H2989     1.0  0.46573  0.16925  0.96517  1.0000
  H   H2990     1.0  0.40188  0.46177  0.93274  1.0000
  C   C1664     1.0  0.61412  0.10371  0.90127  1.0000
  C   C1665     1.0  0.47734  0.15607  0.80597  1.0000
  H   H2991     1.0  0.54698  0.21845  0.86265  1.0000
  C   C1666     1.0  0.57128  0.31080  0.96341  1.0000
  C   C1667     1.0  0.64451  0.12910  0.79043  1.0000
  H   H2992     1.0  0.42976  0.33027  0.95116  1.0000
  N   N92       1.0  0.53454  0.08516  0.81285  1.0000
  C   C1668     1.0  0.53608  0.11741  0.80733  1.0000
  C   C1669     1.0  0.54285  0.09164  0.76222  1.0000
  C   C1670     1.0  0.52166  0.09950  0.90675  1.0000
  H   H2993     1.0  0.51811  0.11482  0.92552  1.0000
  H   H2994     1.0  0.55442  0.09094  0.78968  1.0000
  C   C1671     1.0  0.54733  0.07742  0.82477  1.0000
  H   H2995     1.0  0.33801  0.47439  0.80223  1.0000
  H   H2996     1.0  0.37577  0.46554  0.86191  1.0000
  S   S386      1.0  0.63449  0.99299  0.76565  1.0000
  C   C1672     1.0  0.61153  0.10548  0.81596  1.0000
  H   H2997     1.0  0.45780  0.13350  0.80923  1.0000
  H   H2998     1.0  0.45181  0.30374  0.91801  1.0000
  C   C1673     1.0  0.52915  0.10868  0.91621  1.0000
  H   H2999     1.0  0.53196  0.09307  0.89721  1.0000
  H   H3000     1.0  0.57103  0.13025  0.93263  1.0000
  H   H3001     1.0  0.62487  0.23282  0.81268  1.0000
  H   H3002     1.0  0.40584  0.18265  0.95729  1.0000
  H   H3003     1.0  0.64951  0.08352  0.93925  1.0000
  H   H3004     1.0  0.41991  0.15857  0.97687  1.0000
  H   H3005     1.0  0.51327  0.22047  0.96266  1.0000
  H   H3006     1.0  0.63117  0.05773  0.81137  1.0000
  C   C1674     1.0  0.44939  0.23621  0.95296  1.0000
  C   C1675     1.0  0.40168  0.17026  0.81424  1.0000
  H   H3007     1.0  0.42218  0.16956  0.82679  1.0000
  C   C1676     1.0  0.55013  0.11854  0.93309  1.0000
  C   C1677     1.0  0.51292  0.08544  0.91968  1.0000
  H   H3008     1.0  0.50725  0.07945  0.91262  1.0000
  H   H3009     1.0  0.52249  0.07510  0.92633  1.0000
  C   C1678     1.0  0.41136  0.13410  0.84430  1.0000
  C   C1679     1.0  0.61820  0.08312  0.79930  1.0000
  H   H3010     1.0  0.61350  0.24953  0.79776  1.0000
  H   H3011     1.0  0.56976  0.08084  0.84278  1.0000
  S   S387      1.0  0.64712  0.16815  0.93450  1.0000
  S   S388      1.0  0.55758  0.03487  0.80451  1.0000
  C   C1680     1.0  0.61114  0.10037  0.80107  1.0000
  H   H3012     1.0  0.44779  0.19136  0.93499  1.0000
  H   H3013     1.0  0.62603  0.07297  0.93624  1.0000
  C   C1681     1.0  0.48568  0.23081  0.96871  1.0000
  H   H3014     1.0  0.61265  0.16208  0.94959  1.0000
  H   H3015     1.0  0.54969  0.07054  0.79358  1.0000
  C   C1682     1.0  0.55856  0.12773  0.94125  1.0000
  H   H3016     1.0  0.53718  0.09820  0.92444  1.0000
  H   H3017     1.0  0.58823  0.26320  0.79163  1.0000
  H   H3018     1.0  0.53818  0.11568  0.94262  1.0000
  H   H3019     1.0  0.57371  0.08578  0.87779  1.0000
  C   C1683     1.0  0.44482  0.25099  0.96276  1.0000
  H   H3020     1.0  0.62842  0.24021  0.95325  1.0000
  H   H3021     1.0  0.37306  0.45155  0.90363  1.0000
  C   C1684     1.0  0.33287  0.45128  0.97861  1.0000
  H   H3022     1.0  0.43335  0.10072  0.79015  1.0000
  S   S389      1.0  0.50662  0.15096  0.95359  1.0000
  C   C1685     1.0  0.56800  0.09930  0.89881  1.0000
  H   H3023     1.0  0.55914  0.10605  0.93128  1.0000
  H   H3024     1.0  0.56115  0.11946  0.95398  1.0000
  H   H3025     1.0  0.58712  0.10096  0.87420  1.0000
  H   H3026     1.0  0.50231  0.09110  0.92955  1.0000
  H   H3027     1.0  0.38464  0.34415  0.87178  1.0000
  H   H3028     1.0  0.45990  0.16986  0.93766  1.0000
  N   N93       1.0  0.43354  0.17254  0.95286  1.0000
  H   H3029     1.0  0.45632  0.30440  0.93805  1.0000
  C   C1686     1.0  0.42406  0.44715  0.91810  1.0000
  H   H3030     1.0  0.48098  0.19284  0.95690  1.0000
  C   C1687     1.0  0.43421  0.12067  0.80220  1.0000
  C   C1688     1.0  0.45827  0.15724  0.81497  1.0000
  C   C1689     1.0  0.58064  0.09118  0.88419  1.0000
  H   H3031     1.0  0.56222  0.08886  0.90839  1.0000
  H   H3032     1.0  0.57560  0.10409  0.90500  1.0000
  H   H3033     1.0  0.54978  0.14028  0.94355  1.0000
  H   H3034     1.0  0.43829  0.12306  0.83399  1.0000
  H   H3035     1.0  0.60891  0.21000  0.81945  1.0000
  C   C1690     1.0  0.57721  0.33994  0.95321  1.0000
  S   S390      1.0  0.60831  0.03026  0.79282  1.0000
  S   S391      1.0  0.62100  0.07813  0.77891  1.0000
  H   H3036     1.0  0.41790  0.19621  0.94014  1.0000
  C   C1691     1.0  0.61560  0.16205  0.93592  1.0000
  H   H3037     1.0  0.59755  0.18457  0.79421  1.0000
  S   S392      1.0  0.62430  0.04440  0.75107  1.0000
  H   H3038     1.0  0.57289  0.24193  0.85373  1.0000
  H   H3039     1.0  0.46862  0.20465  0.94036  1.0000
  C   C1692     1.0  0.62318  0.16186  0.90048  1.0000
  Fe  Fe195     1.0  0.37385  0.43184  0.85304  1.0000
  C   C1693     1.0  0.42241  0.99238  0.73766  1.0000
  C   C1694     1.0  0.43009  0.35679  0.96958  1.0000
  H   H3040     1.0  0.43551  0.42138  0.97409  1.0000
  C   C1695     1.0  0.43673  0.43207  0.97918  1.0000
  H   H3041     1.0  0.63274  0.11640  0.90320  1.0000
  C   C1696     1.0  0.45957  0.18191  0.95766  1.0000
  C   C1697     1.0  0.47400  0.19152  0.94766  1.0000
  H   H3042     1.0  0.57968  0.16852  0.96178  1.0000
  C   C1698     1.0  0.41219  0.12048  0.86136  1.0000
  C   C1699     1.0  0.64386  0.32953  0.86160  1.0000
  H   H3043     1.0  0.37652  0.36125  0.92544  1.0000
  H   H3044     1.0  0.61880  0.34463  0.95093  1.0000
  C   C1700     1.0  0.38053  0.47299  0.83388  1.0000
  H   H3045     1.0  0.44740  0.46387  0.94438  1.0000
  C   C1701     1.0  0.56543  0.23499  0.84967  1.0000
  C   C1702     1.0  0.45011  0.17904  0.94502  1.0000
  H   H3046     1.0  0.45164  0.15245  0.79321  1.0000
  C   C1703     1.0  0.59072  0.20584  0.80722  1.0000
  H   H3047     1.0  0.65048  0.09390  0.79030  1.0000
  C   C1704     1.0  0.62139  0.15290  0.77737  1.0000
  H   H3048     1.0  0.42193  0.15085  0.91680  1.0000
  S   S393      1.0  0.37386  0.45565  0.83101  1.0000
  H   H3049     1.0  0.61887  0.23214  0.90119  1.0000
  H   H3050     1.0  0.41812  0.10733  0.85868  1.0000
  H   H3051     1.0  0.57247  0.27009  0.76820  1.0000
  Fe  Fe196     1.0  0.61217  0.05592  0.77481  1.0000
  H   H3052     1.0  0.60072  0.36128  0.94442  1.0000
  H   H3053     1.0  0.61135  0.15016  0.78936  1.0000
  H   H3054     1.0  0.41990  0.12332  0.86901  1.0000
  N   N94       1.0  0.43090  0.14698  0.81543  1.0000
  Fe  Fe197     1.0  0.61776  0.01947  0.76859  1.0000
  H   H3055     1.0  0.47737  0.25285  0.98004  1.0000
  C   C1705     1.0  0.43180  0.16182  0.94141  1.0000
  C   C1706     1.0  0.55342  0.00965  0.79098  1.0000
  C   C1707     1.0  0.51995  0.34747  0.96820  1.0000
  H   H3056     1.0  0.42711  0.17458  0.80364  1.0000
  C   C1708     1.0  0.47271  0.24825  0.97092  1.0000
  C   C1709     1.0  0.59938  0.21827  0.81133  1.0000
  C   C1710     1.0  0.38561  0.47027  0.98379  1.0000
  H   H3057     1.0  0.33478  0.47793  0.97034  1.0000
  H   H3058     1.0  0.41598  0.36234  0.97329  1.0000
  C   C1711     1.0  0.44687  0.28094  0.97629  1.0000
  H   H3059     1.0  0.41603  0.48319  0.94827  1.0000
  H   H3060     1.0  0.63473  0.05553  0.97230  1.0000
  H   H3061     1.0  0.60579  0.09363  0.97530  1.0000
  H   H3062     1.0  0.65327  0.20629  0.90734  1.0000
  H   H3063     1.0  0.63250  0.06688  0.83733  1.0000
  H   H3064     1.0  0.45906  0.14487  0.96488  1.0000
  H   H3065     1.0  0.45318  0.35612  0.97814  1.0000
  H   H3066     1.0  0.55709  0.26259  0.93716  1.0000
  H   H3067     1.0  0.64407  0.22163  0.96099  1.0000
  H   H3068     1.0  0.43552  0.16782  0.97984  1.0000
  C   C1712     1.0  0.41609  0.45811  0.93180  1.0000
  C   C1713     1.0  0.41925  0.44574  0.98075  1.0000
  C   C1714     1.0  0.43910  0.36228  0.98048  1.0000
  H   H3069     1.0  0.42122  0.47009  0.92694  1.0000
  H   H3070     1.0  0.64722  0.16811  0.89952  1.0000
  C   C1715     1.0  0.63474  0.05564  0.95870  1.0000
  C   C1716     1.0  0.59419  0.22127  0.97785  1.0000
  C   C1717     1.0  0.44600  0.14326  0.97223  1.0000
  H   H3071     1.0  0.44756  0.43760  0.97027  1.0000
  Fe  Fe198     1.0  0.48951  0.31288  0.98109  1.0000
  C   C1718     1.0  0.34676  0.48338  0.79510  1.0000
  H   H3072     1.0  0.58661  0.13165  0.97486  1.0000
  H   H3073     1.0  0.64705  0.12719  0.95221  1.0000
  H   H3074     1.0  0.64460  0.12208  0.78065  1.0000
  N   N95       1.0  0.45369  0.24783  0.97760  1.0000
  C   C1719     1.0  0.36613  0.47703  0.98489  1.0000
  H   H3075     1.0  0.39084  0.48097  0.98453  1.0000
  C   C1720     1.0  0.40302  0.99683  0.73679  1.0000
  H   H3076     1.0  0.57404  0.02143  0.73581  1.0000
  H   H3077     1.0  0.64245  0.25902  0.96242  1.0000
  C   C1721     1.0  0.65424  0.11735  0.94435  1.0000
  S   S394      1.0  0.65430  0.24144  0.84652  1.0000
  H   H3078     1.0  0.64006  0.08514  0.96101  1.0000
  H   H3079     1.0  0.65009  0.25114  0.90357  1.0000
  H   H3080     1.0  0.38820  0.20731  0.97105  1.0000
  C   C1722     1.0  0.64383  0.24486  0.96799  1.0000
  H   H3081     1.0  0.44039  0.30745  0.97962  1.0000
  H   H3082     1.0  0.35961  0.47774  0.79870  1.0000
  H   H3083     1.0  0.32926  0.45833  0.94605  1.0000
  H   H3084     1.0  0.39886  0.22226  0.97407  1.0000
  H   H3085     1.0  0.41675  0.19255  0.97892  1.0000
  H   H3086     1.0  0.65677  0.23948  0.97138  1.0000
  S   S395      1.0  0.63296  0.31856  0.98276  1.0000
  C   C1723     1.0  0.53550  0.06586  0.73635  1.0000
  H   H3087     1.0  0.35092  0.48399  0.90736  1.0000
  N   N96       1.0  0.65704  0.22931  0.92419  1.0000
  C   C1724     1.0  0.65447  0.24016  0.93722  1.0000
  S   S396      1.0  0.62419  0.14513  0.98233  1.0000
  C   C1725     1.0  0.59148  0.11795  0.98135  1.0000
  H   H3088     1.0  0.65793  0.47815  0.82006  1.0000
  H   H3089     1.0  0.34854  0.48454  0.78091  1.0000
  H   H3090     1.0  0.51406  0.01968  0.73552  1.0000
  Fe  Fe199     1.0  0.46021  0.78516  0.02610  1.0000
  S   S397      1.0  0.47654  0.75840  0.02474  1.0000
  S   S398      1.0  0.44246  0.80283  0.00861  1.0000
  Fe  Fe200     1.0  0.47039  0.78610  0.05886  1.0000
  S   S399      1.0  0.48751  0.75940  0.06042  1.0000
  S   S400      1.0  0.46624  0.80034  0.08022  1.0000
  Fe  Fe201     1.0  0.49623  0.76786  0.03168  1.0000
  S   S401      1.0  0.52452  0.75968  0.02072  1.0000
  Fe  Fe202     1.0  0.46651  0.75187  0.05365  1.0000
  S   S402      1.0  0.46262  0.72510  0.06802  1.0000
  S   S403      1.0  0.48089  0.79530  0.03037  1.0000
  S   S404      1.0  0.44830  0.77783  0.05465  1.0000
  Fe  Fe203     1.0  0.59179  0.80121  0.01920  1.0000
  S   S405      1.0  0.61706  0.79225  0.02782  1.0000
  S   S406      1.0  0.56659  0.80289  0.03879  1.0000
  C   C1726     1.0  0.63687  0.83621  0.03167  1.0000
  C   C1727     1.0  0.63401  0.83793  0.18140  1.0000
  Fe  Fe204     1.0  0.62593  0.77837  0.00590  1.0000
  S   S407      1.0  0.64134  0.75069  0.00805  1.0000
  Fe  Fe205     1.0  0.62416  0.81539  0.00747  1.0000
  S   S408      1.0  0.39085  0.54592  0.01304  1.0000
  S   S409      1.0  0.47498  0.95015  0.22575  1.0000
  S   S410      1.0  0.59809  0.82543  0.00040  1.0000
  C   C1728     1.0  0.48440  0.97864  0.10654  1.0000
  H   H3091     1.0  0.63293  0.56582  0.99649  1.0000
  H   H3092     1.0  0.59308  0.88717  0.02329  1.0000
  Fe  Fe206     1.0  0.59579  0.67934  0.01259  1.0000
  S   S411      1.0  0.57361  0.66983  0.01047  1.0000
  S   S412      1.0  0.58835  0.70253  0.02451  1.0000
  Fe  Fe207     1.0  0.58911  0.64334  0.02016  1.0000
  S   S413      1.0  0.57889  0.62172  0.04016  1.0000
  H   H3093     1.0  0.40128  0.69667  0.08104  1.0000
  S   S414      1.0  0.60998  0.65301  0.02475  1.0000
  C   C1729     1.0  0.42788  0.98560  0.15676  1.0000
  Fe  Fe208     1.0  0.45064  0.66139  0.02846  1.0000
  S   S415      1.0  0.45368  0.63804  0.05051  1.0000
  S   S416      1.0  0.43252  0.68736  0.02957  1.0000
  Fe  Fe209     1.0  0.47898  0.64433  0.00281  1.0000
  S   S417      1.0  0.48539  0.61952  0.02247  1.0000
  H   H3094     1.0  0.61634  0.96646  0.08147  1.0000
  Fe  Fe210     1.0  0.45653  0.62245  0.03098  1.0000
  S   S418      1.0  0.44674  0.59783  0.03749  1.0000
  Fe  Fe211     1.0  0.48213  0.63687  0.04040  1.0000
  S   S419      1.0  0.49755  0.63220  0.06064  1.0000
  S   S420      1.0  0.45036  0.64602  0.00999  1.0000
  S   S421      1.0  0.47891  0.66134  0.01983  1.0000
  H   H3095     1.0  0.53742  0.73224  0.07421  1.0000
  H   H3096     1.0  0.55938  0.80313  0.99500  1.0000
  C   C1730     1.0  0.60247  0.88142  0.03198  1.0000
  H   H3097     1.0  0.62349  0.88998  0.01165  1.0000
  S   S422      1.0  0.58729  0.88183  0.14470  1.0000
  H   H3098     1.0  0.64419  0.61170  0.07480  1.0000
  H   H3099     1.0  0.45598  0.72297  0.99745  1.0000
  Fe  Fe212     1.0  0.49208  0.88155  0.08791  1.0000
  S   S423      1.0  0.51923  0.88430  0.08478  1.0000
  S   S424      1.0  0.48869  0.87174  0.06600  1.0000
  Fe  Fe213     1.0  0.47994  0.89443  0.12166  1.0000
  S   S425      1.0  0.50619  0.89751  0.12124  1.0000
  Fe  Fe214     1.0  0.50710  0.90958  0.09300  1.0000
  S   S426      1.0  0.51841  0.93347  0.08212  1.0000
  Fe  Fe215     1.0  0.51590  0.87203  0.11322  1.0000
  S   S427      1.0  0.53785  0.85042  0.12165  1.0000
  S   S428      1.0  0.48008  0.90818  0.09362  1.0000
  S   S429      1.0  0.48949  0.86763  0.11610  1.0000
  C   C1731     1.0  0.36652  0.64508  0.05918  1.0000
  C   C1732     1.0  0.53506  0.94852  0.20055  1.0000
  C   C1733     1.0  0.50535  0.95082  0.09158  1.0000
  C   C1734     1.0  0.48872  0.94987  0.10145  1.0000
  C   C1735     1.0  0.47816  0.96387  0.10862  1.0000
  H   H3100     1.0  0.42150  0.75063  0.99422  1.0000
  H   H3101     1.0  0.58614  0.95027  0.19970  1.0000
  C   C1736     1.0  0.51149  0.96578  0.08915  1.0000
  H   H3102     1.0  0.48384  0.93843  0.10339  1.0000
  H   H3103     1.0  0.46519  0.96312  0.11594  1.0000
  H   H3104     1.0  0.64752  0.85908  0.02265  1.0000
  H   H3105     1.0  0.52418  0.96672  0.08120  1.0000
  H   H3106     1.0  0.65339  0.85966  0.18337  1.0000
  H   H3107     1.0  0.64286  0.95873  0.20455  1.0000
  H   H3108     1.0  0.52230  0.58808  0.01337  1.0000
  H   H3109     1.0  0.40220  0.67485  0.09411  1.0000
  C   C1737     1.0  0.57371  0.87262  0.13870  1.0000
  C   C1738     1.0  0.55583  0.87922  0.14233  1.0000
  C   C1739     1.0  0.54476  0.87208  0.13754  1.0000
  C   C1740     1.0  0.55156  0.85840  0.12895  1.0000
  C   C1741     1.0  0.56947  0.85161  0.12550  1.0000
  C   C1742     1.0  0.58058  0.85887  0.13018  1.0000
  H   H3110     1.0  0.55062  0.89035  0.14817  1.0000
  H   H3111     1.0  0.53095  0.87720  0.14048  1.0000
  H   H3112     1.0  0.57482  0.84104  0.11883  1.0000
  H   H3113     1.0  0.59445  0.85380  0.12721  1.0000
  H   H3114     1.0  0.62432  0.70620  0.05209  1.0000
  H   H3115     1.0  0.64165  0.64402  0.06471  1.0000
  C   C1743     1.0  0.59330  0.88289  0.05086  1.0000
  H   H3116     1.0  0.39215  0.50284  0.01865  1.0000
  C   C1744     1.0  0.39301  0.66023  0.02349  1.0000
  C   C1745     1.0  0.42810  0.59729  0.03121  1.0000
  C   C1746     1.0  0.41832  0.61223  0.02222  1.0000
  C   C1747     1.0  0.40281  0.61159  0.01857  1.0000
  C   C1748     1.0  0.39729  0.59592  0.02338  1.0000
  C   C1749     1.0  0.40748  0.58082  0.03167  1.0000
  C   C1750     1.0  0.42277  0.58155  0.03570  1.0000
  H   H3117     1.0  0.42254  0.62432  0.01840  1.0000
  H   H3118     1.0  0.40328  0.56870  0.03551  1.0000
  H   H3119     1.0  0.43034  0.56992  0.04260  1.0000
  H   H3120     1.0  0.41842  0.81681  0.98678  1.0000
  H   H3121     1.0  0.46233  0.57508  0.99033  1.0000
  S   S430      1.0  0.34894  0.56475  0.01793  1.0000
  H   H3122     1.0  0.48622  0.87439  0.15440  1.0000
  H   H3123     1.0  0.64211  0.82260  0.15288  1.0000
  C   C1751     1.0  0.64287  0.85688  0.19487  1.0000
  H   H3124     1.0  0.57239  0.97253  0.12112  1.0000
  H   H3125     1.0  0.56727  0.85277  0.04260  1.0000
  H   H3126     1.0  0.54858  0.95517  0.13782  1.0000
  H   H3127     1.0  0.60007  0.85060  0.06879  1.0000
  H   H3128     1.0  0.63705  0.61617  0.01960  1.0000
  S   S431      1.0  0.60323  0.63904  0.99374  1.0000
  H   H3129     1.0  0.48946  0.91886  0.15768  1.0000
  H   H3130     1.0  0.65454  0.82953  0.20569  1.0000
  C   C1752     1.0  0.55631  0.62438  0.04486  1.0000
  C   C1753     1.0  0.54845  0.61447  0.06031  1.0000
  C   C1754     1.0  0.53040  0.61695  0.06492  1.0000
  C   C1755     1.0  0.52012  0.62888  0.05380  1.0000
  C   C1756     1.0  0.52793  0.63861  0.03809  1.0000
  C   C1757     1.0  0.54606  0.63653  0.03378  1.0000
  H   H3131     1.0  0.55631  0.60516  0.06898  1.0000
  H   H3132     1.0  0.52438  0.60954  0.07712  1.0000
  H   H3133     1.0  0.51994  0.64810  0.02967  1.0000
  H   H3134     1.0  0.55216  0.64434  0.02201  1.0000
  C   C1758     1.0  0.55499  0.88447  0.23333  1.0000
  C   C1759     1.0  0.62696  0.73691  0.01276  1.0000
  C   C1760     1.0  0.63205  0.72154  0.00666  1.0000
  C   C1761     1.0  0.62022  0.71094  0.01001  1.0000
  C   C1762     1.0  0.60341  0.71559  0.01967  1.0000
  C   C1763     1.0  0.59852  0.73072  0.02605  1.0000
  C   C1764     1.0  0.61022  0.74139  0.02254  1.0000
  Fe  Fe216     1.0  0.63060  0.90319  0.09264  1.0000
  H   H3135     1.0  0.62398  0.69930  0.00501  1.0000
  H   H3136     1.0  0.58564  0.73420  0.03379  1.0000
  H   H3137     1.0  0.60636  0.75301  0.02760  1.0000
  C   C1765     1.0  0.47241  0.82025  0.07601  1.0000
  C   C1766     1.0  0.46648  0.83018  0.08872  1.0000
  C   C1767     1.0  0.47157  0.84587  0.08593  1.0000
  C   C1768     1.0  0.48238  0.85189  0.07023  1.0000
  C   C1769     1.0  0.48808  0.84208  0.05740  1.0000
  C   C1770     1.0  0.48343  0.82613  0.06044  1.0000
  H   H3138     1.0  0.45786  0.82574  0.10076  1.0000
  H   H3139     1.0  0.46687  0.85346  0.09579  1.0000
  H   H3140     1.0  0.49648  0.84665  0.04524  1.0000
  H   H3141     1.0  0.48858  0.81817  0.05096  1.0000
  C   C1771     1.0  0.45372  0.71486  0.05758  1.0000
  C   C1772     1.0  0.45806  0.69672  0.06039  1.0000
  C   C1773     1.0  0.45174  0.68829  0.05161  1.0000
  C   C1774     1.0  0.44039  0.69794  0.04058  1.0000
  C   C1775     1.0  0.43549  0.71605  0.03825  1.0000
  C   C1776     1.0  0.44240  0.72453  0.04653  1.0000
  H   H3142     1.0  0.46652  0.68917  0.06920  1.0000
  H   H3143     1.0  0.45543  0.67428  0.05366  1.0000
  H   H3144     1.0  0.42651  0.72349  0.02993  1.0000
  H   H3145     1.0  0.43873  0.73850  0.04475  1.0000
  C   C1777     1.0  0.53590  0.77038  0.02801  1.0000
  C   C1778     1.0  0.52728  0.78513  0.03473  1.0000
  C   C1779     1.0  0.53668  0.79480  0.03865  1.0000
  C   C1780     1.0  0.55473  0.78967  0.03591  1.0000
  C   C1781     1.0  0.56327  0.77438  0.03014  1.0000
  C   C1782     1.0  0.55386  0.76470  0.02624  1.0000
  H   H3146     1.0  0.51343  0.78941  0.03654  1.0000
  H   H3147     1.0  0.53001  0.80655  0.04322  1.0000
  H   H3148     1.0  0.57714  0.77006  0.02860  1.0000
  H   H3149     1.0  0.56056  0.75311  0.02140  1.0000
  H   H3150     1.0  0.50179  0.94990  0.19569  1.0000
  H   H3151     1.0  0.51325  0.87367  0.21091  1.0000
  H   H3152     1.0  0.53996  0.87361  0.03590  1.0000
  H   H3153     1.0  0.41521  0.66270  0.00180  1.0000
  H   H3154     1.0  0.42004  0.77857  0.00948  1.0000
  C   C1783     1.0  0.39740  0.67877  0.06816  1.0000
  H   H3155     1.0  0.58841  0.96997  0.10210  1.0000
  C   C1784     1.0  0.64484  0.55891  0.01832  1.0000
  H   H3156     1.0  0.54932  0.77875  0.99268  1.0000
  H   H3157     1.0  0.57456  0.90285  0.07423  1.0000
  H   H3158     1.0  0.59510  0.58635  0.00286  1.0000
  H   H3159     1.0  0.41853  0.83170  0.06056  1.0000
  S   S432      1.0  0.59998  0.78543  0.99887  1.0000
  H   H3160     1.0  0.39956  0.68291  0.00371  1.0000
  H   H3161     1.0  0.60676  0.69624  0.05373  1.0000
  C   C1785     1.0  0.63779  0.94423  0.08094  1.0000
  H   H3162     1.0  0.45584  0.98275  0.21135  1.0000
  H   H3163     1.0  0.43133  0.53207  0.99806  1.0000
  H   H3164     1.0  0.51335  0.96158  0.12822  1.0000
  C   C1786     1.0  0.52175  0.96073  0.13710  1.0000
  H   H3165     1.0  0.50127  0.93240  0.13959  1.0000
  H   H3166     1.0  0.41809  0.86788  0.98714  1.0000
  H   H3167     1.0  0.55283  0.88758  0.01950  1.0000
  H   H3168     1.0  0.63755  0.57085  0.02310  1.0000
  C   C1787     1.0  0.44095  0.75637  0.00380  1.0000
  C   C1788     1.0  0.56076  0.96099  0.19176  1.0000
  H   H3169     1.0  0.57932  0.98217  0.19736  1.0000
  H   H3170     1.0  0.57382  0.93891  0.12685  1.0000
  C   C1789     1.0  0.58885  0.85316  0.06260  1.0000
  H   H3171     1.0  0.42736  0.82021  0.04319  1.0000
  C   C1790     1.0  0.59858  0.83359  0.23283  1.0000
  N   N97       1.0  0.56281  0.96865  0.10070  1.0000
  H   H3172     1.0  0.64369  0.68699  0.03424  1.0000
  H   H3173     1.0  0.58506  0.60626  0.01010  1.0000
  H   H3174     1.0  0.60161  0.93064  0.13633  1.0000
  H   H3175     1.0  0.52011  0.82161  0.00338  1.0000
  C   C1791     1.0  0.43373  0.95589  0.18489  1.0000
  C   C1792     1.0  0.44159  0.84898  0.99293  1.0000
  C   C1793     1.0  0.54509  0.97195  0.11243  1.0000
  C   C1794     1.0  0.34695  0.65222  0.06352  1.0000
  H   H3176     1.0  0.64921  0.65565  0.01704  1.0000
  H   H3177     1.0  0.46831  0.89377  0.02762  1.0000
  Fe  Fe217     1.0  0.65092  0.87631  0.11763  1.0000
  C   C1795     1.0  0.49071  0.97347  0.22980  1.0000
  H   H3178     1.0  0.42351  0.96744  0.18761  1.0000
  C   C1796     1.0  0.56287  0.93376  0.18399  1.0000
  C   C1797     1.0  0.40393  0.63425  0.05671  1.0000
  C   C1798     1.0  0.36853  0.49413  0.03139  1.0000
  C   C1799     1.0  0.58065  0.95911  0.18857  1.0000
  N   N98       1.0  0.39595  0.65336  0.05577  1.0000
  C   C1800     1.0  0.40251  0.62240  0.07533  1.0000
  H   H3179     1.0  0.64992  0.77497  0.07051  1.0000
  C   C1801     1.0  0.40496  0.60334  0.07511  1.0000
  H   H3180     1.0  0.39831  0.62900  0.04899  1.0000
  H   H3181     1.0  0.61393  0.86614  0.16872  1.0000
  H   H3182     1.0  0.55472  0.86205  0.17854  1.0000
  H   H3183     1.0  0.40855  0.95209  0.21570  1.0000
  H   H3184     1.0  0.51934  0.95008  0.14868  1.0000
  H   H3185     1.0  0.63533  0.64313  0.04596  1.0000
  H   H3186     1.0  0.41280  0.62318  0.08131  1.0000
  H   H3187     1.0  0.38981  0.62644  0.08390  1.0000
  H   H3188     1.0  0.44786  0.88995  0.01169  1.0000
  C   C1802     1.0  0.57261  0.87594  0.07810  1.0000
  C   C1803     1.0  0.45204  0.58633  0.98583  1.0000
  C   C1804     1.0  0.57693  0.96506  0.11068  1.0000
  C   C1805     1.0  0.46734  0.69411  0.98672  1.0000
  H   H3189     1.0  0.41822  0.59838  0.06801  1.0000
  H   H3190     1.0  0.40330  0.59539  0.08865  1.0000
  H   H3191     1.0  0.39533  0.60171  0.06881  1.0000
  H   H3192     1.0  0.63893  0.94453  0.11974  1.0000
  H   H3193     1.0  0.60055  0.85610  0.20036  1.0000
  H   H3194     1.0  0.62235  0.66793  0.06742  1.0000
  N   N99       1.0  0.51848  0.80537  0.10438  1.0000
  C   C1806     1.0  0.52466  0.78842  0.09845  1.0000
  C   C1807     1.0  0.52974  0.80624  0.11587  1.0000
  C   C1808     1.0  0.50029  0.80582  0.11514  1.0000
  C   C1809     1.0  0.51788  0.82090  0.08924  1.0000
  C   C1810     1.0  0.53523  0.82223  0.07614  1.0000
  C   C1811     1.0  0.51424  0.78573  0.08660  1.0000
  C   C1812     1.0  0.49185  0.82159  0.12379  1.0000
  C   C1813     1.0  0.54915  0.79682  0.11212  1.0000
  C   C1814     1.0  0.55971  0.80227  0.12153  1.0000
  C   C1815     1.0  0.53268  0.83700  0.06022  1.0000
  C   C1816     1.0  0.52262  0.76876  0.08054  1.0000
  C   C1817     1.0  0.47469  0.81933  0.13638  1.0000
  H   H3195     1.0  0.52464  0.77730  0.11001  1.0000
  H   H3196     1.0  0.53828  0.78672  0.09113  1.0000
  H   H3197     1.0  0.52905  0.82005  0.11557  1.0000
  H   H3198     1.0  0.52475  0.80038  0.12978  1.0000
  H   H3199     1.0  0.50002  0.79372  0.12559  1.0000
  H   H3200     1.0  0.49130  0.80610  0.10705  1.0000
  H   H3201     1.0  0.50803  0.82142  0.08207  1.0000
  H   H3202     1.0  0.51344  0.83321  0.09390  1.0000
  H   H3203     1.0  0.54139  0.81016  0.07135  1.0000
  H   H3204     1.0  0.54414  0.82508  0.08240  1.0000
  H   H3205     1.0  0.50080  0.78495  0.09363  1.0000
  H   H3206     1.0  0.51375  0.79639  0.07477  1.0000
  H   H3207     1.0  0.48901  0.83356  0.11368  1.0000
  H   H3208     1.0  0.50031  0.82358  0.13119  1.0000
  H   H3209     1.0  0.55037  0.78254  0.11672  1.0000
  H   H3210     1.0  0.55514  0.79948  0.09810  1.0000
  H   H3211     1.0  0.56002  0.81622  0.11625  1.0000
  H   H3212     1.0  0.57326  0.79452  0.11949  1.0000
  H   H3213     1.0  0.52424  0.83456  0.05313  1.0000
  H   H3214     1.0  0.52692  0.84966  0.06407  1.0000
  H   H3215     1.0  0.54538  0.83760  0.05119  1.0000
  H   H3216     1.0  0.53608  0.76883  0.07299  1.0000
  H   H3217     1.0  0.52277  0.75747  0.09185  1.0000
  H   H3218     1.0  0.51505  0.76730  0.07195  1.0000
  H   H3219     1.0  0.46864  0.83113  0.14177  1.0000
  H   H3220     1.0  0.46559  0.81754  0.12957  1.0000
  H   H3221     1.0  0.47687  0.80795  0.14735  1.0000
  C   C1818     1.0  0.52768  0.95409  0.18376  1.0000
  C   C1819     1.0  0.65532  0.93793  0.08159  1.0000
  C   C1820     1.0  0.56408  0.98490  0.08643  1.0000
  C   C1821     1.0  0.44613  0.97327  0.15615  1.0000
  H   H3222     1.0  0.53489  0.97575  0.10464  1.0000
  H   H3223     1.0  0.42011  0.67979  0.07638  1.0000
  H   H3224     1.0  0.41527  0.66022  0.03278  1.0000
  H   H3225     1.0  0.60849  0.86780  0.03100  1.0000
  H   H3226     1.0  0.47545  0.87094  0.00899  1.0000
  H   H3227     1.0  0.64156  0.84195  0.22173  1.0000
  S   S433      1.0  0.63466  0.84055  0.08667  1.0000
  H   H3228     1.0  0.64150  0.95070  0.17810  1.0000
  H   H3229     1.0  0.59936  0.97501  0.18292  1.0000
  H   H3230     1.0  0.61705  0.88836  0.19198  1.0000
  H   H3231     1.0  0.54329  0.98312  0.11830  1.0000
  C   C1822     1.0  0.45068  0.88033  0.02376  1.0000
  C   C1823     1.0  0.58887  0.60026  0.99866  1.0000
  H   H3232     1.0  0.51820  0.97312  0.14144  1.0000
  C   C1824     1.0  0.56534  0.87684  0.05056  1.0000
  N   N100      1.0  0.45001  0.96098  0.17305  1.0000
  H   H3233     1.0  0.41802  0.97795  0.15888  1.0000
  S   S434      1.0  0.62895  0.89927  0.12115  1.0000
  C   C1825     1.0  0.46230  0.94457  0.16859  1.0000
  C   C1826     1.0  0.45872  0.96895  0.18182  1.0000
  C   C1827     1.0  0.53427  0.61558  0.98837  1.0000
  H   H3234     1.0  0.45334  0.87068  0.98944  1.0000
  C   C1828     1.0  0.47986  0.94682  0.15599  1.0000
  H   H3235     1.0  0.65285  0.97410  0.15535  1.0000
  H   H3236     1.0  0.63915  0.75966  0.06831  1.0000
  S   S435      1.0  0.63753  0.83455  0.01054  1.0000
  C   C1829     1.0  0.64596  0.93189  0.12651  1.0000
  H   H3237     1.0  0.53045  0.72921  0.99378  1.0000
  H   H3238     1.0  0.45717  0.68792  0.99628  1.0000
  S   S436      1.0  0.65394  0.88124  0.08860  1.0000
  H   H3239     1.0  0.45576  0.93804  0.16284  1.0000
  H   H3240     1.0  0.46586  0.93504  0.18042  1.0000
  H   H3241     1.0  0.46303  0.95943  0.19333  1.0000
  H   H3242     1.0  0.47091  0.97204  0.17303  1.0000
  H   H3243     1.0  0.57715  0.98325  0.07767  1.0000
  H   H3244     1.0  0.45640  0.61249  0.99963  1.0000
  H   H3245     1.0  0.47124  0.85793  0.03041  1.0000
  H   H3246     1.0  0.48887  0.94785  0.16337  1.0000
  H   H3247     1.0  0.47850  0.95861  0.14535  1.0000
  N   N101      1.0  0.46080  0.85175  0.01198  1.0000
  S   S437      1.0  0.62585  0.93112  0.07768  1.0000
  H   H3248     1.0  0.56379  0.84498  0.07231  1.0000
  C   C1830     1.0  0.43048  0.82744  0.05110  1.0000
  H   H3249     1.0  0.45586  0.98149  0.15046  1.0000
  H   H3250     1.0  0.63330  0.87287  0.16562  1.0000
  H   H3251     1.0  0.61109  0.90579  0.02437  1.0000
  H   H3252     1.0  0.60345  0.87979  0.05866  1.0000
  H   H3253     1.0  0.55242  0.95632  0.08696  1.0000
  H   H3254     1.0  0.39505  0.64628  0.02398  1.0000
  S   S438      1.0  0.48063  0.86926  0.21647  1.0000
  C   C1831     1.0  0.64977  0.61076  0.06104  1.0000
  H   H3255     1.0  0.37071  0.67077  0.05658  1.0000
  H   H3256     1.0  0.56236  0.86862  0.08546  1.0000
  C   C1832     1.0  0.40577  0.68268  0.08072  1.0000
  H   H3257     1.0  0.59433  0.93286  0.06120  1.0000
  C   C1833     1.0  0.50805  0.96063  0.18748  1.0000
  H   H3258     1.0  0.53278  0.61516  0.00243  1.0000
  C   C1834     1.0  0.45438  0.83767  0.02666  1.0000
  S   S439      1.0  0.49628  0.90056  0.23316  1.0000
  C   C1835     1.0  0.42644  0.76567  0.01644  1.0000
  N   N102      1.0  0.57993  0.87213  0.06015  1.0000
  C   C1836     1.0  0.43762  0.53640  0.00599  1.0000
  H   H3259     1.0  0.43591  0.86845  0.00749  1.0000
  Fe  Fe218     1.0  0.64560  0.90202  0.21465  1.0000
  H   H3260     1.0  0.42695  0.85167  0.03255  1.0000
  H   H3261     1.0  0.44661  0.74357  0.01132  1.0000
  C   C1837     1.0  0.55587  0.94373  0.22901  1.0000
  H   H3262     1.0  0.55691  0.75040  0.99295  1.0000
  H   H3263     1.0  0.41660  0.75775  0.02312  1.0000
  H   H3264     1.0  0.43192  0.76776  0.02646  1.0000
  H   H3265     1.0  0.39695  0.67744  0.03618  1.0000
  C   C1838     1.0  0.61140  0.88585  0.18241  1.0000
  C   C1839     1.0  0.61241  0.83290  0.21604  1.0000
  N   N103      1.0  0.51612  0.69304  0.05674  1.0000
  C   C1840     1.0  0.50595  0.68795  0.07508  1.0000
  C   C1841     1.0  0.52060  0.71044  0.05377  1.0000
  C   C1842     1.0  0.50441  0.69501  0.04460  1.0000
  C   C1843     1.0  0.53219  0.67927  0.05254  1.0000
  C   C1844     1.0  0.54555  0.67480  0.06418  1.0000
  C   C1845     1.0  0.50145  0.66979  0.08023  1.0000
  C   C1846     1.0  0.51099  0.70267  0.02504  1.0000
  C   C1847     1.0  0.52520  0.71450  0.06916  1.0000
  C   C1848     1.0  0.55876  0.65788  0.06212  1.0000
  C   C1849     1.0  0.49019  0.66667  0.09857  1.0000
  H   H3266     1.0  0.52088  0.64549  0.99768  1.0000
  H   H3267     1.0  0.49363  0.69792  0.07726  1.0000
  H   H3268     1.0  0.51283  0.68790  0.08496  1.0000
  H   H3269     1.0  0.53150  0.71204  0.04227  1.0000
  H   H3270     1.0  0.50947  0.72132  0.05043  1.0000
  H   H3271     1.0  0.49161  0.70356  0.04871  1.0000
  H   H3272     1.0  0.50179  0.68229  0.04522  1.0000
  H   H3273     1.0  0.52864  0.66711  0.05277  1.0000
  H   H3274     1.0  0.53938  0.68331  0.03899  1.0000
  H   H3275     1.0  0.53933  0.67316  0.07818  1.0000
  H   H3276     1.0  0.55282  0.68528  0.06031  1.0000
  H   H3277     1.0  0.49418  0.66838  0.07136  1.0000
  H   H3278     1.0  0.51342  0.65930  0.08012  1.0000
  H   H3279     1.0  0.52273  0.69368  0.01951  1.0000
  H   H3280     1.0  0.51402  0.71548  0.02302  1.0000
  H   H3281     1.0  0.51310  0.71803  0.07884  1.0000
  H   H3282     1.0  0.53387  0.70340  0.07600  1.0000
  H   H3283     1.0  0.56875  0.65562  0.06977  1.0000
  H   H3284     1.0  0.55228  0.64677  0.06703  1.0000
  H   H3285     1.0  0.56535  0.65843  0.04829  1.0000
  H   H3286     1.0  0.48717  0.65364  0.10187  1.0000
  H   H3287     1.0  0.49710  0.66713  0.10828  1.0000
  H   H3288     1.0  0.47779  0.67661  0.09928  1.0000
  H   H3289     1.0  0.54559  0.70845  0.99732  1.0000
  H   H3290     1.0  0.52160  0.62321  0.98507  1.0000
  H   H3291     1.0  0.54432  0.72436  0.00913  1.0000
  C   C1850     1.0  0.56420  0.95412  0.09219  1.0000
  C   C1851     1.0  0.64271  0.84974  0.03393  1.0000
  C   C1852     1.0  0.46536  0.86475  0.01888  1.0000
  Fe  Fe219     1.0  0.63447  0.86463  0.09491  1.0000
  H   H3292     1.0  0.42816  0.94933  0.17822  1.0000
  H   H3293     1.0  0.59187  0.95259  0.08004  1.0000
  H   H3294     1.0  0.49929  0.90313  0.19331  1.0000
  Fe  Fe220     1.0  0.35220  0.56827  0.98919  1.0000
  S   S440      1.0  0.64412  0.92073  0.23049  1.0000
  C   C1853     1.0  0.54354  0.72257  0.99643  1.0000
  H   H3295     1.0  0.54987  0.91151  0.09688  1.0000
  H   H3296     1.0  0.51582  0.87946  0.17952  1.0000
  H   H3297     1.0  0.58738  0.95398  0.17673  1.0000
  H   H3298     1.0  0.60904  0.82531  0.20866  1.0000
  H   H3299     1.0  0.56448  0.94150  0.10176  1.0000
  H   H3300     1.0  0.58288  0.87135  0.08594  1.0000
  C   C1854     1.0  0.56747  0.86657  0.03653  1.0000
  C   C1855     1.0  0.55981  0.93359  0.21458  1.0000
  H   H3301     1.0  0.51673  0.67647  0.99579  1.0000
  H   H3302     1.0  0.57759  0.96187  0.06504  1.0000
  C   C1856     1.0  0.53950  0.84834  0.22228  1.0000
  H   H3303     1.0  0.58604  0.92335  0.08356  1.0000
  H   H3304     1.0  0.50235  0.71038  0.00062  1.0000
  C   C1857     1.0  0.64829  0.96581  0.19144  1.0000
  C   C1858     1.0  0.65354  0.95380  0.17879  1.0000
  C   C1859     1.0  0.51280  0.90352  0.18606  1.0000
  C   C1860     1.0  0.55548  0.89752  0.09700  1.0000
  H   H3305     1.0  0.36930  0.63188  0.06763  1.0000
  H   H3306     1.0  0.41841  0.65710  0.06199  1.0000
  H   H3307     1.0  0.40060  0.68780  0.05548  1.0000
  H   H3308     1.0  0.57145  0.93322  0.06851  1.0000
  H   H3309     1.0  0.40192  0.65179  0.08047  1.0000
  H   H3310     1.0  0.41985  0.93149  0.22661  1.0000
  H   H3311     1.0  0.44023  0.95022  0.21068  1.0000
  S   S441      1.0  0.58856  0.88714  0.22566  1.0000
  H   H3312     1.0  0.54808  0.58816  0.98816  1.0000
  H   H3313     1.0  0.51871  0.90969  0.19270  1.0000
  H   H3314     1.0  0.55296  0.87495  0.05987  1.0000
  C   C1861     1.0  0.43562  0.94392  0.20304  1.0000
  H   H3315     1.0  0.44152  0.55981  0.00936  1.0000
  C   C1862     1.0  0.61530  0.96865  0.23244  1.0000
  H   H3316     1.0  0.54734  0.83477  0.22380  1.0000
  S   S442      1.0  0.61134  0.88705  0.09621  1.0000
  C   C1863     1.0  0.65709  0.76895  0.04482  1.0000
  C   C1864     1.0  0.57997  0.95164  0.07688  1.0000
  H   H3317     1.0  0.58025  0.98578  0.17425  1.0000
  C   C1865     1.0  0.40119  0.66876  0.00503  1.0000
  H   H3318     1.0  0.43847  0.87649  0.03127  1.0000
  H   H3319     1.0  0.51429  0.84072  0.23304  1.0000
  H   H3320     1.0  0.56449  0.59408  0.00197  1.0000
  H   H3321     1.0  0.56285  0.89097  0.04428  1.0000
  H   H3322     1.0  0.55468  0.90106  0.07021  1.0000
  H   H3323     1.0  0.37005  0.64352  0.04561  1.0000
  H   H3324     1.0  0.47540  0.59489  0.99823  1.0000
  H   H3325     1.0  0.65013  0.92276  0.11770  1.0000
  H   H3326     1.0  0.39505  0.62323  0.01194  1.0000
  H   H3327     1.0  0.46411  0.83115  0.03488  1.0000
  S   S443      1.0  0.62033  0.91569  0.20676  1.0000
  C   C1866     1.0  0.44783  0.86088  0.00049  1.0000
  H   H3328     1.0  0.53568  0.88647  0.17565  1.0000
  H   H3329     1.0  0.50415  0.97163  0.19405  1.0000
  H   H3330     1.0  0.55408  0.80015  0.13573  1.0000
  H   H3331     1.0  0.59462  0.84944  0.04989  1.0000
  C   C1867     1.0  0.53414  0.72977  0.06300  1.0000
  H   H3332     1.0  0.41800  0.63224  0.05047  1.0000
  H   H3333     1.0  0.37890  0.66616  0.02565  1.0000
  H   H3334     1.0  0.65139  0.58759  0.99475  1.0000
  H   H3335     1.0  0.53060  0.94297  0.17753  1.0000
  H   H3336     1.0  0.62303  0.83628  0.17699  1.0000
  C   C1868     1.0  0.58440  0.82224  0.07017  1.0000
  N   N104      1.0  0.62816  0.85355  0.18949  1.0000
  H   H3337     1.0  0.52545  0.74168  0.05712  1.0000
  H   H3338     1.0  0.54633  0.72692  0.05321  1.0000
  C   C1869     1.0  0.56438  0.89531  0.07858  1.0000
  H   H3339     1.0  0.52748  0.83110  0.16201  1.0000
  H   H3340     1.0  0.58465  0.82277  0.05640  1.0000
  C   C1870     1.0  0.47460  0.87931  0.19630  1.0000
  H   H3341     1.0  0.54684  0.85572  0.22601  1.0000
  H   H3342     1.0  0.61235  0.85985  0.21360  1.0000
  H   H3343     1.0  0.62881  0.67459  0.03528  1.0000
  H   H3344     1.0  0.57272  0.77370  0.98936  1.0000
  H   H3345     1.0  0.41781  0.58974  0.99129  1.0000
  C   C1871     1.0  0.64663  0.64335  0.05081  1.0000
  Fe  Fe221     1.0  0.37424  0.57307  0.01149  1.0000
  C   C1872     1.0  0.52332  0.88516  0.18484  1.0000
  C   C1873     1.0  0.54085  0.95686  0.12804  1.0000
  C   C1874     1.0  0.57734  0.84033  0.07413  1.0000
  H   H3346     1.0  0.44469  0.93129  0.20191  1.0000
  C   C1875     1.0  0.58418  0.94578  0.11909  1.0000
  H   H3347     1.0  0.44754  0.96592  0.14611  1.0000
  C   C1876     1.0  0.40409  0.65942  0.06681  1.0000
  C   C1877     1.0  0.62980  0.96143  0.08227  1.0000
  H   H3348     1.0  0.63770  0.82574  0.19098  1.0000
  C   C1878     1.0  0.53154  0.65189  0.98960  1.0000
  C   C1879     1.0  0.63916  0.97215  0.08468  1.0000
  H   H3349     1.0  0.62621  0.81374  0.04471  1.0000
  S   S444      1.0  0.35608  0.51465  0.03480  1.0000
  C   C1880     1.0  0.43728  0.84327  0.03942  1.0000
  H   H3350     1.0  0.43644  0.72115  0.99416  1.0000
  H   H3351     1.0  0.65314  0.54958  0.99493  1.0000
  N   N105      1.0  0.55464  0.94418  0.19772  1.0000
  H   H3352     1.0  0.55685  0.96865  0.17933  1.0000
  H   H3353     1.0  0.45255  0.84062  0.98566  1.0000
  C   C1881     1.0  0.63089  0.82407  0.04626  1.0000
  H   H3354     1.0  0.56501  0.89261  0.10555  1.0000
  H   H3355     1.0  0.58734  0.89696  0.04962  1.0000
  H   H3356     1.0  0.48327  0.98308  0.22098  1.0000
  H   H3357     1.0  0.45797  0.88066  0.04732  1.0000
  C   C1882     1.0  0.47711  0.84314  0.00079  1.0000
  H   H3358     1.0  0.48041  0.85216  0.98797  1.0000
  H   H3359     1.0  0.63259  0.78241  0.05875  1.0000
  C   C1883     1.0  0.61761  0.69555  0.05967  1.0000
  H   H3360     1.0  0.52248  0.57555  0.99846  1.0000
  H   H3361     1.0  0.57602  0.81338  0.07863  1.0000
  H   H3362     1.0  0.44026  0.81857  0.05852  1.0000
  C   C1884     1.0  0.52636  0.87404  0.20285  1.0000
  H   H3363     1.0  0.61206  0.69756  0.07311  1.0000
  H   H3364     1.0  0.49424  0.86119  0.18303  1.0000
  H   H3365     1.0  0.65673  0.81031  0.16738  1.0000
  C   C1885     1.0  0.40089  0.66321  0.03720  1.0000
  H   H3366     1.0  0.62665  0.81565  0.07420  1.0000
  H   H3367     1.0  0.52946  0.93741  0.20920  1.0000
  S   S445      1.0  0.37715  0.59590  0.01979  1.0000
  Fe  Fe222     1.0  0.36569  0.53800  0.01696  1.0000
  H   H3368     1.0  0.58869  0.95070  0.14213  1.0000
  H   H3369     1.0  0.60690  0.95097  0.12369  1.0000
  H   H3370     1.0  0.64728  0.90487  0.17288  1.0000
  H   H3371     1.0  0.42122  0.56191  0.00381  1.0000
  H   H3372     1.0  0.59847  0.60670  0.98841  1.0000
  Fe  Fe223     1.0  0.61759  0.93253  0.22486  1.0000
  C   C1886     1.0  0.62210  0.86923  0.17578  1.0000
  C   C1887     1.0  0.64197  0.85146  0.05074  1.0000
  C   C1888     1.0  0.65667  0.57622  0.98853  1.0000
  S   S446      1.0  0.65150  0.63972  0.98857  1.0000
  H   H3373     1.0  0.48547  0.71526  0.01910  1.0000
  C   C1889     1.0  0.63099  0.82528  0.06295  1.0000
  H   H3374     1.0  0.50346  0.96528  0.17507  1.0000
  H   H3375     1.0  0.44295  0.58937  0.99798  1.0000
  C   C1890     1.0  0.53544  0.59698  0.98653  1.0000
  H   H3376     1.0  0.56023  0.94154  0.17106  1.0000
  N   N106      1.0  0.53751  0.85587  0.20361  1.0000
  S   S447      1.0  0.60738  0.96131  0.21874  1.0000
  H   H3377     1.0  0.37321  0.65595  0.07665  1.0000
  C   C1891     1.0  0.37651  0.65703  0.06230  1.0000
  S   S448      1.0  0.45884  0.90301  0.14370  1.0000
  H   H3378     1.0  0.57715  0.93079  0.18210  1.0000
  H   H3379     1.0  0.56677  0.90621  0.19652  1.0000
  C   C1892     1.0  0.55820  0.91585  0.18816  1.0000
  H   H3380     1.0  0.43404  0.84057  0.00358  1.0000
  H   H3381     1.0  0.63286  0.98535  0.08585  1.0000
  C   C1893     1.0  0.59605  0.94452  0.13106  1.0000
  H   H3382     1.0  0.57371  0.91110  0.16300  1.0000
  H   H3383     1.0  0.64497  0.71811  0.99899  1.0000
  C   C1894     1.0  0.38610  0.49183  0.02327  1.0000
  H   H3384     1.0  0.51066  0.83380  0.18106  1.0000
  H   H3385     1.0  0.34260  0.65345  0.07729  1.0000
  H   H3386     1.0  0.55420  0.86604  0.01723  1.0000
  H   H3387     1.0  0.55061  0.91714  0.16424  1.0000
  Fe  Fe224     1.0  0.61183  0.88136  0.12443  1.0000
  C   C1895     1.0  0.56094  0.90961  0.17155  1.0000
  H   H3388     1.0  0.63825  0.97746  0.18733  1.0000
  H   H3389     1.0  0.54757  0.83917  0.17413  1.0000
  H   H3390     1.0  0.54465  0.91602  0.19528  1.0000
  H   H3391     1.0  0.38315  0.68194  0.07297  1.0000
  H   H3392     1.0  0.53340  0.96453  0.17428  1.0000
  H   H3393     1.0  0.59764  0.81676  0.07270  1.0000
  H   H3394     1.0  0.62639  0.88709  0.03338  1.0000
  N   N107      1.0  0.65383  0.65909  0.04046  1.0000
  H   H3395     1.0  0.54483  0.89048  0.10227  1.0000
  H   H3396     1.0  0.43964  0.85018  0.04810  1.0000
  H   H3397     1.0  0.56063  0.89567  0.17491  1.0000
  H   H3398     1.0  0.57982  0.86664  0.02688  1.0000
  H   H3399     1.0  0.62299  0.90494  0.16151  1.0000
  C   C1896     1.0  0.48822  0.93119  0.14762  1.0000
  C   C1897     1.0  0.47909  0.87985  0.16554  1.0000
  C   C1898     1.0  0.52490  0.83062  0.17617  1.0000
  C   C1899     1.0  0.61014  0.90196  0.16756  1.0000
  C   C1900     1.0  0.61305  0.85147  0.20479  1.0000
  H   H3400     1.0  0.52909  0.85631  0.17068  1.0000
  C   C1901     1.0  0.53347  0.84355  0.17902  1.0000
  H   H3401     1.0  0.53190  0.88154  0.20852  1.0000
  C   C1902     1.0  0.46499  0.89400  0.16389  1.0000
  H   H3402     1.0  0.33235  0.54439  0.99165  1.0000
  H   H3403     1.0  0.53028  0.81720  0.18292  1.0000
  C   C1903     1.0  0.58439  0.84007  0.17860  1.0000
  H   H3404     1.0  0.48019  0.93056  0.13898  1.0000
  H   H3405     1.0  0.51474  0.84819  0.20261  1.0000
  H   H3406     1.0  0.56378  0.82840  0.19567  1.0000
  H   H3407     1.0  0.60459  0.90012  0.15751  1.0000
  C   C1904     1.0  0.58308  0.93415  0.07230  1.0000
  C   C1905     1.0  0.63013  0.67778  0.06023  1.0000
  C   C1906     1.0  0.50848  0.82588  0.99750  1.0000
  H   H3408     1.0  0.44577  0.90112  0.03716  1.0000
  H   H3409     1.0  0.56030  0.86670  0.19571  1.0000
  H   H3410     1.0  0.58001  0.84073  0.16670  1.0000
  H   H3411     1.0  0.59462  0.82804  0.18081  1.0000
  C   C1907     1.0  0.56923  0.83972  0.19429  1.0000
  C   C1908     1.0  0.45607  0.88951  0.03459  1.0000
  H   H3412     1.0  0.62491  0.82571  0.21971  1.0000
  C   C1909     1.0  0.43399  0.75491  0.98868  1.0000
  H   H3413     1.0  0.54343  0.94446  0.12401  1.0000
  H   H3414     1.0  0.34016  0.64322  0.06160  1.0000
  H   H3415     1.0  0.57697  0.83909  0.08809  1.0000
  C   C1910     1.0  0.65347  0.82263  0.15771  1.0000
  C   C1911     1.0  0.64630  0.56211  0.99873  1.0000
  C   C1912     1.0  0.44489  0.80295  0.98655  1.0000
  H   H3416     1.0  0.49129  0.82874  0.02183  1.0000
  H   H3417     1.0  0.45341  0.89888  0.20586  1.0000
  H   H3418     1.0  0.51238  0.91168  0.17278  1.0000
  H   H3419     1.0  0.60186  0.91330  0.17271  1.0000
  S   S449      1.0  0.36713  0.54110  0.98865  1.0000
  C   C1913     1.0  0.48365  0.87237  0.18177  1.0000
  H   H3420     1.0  0.59199  0.93860  0.10888  1.0000
  C   C1914     1.0  0.61672  0.89171  0.02498  1.0000
  C   C1915     1.0  0.52910  0.84437  0.19854  1.0000
  C   C1916     1.0  0.55528  0.85700  0.19250  1.0000
  H   H3421     1.0  0.53259  0.83066  0.20585  1.0000
  C   C1917     1.0  0.50110  0.97961  0.09681  1.0000
  H   H3422     1.0  0.47503  0.83159  0.99778  1.0000
  C   C1918     1.0  0.44901  0.72478  0.98702  1.0000
  Fe  Fe225     1.0  0.60866  0.89792  0.23082  1.0000
  C   C1919     1.0  0.41821  0.93993  0.21365  1.0000
  H   H3423     1.0  0.58995  0.85149  0.17645  1.0000
  H   H3424     1.0  0.45100  0.76417  0.99859  1.0000
  H   H3425     1.0  0.44460  0.91160  0.17733  1.0000
  C   C1920     1.0  0.63610  0.83918  0.06529  1.0000
  H   H3426     1.0  0.45298  0.82718  0.02141  1.0000
  H   H3427     1.0  0.39486  0.66694  0.99551  1.0000
  H   H3428     1.0  0.45159  0.52991  0.00407  1.0000
  H   H3429     1.0  0.55757  0.62473  0.99990  1.0000
  H   H3430     1.0  0.43148  0.53237  0.01993  1.0000
  S   S450      1.0  0.63347  0.85795  0.12366  1.0000
  C   C1921     1.0  0.45573  0.90087  0.17848  1.0000
  H   H3431     1.0  0.34330  0.66513  0.05481  1.0000
  H   H3432     1.0  0.57441  0.83759  0.20609  1.0000
  H   H3433     1.0  0.49334  0.69314  0.01636  1.0000
  C   C1922     1.0  0.49372  0.83680  0.00852  1.0000
  H   H3434     1.0  0.57011  0.72265  0.98543  1.0000
  C   C1923     1.0  0.49716  0.70552  0.01466  1.0000
  C   C1924     1.0  0.46071  0.89372  0.19461  1.0000
  C   C1925     1.0  0.55268  0.87396  0.02672  1.0000
  Fe  Fe226     1.0  0.62300  0.65085  0.99735  1.0000
  H   H3435     1.0  0.52932  0.95915  0.20773  1.0000
  H   H3436     1.0  0.59794  0.88447  0.18875  1.0000
  C   C1926     1.0  0.43530  0.55615  0.00092  1.0000
  H   H3437     1.0  0.63709  0.92656  0.13847  1.0000
  H   H3438     1.0  0.58569  0.84077  0.22991  1.0000
  H   H3439     1.0  0.64615  0.86209  0.05246  1.0000
  S   S451      1.0  0.63550  0.80068  0.98610  1.0000
  H   H3440     1.0  0.54066  0.65074  0.99778  1.0000
  H   H3441     1.0  0.63864  0.86885  0.20004  1.0000
  S   S452      1.0  0.61065  0.67830  0.98540  1.0000
  H   H3442     1.0  0.56565  0.95161  0.22626  1.0000
  H   H3443     1.0  0.63782  0.54838  0.02527  1.0000
  C   C1927     1.0  0.48945  0.95613  0.23395  1.0000
  H   H3444     1.0  0.55322  0.92250  0.21995  1.0000
  H   H3445     1.0  0.65059  0.58735  0.03600  1.0000
  H   H3446     1.0  0.55422  0.96946  0.20120  1.0000
  H   H3447     1.0  0.57388  0.92727  0.21246  1.0000
  H   H3448     1.0  0.64641  0.95706  0.14015  1.0000
  C   C1928     1.0  0.63909  0.67494  0.04161  1.0000
  H   H3449     1.0  0.49844  0.84796  0.00909  1.0000
  C   C1929     1.0  0.65669  0.94557  0.14429  1.0000
  H   H3450     1.0  0.50824  0.59673  0.99785  1.0000
  C   C1930     1.0  0.46770  0.60645  0.99061  1.0000
  C   C1931     1.0  0.65070  0.61064  0.01551  1.0000
  H   H3451     1.0  0.65031  0.93765  0.15649  1.0000
  H   H3452     1.0  0.47611  0.69629  0.99365  1.0000
  H   H3453     1.0  0.43481  0.98493  0.19472  1.0000
  H   H3454     1.0  0.55740  0.88365  0.21992  1.0000
  H   H3455     1.0  0.41325  0.93296  0.20691  1.0000
  C   C1932     1.0  0.58507  0.97666  0.18560  1.0000
  H   H3456     1.0  0.65078  0.76469  0.03686  1.0000
  H   H3457     1.0  0.54297  0.95263  0.22972  1.0000
  H   H3458     1.0  0.63980  0.67701  0.06773  1.0000
  H   H3459     1.0  0.64922  0.89491  0.14606  1.0000
  C   C1933     1.0  0.52124  0.58889  0.99991  1.0000
  H   H3460     1.0  0.50476  0.81407  0.99705  1.0000
  H   H3461     1.0  0.64739  0.85008  0.15533  1.0000
  C   C1934     1.0  0.65676  0.96590  0.08509  1.0000
  C   C1935     1.0  0.65090  0.84241  0.20902  1.0000
  H   H3462     1.0  0.47395  0.74294  0.99174  1.0000
  C   C1936     1.0  0.56296  0.62094  0.98716  1.0000
  H   H3463     1.0  0.65332  0.68406  0.00507  1.0000
  C   C1937     1.0  0.64389  0.77173  0.06159  1.0000
  C   C1938     1.0  0.64974  0.83828  0.16575  1.0000
  H   H3464     1.0  0.63918  0.61134  0.05474  1.0000
  H   H3465     1.0  0.65196  0.79556  0.03021  1.0000
  C   C1939     1.0  0.57299  0.60179  0.99162  1.0000
  H   H3466     1.0  0.65791  0.55484  0.02147  1.0000
  H   H3467     1.0  0.35005  0.93769  0.42669  1.0000
  Fe  Fe227     1.0  0.49197  0.89114  0.26212  1.0000
  H   H3468     1.0  0.33318  0.98359  0.47327  1.0000
  S   S453      1.0  0.51490  0.88256  0.27521  1.0000
  Fe  Fe228     1.0  0.45240  0.89998  0.26643  1.0000
  C   C1940     1.0  0.33228  0.83571  0.41243  1.0000
  S   S454      1.0  0.42444  0.90551  0.28066  1.0000
  S   S455      1.0  0.63437  0.89964  0.28033  1.0000
  H   H3469     1.0  0.54613  0.92394  0.25053  1.0000
  H   H3470     1.0  0.64322  0.90206  0.31095  1.0000
  H   H3471     1.0  0.41174  0.97818  0.47124  1.0000
  S   S456      1.0  0.47285  0.87537  0.26392  1.0000
  S   S457      1.0  0.47110  0.91448  0.26776  1.0000
  Fe  Fe229     1.0  0.37172  0.88890  0.37319  1.0000
  S   S458      1.0  0.35100  0.90044  0.35761  1.0000
  S   S459      1.0  0.40060  0.88431  0.36241  1.0000
  Fe  Fe230     1.0  0.34557  0.88149  0.40748  1.0000
  H   H3472     1.0  0.41272  0.98302  0.28709  1.0000
  C   C1941     1.0  0.64675  0.95413  0.38044  1.0000
  Fe  Fe231     1.0  0.33887  0.87827  0.37397  1.0000
  H   H3473     1.0  0.64412  0.95115  0.30595  1.0000
  Fe  Fe232     1.0  0.33678  0.91345  0.37974  1.0000
  C   C1942     1.0  0.34570  0.81983  0.47407  1.0000
  S   S460      1.0  0.36073  0.86569  0.38794  1.0000
  S   S461      1.0  0.35842  0.90365  0.39418  1.0000
  H   H3474     1.0  0.65208  0.97512  0.38728  1.0000
  H   H3475     1.0  0.57854  0.98445  0.23707  1.0000
  H   H3476     1.0  0.35104  0.90421  0.32081  1.0000
  C   C1943     1.0  0.41471  0.96099  0.38932  1.0000
  H   H3477     1.0  0.38367  0.92999  0.45550  1.0000
  C   C1944     1.0  0.62899  0.97936  0.25437  1.0000
  H   H3478     1.0  0.60835  0.96078  0.29253  1.0000
  H   H3479     1.0  0.36199  0.86356  0.46348  1.0000
  C   C1945     1.0  0.62806  0.96207  0.25757  1.0000
  H   H3480     1.0  0.47598  0.97435  0.29557  1.0000
  H   H3481     1.0  0.56377  0.96998  0.24565  1.0000
  H   H3482     1.0  0.41023  0.94160  0.41259  1.0000
  H   H3483     1.0  0.33204  0.84365  0.39901  1.0000
  C   C1946     1.0  0.35678  0.94580  0.36579  1.0000
  C   C1947     1.0  0.36963  0.95493  0.36297  1.0000
  C   C1948     1.0  0.36508  0.97224  0.36438  1.0000
  H   H3484     1.0  0.63250  0.95881  0.38431  1.0000
  C   C1949     1.0  0.56828  0.88625  0.23987  1.0000
  H   H3485     1.0  0.36046  0.93239  0.36479  1.0000
  H   H3486     1.0  0.38311  0.94841  0.36026  1.0000
  C   C1950     1.0  0.38328  0.92584  0.42377  1.0000
  Fe  Fe233     1.0  0.47418  0.92259  0.23886  1.0000
  C   C1951     1.0  0.41874  0.90089  0.30346  1.0000
  C   C1952     1.0  0.40157  0.90713  0.31146  1.0000
  C   C1953     1.0  0.39606  0.90252  0.32959  1.0000
  C   C1954     1.0  0.40758  0.89128  0.33979  1.0000
  C   C1955     1.0  0.42489  0.88534  0.33183  1.0000
  C   C1956     1.0  0.43050  0.89019  0.31367  1.0000
  H   H3487     1.0  0.39245  0.91546  0.30359  1.0000
  H   H3488     1.0  0.38287  0.90759  0.33563  1.0000
  H   H3489     1.0  0.43390  0.87678  0.33971  1.0000
  H   H3490     1.0  0.44376  0.88528  0.30755  1.0000
  C   C1957     1.0  0.32654  0.96450  0.41581  1.0000
  C   C1958     1.0  0.51039  0.94862  0.25226  1.0000
  H   H3491     1.0  0.35705  0.82320  0.47606  1.0000
  C   C1959     1.0  0.51122  0.96606  0.24856  1.0000
  H   H3492     1.0  0.41632  0.94850  0.25938  1.0000
  H   H3493     1.0  0.40878  0.97439  0.38310  1.0000
  H   H3494     1.0  0.49008  0.95689  0.28588  1.0000
  H   H3495     1.0  0.65037  0.97916  0.36495  1.0000
  H   H3496     1.0  0.51374  0.83822  0.26401  1.0000
  H   H3497     1.0  0.55192  0.95991  0.32564  1.0000
  C   C1960     1.0  0.60073  0.95097  0.29445  1.0000
  C   C1961     1.0  0.62100  0.95679  0.24681  1.0000
  H   H3498     1.0  0.65218  0.90111  0.46307  1.0000
  H   H3499     1.0  0.37434  0.91815  0.43368  1.0000
  H   H3500     1.0  0.58607  0.98222  0.31644  1.0000
  C   C1962     1.0  0.52909  0.98002  0.32762  1.0000
  H   H3501     1.0  0.47138  0.97729  0.34795  1.0000
  H   H3502     1.0  0.33174  0.92558  0.45090  1.0000
  S   S462      1.0  0.60409  0.91602  0.24829  1.0000
  H   H3503     1.0  0.34442  0.83581  0.41581  1.0000
  C   C1963     1.0  0.54877  0.88573  0.26822  1.0000
  C   C1964     1.0  0.53535  0.88431  0.26152  1.0000
  H   H3504     1.0  0.32599  0.95700  0.40673  1.0000
  C   C1965     1.0  0.65562  0.96933  0.37574  1.0000
  H   H3505     1.0  0.54642  0.88608  0.28179  1.0000
  H   H3506     1.0  0.32562  0.93608  0.33492  1.0000
  H   H3507     1.0  0.60804  0.93696  0.31928  1.0000
  H   H3508     1.0  0.40152  0.96824  0.30285  1.0000
  H   H3509     1.0  0.40409  0.92353  0.35069  1.0000
  H   H3510     1.0  0.41785  0.94534  0.28986  1.0000
  H   H3511     1.0  0.43341  0.95588  0.24202  1.0000
  H   H3512     1.0  0.41888  0.93483  0.35297  1.0000
  C   C1966     1.0  0.49961  0.94365  0.24487  1.0000
  C   C1967     1.0  0.54857  0.97424  0.32084  1.0000
  C   C1968     1.0  0.43003  0.94814  0.31733  1.0000
  C   C1969     1.0  0.37105  0.95170  0.43710  1.0000
  H   H3513     1.0  0.35838  0.94946  0.44563  1.0000
  H   H3514     1.0  0.38563  0.95193  0.39327  1.0000
  H   H3515     1.0  0.39483  0.92291  0.42944  1.0000
  H   H3516     1.0  0.54595  0.97222  0.29641  1.0000
  H   H3517     1.0  0.36980  0.96606  0.43366  1.0000
  N   N108      1.0  0.38818  0.85545  0.32104  1.0000
  C   C1970     1.0  0.37391  0.87102  0.32465  1.0000
  C   C1971     1.0  0.39639  0.84750  0.33672  1.0000
  C   C1972     1.0  0.40196  0.86195  0.30604  1.0000
  C   C1973     1.0  0.38194  0.84216  0.31624  1.0000
  C   C1974     1.0  0.36296  0.84033  0.32469  1.0000
  C   C1975     1.0  0.36649  0.88283  0.30866  1.0000
  C   C1976     1.0  0.41890  0.84832  0.30140  1.0000
  C   C1977     1.0  0.38468  0.84004  0.35390  1.0000
  C   C1978     1.0  0.39409  0.83442  0.36899  1.0000
  C   C1979     1.0  0.35935  0.82470  0.32089  1.0000
  C   C1980     1.0  0.34921  0.89508  0.31411  1.0000
  C   C1981     1.0  0.43031  0.85558  0.28421  1.0000
  H   H3518     1.0  0.37857  0.87939  0.33007  1.0000
  H   H3519     1.0  0.36298  0.86711  0.33503  1.0000
  H   H3520     1.0  0.40741  0.83640  0.33428  1.0000
  H   H3521     1.0  0.40193  0.85726  0.33925  1.0000
  H   H3522     1.0  0.40575  0.87270  0.30874  1.0000
  H   H3523     1.0  0.39680  0.86757  0.29393  1.0000
  H   H3524     1.0  0.38284  0.84511  0.30191  1.0000
  H   H3525     1.0  0.39066  0.82910  0.31926  1.0000
  H   H3526     1.0  0.35361  0.85203  0.31943  1.0000
  H   H3527     1.0  0.35998  0.83875  0.33897  1.0000
  H   H3528     1.0  0.37566  0.89102  0.30031  1.0000
  H   H3529     1.0  0.36453  0.87499  0.30064  1.0000
  H   H3530     1.0  0.41604  0.83638  0.30020  1.0000
  H   H3531     1.0  0.42671  0.84481  0.31152  1.0000
  H   H3532     1.0  0.37262  0.84968  0.35740  1.0000
  H   H3533     1.0  0.38137  0.82830  0.35277  1.0000
  H   H3534     1.0  0.39757  0.84573  0.37098  1.0000
  H   H3535     1.0  0.38549  0.82902  0.38117  1.0000
  H   H3536     1.0  0.40607  0.82428  0.36643  1.0000
  H   H3537     1.0  0.33046  0.90589  0.43345  1.0000
  H   H3538     1.0  0.36157  0.82597  0.30663  1.0000
  H   H3539     1.0  0.36779  0.81245  0.32665  1.0000
  H   H3540     1.0  0.33956  0.88764  0.32292  1.0000
  H   H3541     1.0  0.34401  0.90283  0.30240  1.0000
  H   H3542     1.0  0.33379  0.84655  0.46688  1.0000
  H   H3543     1.0  0.43409  0.86716  0.28515  1.0000
  H   H3544     1.0  0.44233  0.84561  0.28120  1.0000
  H   H3545     1.0  0.42342  0.85928  0.27332  1.0000
  H   H3546     1.0  0.34561  0.82400  0.32674  1.0000
  H   H3547     1.0  0.36646  0.95299  0.47158  1.0000
  H   H3548     1.0  0.42546  0.97238  0.26484  1.0000
  H   H3549     1.0  0.53328  0.82457  0.25441  1.0000
  H   H3550     1.0  0.34342  0.80753  0.48330  1.0000
  C   C1982     1.0  0.58139  0.95776  0.30220  1.0000
  C   C1983     1.0  0.55635  0.93146  0.24683  1.0000
  H   H3551     1.0  0.62261  0.93013  0.30039  1.0000
  C   C1984     1.0  0.65511  0.90012  0.30129  1.0000
  C   C1985     1.0  0.35047  0.81659  0.45569  1.0000
  N   N109      1.0  0.37459  0.94497  0.42075  1.0000
  H   H3552     1.0  0.41210  0.97861  0.32579  1.0000
  C   C1986     1.0  0.37980  0.95340  0.46386  1.0000
  C   C1987     1.0  0.34523  0.96520  0.41455  1.0000
  H   H3553     1.0  0.38898  0.94704  0.47270  1.0000
  H   H3554     1.0  0.35303  0.82854  0.44585  1.0000
  H   H3555     1.0  0.36241  0.80613  0.45435  1.0000
  C   C1988     1.0  0.50158  0.97842  0.23713  1.0000
  H   H3556     1.0  0.33989  0.81245  0.45306  1.0000
  H   H3557     1.0  0.42773  0.96086  0.39090  1.0000
  S   S463      1.0  0.34448  0.86908  0.43583  1.0000
  Fe  Fe234     1.0  0.47592  0.88649  0.23507  1.0000
  H   H3558     1.0  0.38361  0.89281  0.42031  1.0000
  H   H3559     1.0  0.52177  0.97367  0.32264  1.0000
  C   C1989     1.0  0.33467  0.97154  0.37067  1.0000
  H   H3560     1.0  0.65254  0.87325  0.47103  1.0000
  N   N110      1.0  0.57243  0.97474  0.29201  1.0000
  C   C1990     1.0  0.56518  0.88685  0.25738  1.0000
  H   H3561     1.0  0.57009  0.95981  0.27510  1.0000
  H   H3562     1.0  0.57542  0.88804  0.26261  1.0000
  H   H3563     1.0  0.42687  0.91712  0.34174  1.0000
  C   C1991     1.0  0.53859  0.88370  0.24404  1.0000
  C   C1992     1.0  0.43019  0.94971  0.28690  1.0000
  H   H3564     1.0  0.34492  0.97199  0.42455  1.0000
  S   S464      1.0  0.52430  0.97232  0.25824  1.0000
  H   H3565     1.0  0.56909  0.92223  0.24664  1.0000
  H   H3566     1.0  0.39977  0.89294  0.40037  1.0000
  H   H3567     1.0  0.35892  0.94284  0.40416  1.0000
  H   H3568     1.0  0.46459  0.94721  0.30507  1.0000
  H   H3569     1.0  0.60211  0.92387  0.30826  1.0000
  H   H3570     1.0  0.46481  0.94818  0.28284  1.0000
  C   C1993     1.0  0.41606  0.92842  0.34412  1.0000
  C   C1994     1.0  0.56533  0.98323  0.24453  1.0000
  H   H3571     1.0  0.52606  0.97632  0.34207  1.0000
  H   H3572     1.0  0.57452  0.94737  0.30363  1.0000
  H   H3573     1.0  0.40277  0.96355  0.41561  1.0000
  H   H3574     1.0  0.34984  0.97326  0.40167  1.0000
  H   H3575     1.0  0.55412  0.93903  0.25682  1.0000
  C   C1995     1.0  0.57368  0.97222  0.27406  1.0000
  S   S465      1.0  0.45421  0.90971  0.23758  1.0000
  C   C1996     1.0  0.34605  0.88340  0.44740  1.0000
  H   H3576     1.0  0.40233  0.95209  0.33022  1.0000
  H   H3577     1.0  0.40989  0.93469  0.31885  1.0000
  H   H3578     1.0  0.39762  0.94427  0.44209  1.0000
  H   H3579     1.0  0.55537  0.98015  0.32677  1.0000
  C   C1997     1.0  0.43016  0.94922  0.25594  1.0000
  H   H3580     1.0  0.44028  0.93739  0.28842  1.0000
  H   H3581     1.0  0.58075  0.95852  0.31565  1.0000
  C   C1998     1.0  0.33045  0.98196  0.46135  1.0000
  C   C1999     1.0  0.43367  0.95911  0.26732  1.0000
  H   H3582     1.0  0.58726  0.97102  0.26644  1.0000
  H   H3583     1.0  0.43831  0.93588  0.25769  1.0000
  C   C2000     1.0  0.60875  0.93448  0.30643  1.0000
  C   C2001     1.0  0.52616  0.83824  0.25427  1.0000
  H   H3584     1.0  0.37817  0.96963  0.40343  1.0000
  H   H3585     1.0  0.38080  0.96716  0.45844  1.0000
  H   H3586     1.0  0.63261  0.95271  0.26855  1.0000
  H   H3587     1.0  0.65386  0.95359  0.32210  1.0000
  Fe  Fe235     1.0  0.63096  0.90282  0.25292  1.0000
  C   C2002     1.0  0.46286  0.95614  0.29237  1.0000
  C   C2003     1.0  0.47727  0.96617  0.28639  1.0000
  H   H3588     1.0  0.47691  0.97455  0.27318  1.0000
  H   H3589     1.0  0.60199  0.84023  0.24109  1.0000
  C   C2004     1.0  0.39501  0.89817  0.41235  1.0000
  C   C2005     1.0  0.33773  0.90096  0.44370  1.0000
  H   H3590     1.0  0.33231  0.82210  0.41279  1.0000
  N   N111      1.0  0.42948  0.96018  0.29963  1.0000
  C   C2006     1.0  0.44471  0.96869  0.29422  1.0000
  C   C2007     1.0  0.34797  0.90585  0.46675  1.0000
  H   H3591     1.0  0.44078  0.93644  0.31621  1.0000
  C   C2008     1.0  0.65452  0.89883  0.28471  1.0000
  C   C2009     1.0  0.40347  0.95490  0.40709  1.0000
  H   H3592     1.0  0.43313  0.95442  0.32614  1.0000
  H   H3593     1.0  0.44742  0.96015  0.26273  1.0000
  H   H3594     1.0  0.38029  0.92177  0.39918  1.0000
  C   C2010     1.0  0.41341  0.94132  0.32697  1.0000
  S   S466      1.0  0.33226  0.86039  0.36172  1.0000
  C   C2011     1.0  0.33929  0.95392  0.37012  1.0000
  H   H3595     1.0  0.34235  0.98197  0.45093  1.0000
  H   H3596     1.0  0.59769  0.82020  0.24030  1.0000
  C   C2012     1.0  0.38419  0.94376  0.44924  1.0000
  C   C2013     1.0  0.35616  0.88825  0.47057  1.0000
  H   H3597     1.0  0.51772  0.93901  0.26120  1.0000
  C   C2014     1.0  0.41293  0.97409  0.30005  1.0000
  H   H3598     1.0  0.60212  0.94757  0.28191  1.0000
  H   H3599     1.0  0.41628  0.95226  0.38058  1.0000
  H   H3600     1.0  0.61973  0.94351  0.24991  1.0000
  C   C2015     1.0  0.35524  0.87706  0.46085  1.0000
  H   H3601     1.0  0.40167  0.92269  0.39914  1.0000
  H   H3602     1.0  0.44417  0.97596  0.30400  1.0000
  H   H3603     1.0  0.53388  0.84507  0.25818  1.0000
  H   H3604     1.0  0.42931  0.95023  0.47958  1.0000
  C   C2016     1.0  0.38492  0.95564  0.40555  1.0000
  H   H3605     1.0  0.52858  0.88210  0.23893  1.0000
  H   H3606     1.0  0.40546  0.89376  0.41984  1.0000
  C   C2017     1.0  0.38998  0.91801  0.40736  1.0000
  H   H3607     1.0  0.49916  0.93013  0.24778  1.0000
  C   C2018     1.0  0.35730  0.94674  0.41654  1.0000
  C   C2019     1.0  0.33853  0.91210  0.45350  1.0000
  H   H3608     1.0  0.32700  0.96917  0.46430  1.0000
  H   H3609     1.0  0.64954  0.94819  0.36908  1.0000
  H   H3610     1.0  0.44410  0.97869  0.28186  1.0000
  C   C2020     1.0  0.55340  0.97916  0.30062  1.0000
  H   H3611     1.0  0.65138  0.94401  0.39147  1.0000
  S   S467      1.0  0.63439  0.88276  0.23754  1.0000
  H   H3612     1.0  0.36355  0.88336  0.48071  1.0000
  H   H3613     1.0  0.65661  0.93052  0.44843  1.0000
  S   S468      1.0  0.38158  0.98256  0.36261  1.0000
  C   C2021     1.0  0.52241  0.84760  0.23626  1.0000
  C   C2022     1.0  0.34759  0.98071  0.36787  1.0000
  S   S469      1.0  0.35015  0.92056  0.47752  1.0000
  C   C2023     1.0  0.41258  0.98296  0.48238  1.0000
  H   H3614     1.0  0.51467  0.86080  0.23742  1.0000
  C   C2024     1.0  0.32967  0.83497  0.47609  1.0000
  H   H3615     1.0  0.42652  0.97947  0.48275  1.0000
  C   C2025     1.0  0.65631  0.94772  0.31078  1.0000
  S   S470      1.0  0.63679  0.98560  0.26893  1.0000
  H   H3616     1.0  0.38245  0.97627  0.48497  1.0000
  Fe  Fe236     1.0  0.45036  0.88771  0.60989  1.0000
  S   S471      1.0  0.45723  0.91228  0.59252  1.0000
  S   S472      1.0  0.43420  0.87352  0.60278  1.0000
  Fe  Fe237     1.0  0.46664  0.88996  0.63858  1.0000
  S   S473      1.0  0.47407  0.91497  0.62339  1.0000
  S   S474      1.0  0.47558  0.87834  0.66396  1.0000
  Fe  Fe238     1.0  0.44788  0.92232  0.61684  1.0000
  S   S475      1.0  0.43122  0.94910  0.61576  1.0000
  Fe  Fe239     1.0  0.48273  0.90229  0.60082  1.0000
  S   S476      1.0  0.50781  0.90589  0.58206  1.0000
  S   S477      1.0  0.43947  0.89842  0.63403  1.0000
  S   S478      1.0  0.47692  0.87654  0.61623  1.0000
  Fe  Fe240     1.0  0.59349  0.89403  0.60730  1.0000
  S   S479      1.0  0.59167  0.91144  0.62449  1.0000
  S   S480      1.0  0.57251  0.87882  0.61804  1.0000
  Fe  Fe241     1.0  0.62488  0.90615  0.58168  1.0000
  S   S481      1.0  0.62542  0.92440  0.59725  1.0000
  S   S482      1.0  0.64026  0.90960  0.55400  1.0000
  Fe  Fe242     1.0  0.62047  0.90265  0.62052  1.0000
  S   S483      1.0  0.63399  0.89460  0.64314  1.0000
  Fe  Fe243     1.0  0.59663  0.93137  0.60001  1.0000
  C   C2026     1.0  0.44635  0.94837  0.64167  1.0000
  S   S484      1.0  0.62231  0.88352  0.60475  1.0000
  S   S485      1.0  0.59615  0.91485  0.58293  1.0000
  C   C2027     1.0  0.44770  0.95037  0.70075  1.0000
  S   S486      1.0  0.58083  0.95858  0.59751  1.0000
  S   S487      1.0  0.58853  0.91620  0.71285  1.0000
  H   H3617     1.0  0.44117  0.94382  0.69511  1.0000
  Fe  Fe244     1.0  0.37964  0.90042  0.53023  1.0000
  S   S488      1.0  0.36343  0.92537  0.51763  1.0000
  S   S489      1.0  0.40597  0.90225  0.53251  1.0000
  Fe  Fe245     1.0  0.35102  0.88120  0.53724  1.0000
  S   S490      1.0  0.37310  0.98300  0.55910  1.0000
  Fe  Fe246     1.0  0.35546  0.90923  0.50458  1.0000
  H   H3618     1.0  0.52960  0.94601  0.69991  1.0000
  Fe  Fe247     1.0  0.34197  0.91848  0.53993  1.0000
  S   S491      1.0  0.37378  0.88469  0.51485  1.0000
  S   S492      1.0  0.35849  0.89470  0.55340  1.0000
  C   C2028     1.0  0.35535  0.94388  0.55502  1.0000
  H   H3619     1.0  0.36089  0.93095  0.55273  1.0000
  H   H3620     1.0  0.37995  0.94853  0.55428  1.0000
  H   H3621     1.0  0.42894  0.98537  0.50626  1.0000
  C   C2029     1.0  0.52816  0.96297  0.63749  1.0000
  N   N112      1.0  0.52360  0.96032  0.59216  1.0000
  H   H3622     1.0  0.64923  0.96668  0.68973  1.0000
  H   H3623     1.0  0.36812  0.97751  0.52357  1.0000
  C   C2030     1.0  0.46756  0.88281  0.69737  1.0000
  C   C2031     1.0  0.64258  0.94226  0.67885  1.0000
  H   H3624     1.0  0.38088  0.95482  0.65467  1.0000
  C   C2032     1.0  0.33050  0.96760  0.55950  1.0000
  H   H3625     1.0  0.51958  0.98031  0.55817  1.0000
  H   H3626     1.0  0.48685  0.90129  0.70965  1.0000
  H   H3627     1.0  0.58160  0.86534  0.72663  1.0000
  H   H3628     1.0  0.58003  0.97675  0.69307  1.0000
  H   H3629     1.0  0.50764  0.94351  0.67371  1.0000
  C   C2033     1.0  0.35751  0.94706  0.61255  1.0000
  H   H3630     1.0  0.63123  0.95939  0.65652  1.0000
  C   C2034     1.0  0.51310  0.89982  0.71170  1.0000
  H   H3631     1.0  0.51154  0.95528  0.57414  1.0000
  H   H3632     1.0  0.37958  0.91722  0.65708  1.0000
  H   H3633     1.0  0.46110  0.92652  0.71484  1.0000
  C   C2035     1.0  0.62174  0.90087  0.66253  1.0000
  C   C2036     1.0  0.62694  0.89249  0.67836  1.0000
  C   C2037     1.0  0.61691  0.89706  0.69400  1.0000
  C   C2038     1.0  0.60169  0.91006  0.69376  1.0000
  C   C2039     1.0  0.59677  0.91870  0.67789  1.0000
  C   C2040     1.0  0.60676  0.91411  0.66235  1.0000
  H   H3634     1.0  0.63861  0.88230  0.67857  1.0000
  H   H3635     1.0  0.62087  0.89045  0.70621  1.0000
  H   H3636     1.0  0.58524  0.92906  0.67759  1.0000
  H   H3637     1.0  0.60291  0.92091  0.65022  1.0000
  C   C2041     1.0  0.42601  0.88181  0.58345  1.0000
  C   C2042     1.0  0.41255  0.87565  0.58146  1.0000
  C   C2043     1.0  0.40608  0.88195  0.56602  1.0000
  C   C2044     1.0  0.41325  0.89424  0.55235  1.0000
  C   C2045     1.0  0.42696  0.90006  0.55425  1.0000
  C   C2046     1.0  0.43320  0.89398  0.56974  1.0000
  H   H3638     1.0  0.40705  0.86602  0.59190  1.0000
  H   H3639     1.0  0.39576  0.87708  0.56458  1.0000
  H   H3640     1.0  0.43272  0.90943  0.54375  1.0000
  H   H3641     1.0  0.44375  0.89849  0.57101  1.0000
  C   C2047     1.0  0.52546  0.89924  0.59246  1.0000
  C   C2048     1.0  0.54158  0.90270  0.58309  1.0000
  C   C2049     1.0  0.55599  0.89678  0.59099  1.0000
  C   C2050     1.0  0.55440  0.88718  0.60821  1.0000
  C   C2051     1.0  0.53824  0.88378  0.61759  1.0000
  C   C2052     1.0  0.52375  0.88999  0.60981  1.0000
  H   H3642     1.0  0.54299  0.90975  0.56964  1.0000
  H   H3643     1.0  0.56847  0.89909  0.58355  1.0000
  H   H3644     1.0  0.53693  0.87627  0.63087  1.0000
  H   H3645     1.0  0.51136  0.88722  0.61714  1.0000
  C   C2053     1.0  0.54693  0.95353  0.56490  1.0000
  H   H3646     1.0  0.44421  0.93537  0.64715  1.0000
  C   C2054     1.0  0.56529  0.94324  0.55924  1.0000
  C   C2055     1.0  0.51784  0.95592  0.69682  1.0000
  H   H3647     1.0  0.53825  0.96615  0.64195  1.0000
  H   H3648     1.0  0.63478  0.96288  0.55823  1.0000
  C   C2056     1.0  0.43801  0.90907  0.69259  1.0000
  H   H3649     1.0  0.42654  0.91919  0.69070  1.0000
  H   H3650     1.0  0.50753  0.89805  0.64798  1.0000
  C   C2057     1.0  0.38202  0.91785  0.59327  1.0000
  H   H3651     1.0  0.34157  0.82578  0.52366  1.0000
  H   H3652     1.0  0.52122  0.89402  0.70074  1.0000
  H   H3653     1.0  0.49139  0.95777  0.69671  1.0000
  H   H3654     1.0  0.64468  0.84635  0.50741  1.0000
  H   H3655     1.0  0.52406  0.91030  0.64356  1.0000
  H   H3656     1.0  0.52086  0.96344  0.68318  1.0000
  H   H3657     1.0  0.57101  0.97017  0.71595  1.0000
  H   H3658     1.0  0.43612  0.92845  0.56648  1.0000
  H   H3659     1.0  0.53367  0.98373  0.58236  1.0000
  H   H3660     1.0  0.35380  0.96899  0.49681  1.0000
  C   C2058     1.0  0.54171  0.95107  0.58495  1.0000
  H   H3661     1.0  0.48806  0.97216  0.59793  1.0000
  H   H3662     1.0  0.43614  0.95229  0.49782  1.0000
  N   N113      1.0  0.38793  0.92797  0.60254  1.0000
  C   C2059     1.0  0.53463  0.96175  0.61844  1.0000
  H   H3663     1.0  0.64892  0.97635  0.57730  1.0000
  H   H3664     1.0  0.55145  0.95568  0.58845  1.0000
  C   C2060     1.0  0.51009  0.91130  0.64453  1.0000
  H   H3665     1.0  0.40539  0.93048  0.56611  1.0000
  C   C2061     1.0  0.42672  0.94109  0.56522  1.0000
  H   H3666     1.0  0.51437  0.93809  0.59232  1.0000
  C   C2062     1.0  0.34802  0.96602  0.61214  1.0000
  C   C2063     1.0  0.44256  0.90356  0.70890  1.0000
  N   N114      1.0  0.49338  0.86217  0.56464  1.0000
  C   C2064     1.0  0.48284  0.85024  0.57815  1.0000
  C   C2065     1.0  0.50611  0.86568  0.57276  1.0000
  C   C2066     1.0  0.48098  0.87932  0.55955  1.0000
  C   C2067     1.0  0.50256  0.85519  0.54851  1.0000
  C   C2068     1.0  0.50908  0.83513  0.55106  1.0000
  C   C2069     1.0  0.46729  0.84759  0.57268  1.0000
  C   C2070     1.0  0.48923  0.89430  0.54700  1.0000
  C   C2071     1.0  0.51980  0.84988  0.57985  1.0000
  C   C2072     1.0  0.52976  0.85499  0.59015  1.0000
  C   C2073     1.0  0.52097  0.83024  0.53442  1.0000
  C   C2074     1.0  0.45987  0.83258  0.58542  1.0000
  C   C2075     1.0  0.47537  0.90978  0.54041  1.0000
  H   H3667     1.0  0.47744  0.85531  0.59027  1.0000
  H   H3668     1.0  0.49101  0.83721  0.58228  1.0000
  H   H3669     1.0  0.51378  0.87479  0.56323  1.0000
  H   H3670     1.0  0.49895  0.87239  0.58352  1.0000
  H   H3671     1.0  0.47318  0.88407  0.57143  1.0000
  H   H3672     1.0  0.47153  0.87763  0.55304  1.0000
  H   H3673     1.0  0.49394  0.85911  0.53901  1.0000
  H   H3674     1.0  0.51383  0.86122  0.54160  1.0000
  H   H3675     1.0  0.49802  0.82878  0.55433  1.0000
  H   H3676     1.0  0.51625  0.82933  0.56169  1.0000
  H   H3677     1.0  0.45669  0.85939  0.57266  1.0000
  H   H3678     1.0  0.47090  0.84510  0.55940  1.0000
  H   H3679     1.0  0.49843  0.88998  0.53554  1.0000
  H   H3680     1.0  0.49623  0.89914  0.55379  1.0000
  H   H3681     1.0  0.51392  0.83917  0.58870  1.0000
  H   H3682     1.0  0.52946  0.84512  0.56883  1.0000
  H   H3683     1.0  0.53618  0.86566  0.58194  1.0000
  H   H3684     1.0  0.52084  0.85928  0.60180  1.0000
  H   H3685     1.0  0.53989  0.84365  0.59463  1.0000
  H   H3686     1.0  0.53277  0.83555  0.53097  1.0000
  H   H3687     1.0  0.52505  0.81586  0.53645  1.0000
  H   H3688     1.0  0.51409  0.83530  0.52345  1.0000
  H   H3689     1.0  0.46963  0.82010  0.58542  1.0000
  H   H3690     1.0  0.45570  0.83498  0.59880  1.0000
  H   H3691     1.0  0.44834  0.83155  0.58153  1.0000
  H   H3692     1.0  0.48163  0.92028  0.53149  1.0000
  H   H3693     1.0  0.46794  0.90594  0.53321  1.0000
  H   H3694     1.0  0.46631  0.91501  0.55148  1.0000
  H   H3695     1.0  0.38233  0.95432  0.60597  1.0000
  N   N115      1.0  0.63097  0.95077  0.69347  1.0000
  H   H3696     1.0  0.41046  0.93838  0.59879  1.0000
  H   H3697     1.0  0.54374  0.93685  0.59094  1.0000
  H   H3698     1.0  0.39329  0.90860  0.58734  1.0000
  H   H3699     1.0  0.37504  0.95251  0.58847  1.0000
  C   C2076     1.0  0.59233  0.85764  0.71840  1.0000
  H   H3700     1.0  0.35386  0.81854  0.50438  1.0000
  H   H3701     1.0  0.56883  0.94550  0.54482  1.0000
  C   C2077     1.0  0.63499  0.96797  0.69216  1.0000
  C   C2078     1.0  0.34136  0.97756  0.56047  1.0000
  C   C2079     1.0  0.51085  0.95257  0.58832  1.0000
  H   H3702     1.0  0.43007  0.94951  0.57169  1.0000
  H   H3703     1.0  0.37649  0.92671  0.58214  1.0000
  H   H3704     1.0  0.35811  0.91344  0.61313  1.0000
  H   H3705     1.0  0.52080  0.92733  0.68683  1.0000
  H   H3706     1.0  0.42297  0.92127  0.49668  1.0000
  H   H3707     1.0  0.62714  0.97813  0.53010  1.0000
  H   H3708     1.0  0.60405  0.95420  0.64765  1.0000
  H   H3709     1.0  0.39757  0.90466  0.62056  1.0000
  H   H3710     1.0  0.54692  0.96737  0.55865  1.0000
  H   H3711     1.0  0.63819  0.98143  0.60761  1.0000
  H   H3712     1.0  0.52118  0.87121  0.68710  1.0000
  C   C2080     1.0  0.63952  0.96857  0.60490  1.0000
  C   C2081     1.0  0.51127  0.88485  0.72768  1.0000
  H   H3713     1.0  0.41168  0.97875  0.54512  1.0000
  H   H3714     1.0  0.59826  0.94976  0.72093  1.0000
  C   C2082     1.0  0.38796  0.96539  0.65109  1.0000
  H   H3715     1.0  0.43298  0.98305  0.53578  1.0000
  H   H3716     1.0  0.61173  0.94594  0.54737  1.0000
  C   C2083     1.0  0.35918  0.97057  0.55885  1.0000
  H   H3717     1.0  0.57474  0.94745  0.56368  1.0000
  H   H3718     1.0  0.53815  0.94908  0.55983  1.0000
  C   C2084     1.0  0.38178  0.97940  0.63589  1.0000
  H   H3719     1.0  0.40512  0.94828  0.51602  1.0000
  C   C2085     1.0  0.40601  0.93012  0.59303  1.0000
  H   H3720     1.0  0.39951  0.92173  0.65797  1.0000
  C   C2086     1.0  0.47862  0.97683  0.73255  1.0000
  H   H3721     1.0  0.47887  0.87249  0.69930  1.0000
  H   H3722     1.0  0.34311  0.85206  0.48855  1.0000
  H   H3723     1.0  0.59925  0.94266  0.62511  1.0000
  C   C2087     1.0  0.47947  0.95506  0.58807  1.0000
  C   C2088     1.0  0.37633  0.94590  0.60201  1.0000
  H   H3724     1.0  0.46062  0.94702  0.66045  1.0000
  H   H3725     1.0  0.35205  0.89202  0.60133  1.0000
  H   H3726     1.0  0.62427  0.93923  0.66547  1.0000
  C   C2089     1.0  0.65666  0.92124  0.72918  1.0000
  H   H3727     1.0  0.38860  0.93976  0.63148  1.0000
  C   C2090     1.0  0.35259  0.97469  0.50797  1.0000
  C   C2091     1.0  0.39563  0.92610  0.63178  1.0000
  C   C2092     1.0  0.33754  0.95081  0.55660  1.0000
  C   C2093     1.0  0.45581  0.95492  0.64914  1.0000
  C   C2094     1.0  0.58240  0.96632  0.61468  1.0000
  C   C2095     1.0  0.34837  0.83014  0.51001  1.0000
  H   H3728     1.0  0.40958  0.92570  0.62665  1.0000
  H   H3729     1.0  0.37570  0.89472  0.61267  1.0000
  H   H3730     1.0  0.47770  0.94501  0.67834  1.0000
  H   H3731     1.0  0.51619  0.90687  0.67522  1.0000
  C   C2096     1.0  0.59870  0.95993  0.70863  1.0000
  C   C2097     1.0  0.42708  0.94704  0.49403  1.0000
  H   H3732     1.0  0.52547  0.95038  0.64568  1.0000
  C   C2098     1.0  0.59279  0.95573  0.62632  1.0000
  H   H3733     1.0  0.60435  0.97857  0.53936  1.0000
  H   H3734     1.0  0.45805  0.97538  0.72207  1.0000
  H   H3735     1.0  0.40207  0.95975  0.64741  1.0000
  H   H3736     1.0  0.60347  0.86408  0.71380  1.0000
  C   C2099     1.0  0.63811  0.97061  0.58616  1.0000
  H   H3737     1.0  0.44531  0.92222  0.49323  1.0000
  H   H3738     1.0  0.57676  0.95487  0.70227  1.0000
  H   H3739     1.0  0.61299  0.96150  0.56837  1.0000
  H   H3740     1.0  0.46086  0.88601  0.72385  1.0000
  C   C2100     1.0  0.36891  0.90650  0.60443  1.0000
  C   C2101     1.0  0.36101  0.90044  0.59303  1.0000
  H   H3741     1.0  0.56612  0.92912  0.56465  1.0000
  H   H3742     1.0  0.37183  0.83985  0.49722  1.0000
  H   H3743     1.0  0.49608  0.90063  0.68061  1.0000
  H   H3744     1.0  0.47004  0.94487  0.71176  1.0000
  C   C2102     1.0  0.33547  0.84436  0.49988  1.0000
  C   C2103     1.0  0.40827  0.93860  0.57323  1.0000
  H   H3745     1.0  0.52183  0.94251  0.61747  1.0000
  H   H3746     1.0  0.35699  0.94022  0.62638  1.0000
  H   H3747     1.0  0.35029  0.94160  0.60657  1.0000
  H   H3748     1.0  0.64488  0.82959  0.49715  1.0000
  C   C2104     1.0  0.46293  0.88828  0.68109  1.0000
  H   H3749     1.0  0.39967  0.95167  0.57081  1.0000
  C   C2105     1.0  0.61217  0.95260  0.69362  1.0000
  H   H3750     1.0  0.44459  0.90583  0.66618  1.0000
  H   H3751     1.0  0.43121  0.92346  0.51412  1.0000
  H   H3752     1.0  0.42786  0.94724  0.55116  1.0000
  H   H3753     1.0  0.64315  0.93856  0.63710  1.0000
  H   H3754     1.0  0.37134  0.89280  0.58449  1.0000
  C   C2106     1.0  0.58052  0.96578  0.70470  1.0000
  H   H3755     1.0  0.34363  0.96856  0.51933  1.0000
  H   H3756     1.0  0.35354  0.91175  0.58490  1.0000
  H   H3757     1.0  0.35870  0.84946  0.51515  1.0000
  H   H3758     1.0  0.45042  0.96237  0.69117  1.0000
  H   H3759     1.0  0.61747  0.95485  0.52432  1.0000
  H   H3760     1.0  0.47034  0.92515  0.68493  1.0000
  C   C2107     1.0  0.63466  0.93886  0.71049  1.0000
  H   H3761     1.0  0.48045  0.96339  0.57470  1.0000
  C   C2108     1.0  0.63548  0.94538  0.66223  1.0000
  H   H3762     1.0  0.37614  0.91540  0.62853  1.0000
  C   C2109     1.0  0.49516  0.91047  0.70796  1.0000
  H   H3763     1.0  0.37481  0.95712  0.51699  1.0000
  C   C2110     1.0  0.59568  0.96234  0.63898  1.0000
  H   H3764     1.0  0.62982  0.97200  0.70483  1.0000
  C   C2111     1.0  0.44824  0.90155  0.67868  1.0000
  C   C2112     1.0  0.50287  0.94725  0.69942  1.0000
  H   H3765     1.0  0.41540  0.91728  0.59457  1.0000
  C   C2113     1.0  0.36614  0.95374  0.55616  1.0000
  C   C2114     1.0  0.37022  0.97134  0.51256  1.0000
  S   S493      1.0  0.33244  0.90457  0.52593  1.0000
  H   H3766     1.0  0.65440  0.90871  0.72872  1.0000
  H   H3767     1.0  0.63108  0.92625  0.71228  1.0000
  C   C2115     1.0  0.49162  0.95824  0.59743  1.0000
  C   C2116     1.0  0.40783  0.95458  0.50187  1.0000
  H   H3768     1.0  0.64562  0.92781  0.68349  1.0000
  C   C2117     1.0  0.38893  0.91781  0.62089  1.0000
  H   H3769     1.0  0.50143  0.93482  0.65392  1.0000
  N   N116      1.0  0.57371  0.87437  0.67597  1.0000
  C   C2118     1.0  0.58614  0.86215  0.66508  1.0000
  C   C2119     1.0  0.55673  0.86867  0.68256  1.0000
  C   C2120     1.0  0.57142  0.89254  0.66479  1.0000
  C   C2121     1.0  0.58059  0.87415  0.69134  1.0000
  C   C2122     1.0  0.58635  0.85600  0.70295  1.0000
  C   C2123     1.0  0.60490  0.86501  0.65837  1.0000
  C   C2124     1.0  0.55819  0.90689  0.67341  1.0000
  C   C2125     1.0  0.54604  0.87139  0.66861  1.0000
  H   H3770     1.0  0.40017  0.94931  0.49610  1.0000
  C   C2126     1.0  0.45741  0.89048  0.71125  1.0000
  C   C2127     1.0  0.61652  0.85111  0.64869  1.0000
  C   C2128     1.0  0.55601  0.92437  0.66029  1.0000
  H   H3771     1.0  0.58137  0.86330  0.65325  1.0000
  H   H3772     1.0  0.58676  0.84838  0.67227  1.0000
  H   H3773     1.0  0.55902  0.85457  0.68888  1.0000
  H   H3774     1.0  0.54832  0.87526  0.69302  1.0000
  H   H3775     1.0  0.56803  0.89290  0.65241  1.0000
  H   H3776     1.0  0.58388  0.89668  0.66083  1.0000
  H   H3777     1.0  0.59169  0.88068  0.68702  1.0000
  H   H3778     1.0  0.57061  0.88197  0.70006  1.0000
  H   H3779     1.0  0.59735  0.84776  0.69556  1.0000
  H   H3780     1.0  0.57551  0.84921  0.70822  1.0000
  H   H3781     1.0  0.60499  0.87772  0.64904  1.0000
  H   H3782     1.0  0.61088  0.86462  0.66910  1.0000
  H   H3783     1.0  0.56267  0.90861  0.68430  1.0000
  H   H3784     1.0  0.54532  0.90368  0.67857  1.0000
  H   H3785     1.0  0.54213  0.88534  0.66245  1.0000
  H   H3786     1.0  0.55361  0.86442  0.65819  1.0000
  H   H3787     1.0  0.50023  0.94025  0.71321  1.0000
  C   C2129     1.0  0.62113  0.97013  0.55859  1.0000
  H   H3788     1.0  0.52194  0.86706  0.66647  1.0000
  H   H3789     1.0  0.62651  0.94442  0.72177  1.0000
  H   H3790     1.0  0.63981  0.95735  0.58432  1.0000
  N   N117      1.0  0.40198  0.97424  0.49903  1.0000
  H   H3791     1.0  0.62971  0.85378  0.64365  1.0000
  H   H3792     1.0  0.61756  0.83802  0.65756  1.0000
  H   H3793     1.0  0.61131  0.85128  0.63746  1.0000
  H   H3794     1.0  0.56863  0.92828  0.65484  1.0000
  H   H3795     1.0  0.55077  0.92361  0.64945  1.0000
  H   H3796     1.0  0.54698  0.93461  0.66682  1.0000
  H   H3797     1.0  0.62925  0.96230  0.61420  1.0000
  H   H3798     1.0  0.34789  0.97343  0.59849  1.0000
  H   H3799     1.0  0.54693  0.95169  0.61758  1.0000
  H   H3800     1.0  0.38545  0.97083  0.66273  1.0000
  H   H3801     1.0  0.48936  0.95054  0.61108  1.0000
  H   H3802     1.0  0.39961  0.97815  0.58085  1.0000
  C   C2130     1.0  0.39352  0.91617  0.65081  1.0000
  C   C2131     1.0  0.52947  0.86458  0.67665  1.0000
  C   C2132     1.0  0.64903  0.93703  0.64829  1.0000
  C   C2133     1.0  0.36350  0.83721  0.51044  1.0000
  H   H3803     1.0  0.48267  0.94120  0.58736  1.0000
  C   C2134     1.0  0.64540  0.84343  0.49475  1.0000
  C   C2135     1.0  0.44274  0.97528  0.61994  1.0000
  C   C2136     1.0  0.49881  0.92162  0.65805  1.0000
  C   C2137     1.0  0.46451  0.93827  0.70528  1.0000
  H   H3804     1.0  0.48910  0.91729  0.71876  1.0000
  H   H3805     1.0  0.33116  0.82493  0.56261  1.0000
  H   H3806     1.0  0.50699  0.91796  0.63156  1.0000
  H   H3807     1.0  0.37146  0.82757  0.51938  1.0000
  C   C2138     1.0  0.45244  0.98168  0.62724  1.0000
  H   H3808     1.0  0.48511  0.92291  0.65765  1.0000
  C   C2139     1.0  0.62042  0.95357  0.53713  1.0000
  H   H3809     1.0  0.50817  0.96356  0.61757  1.0000
  H   H3810     1.0  0.53265  0.85035  0.68211  1.0000
  H   H3811     1.0  0.52007  0.90835  0.71417  1.0000
  H   H3812     1.0  0.63409  0.94637  0.53686  1.0000
  C   C2140     1.0  0.43187  0.92729  0.49989  1.0000
  S   S494      1.0  0.34435  0.85527  0.54987  1.0000
  H   H3813     1.0  0.65687  0.94686  0.71346  1.0000
  H   H3814     1.0  0.39565  0.97264  0.52678  1.0000
  H   H3815     1.0  0.65354  0.92287  0.65348  1.0000
  C   C2141     1.0  0.45931  0.97141  0.64167  1.0000
  H   H3816     1.0  0.40009  0.90223  0.65176  1.0000
  C   C2142     1.0  0.44010  0.95845  0.62688  1.0000
  H   H3817     1.0  0.35436  0.97225  0.61830  1.0000
  H   H3818     1.0  0.46589  0.95829  0.59523  1.0000
  N   N118      1.0  0.49530  0.92289  0.69038  1.0000
  C   C2143     1.0  0.61778  0.97157  0.54049  1.0000
  C   C2144     1.0  0.47713  0.93298  0.68881  1.0000
  C   C2145     1.0  0.50202  0.91216  0.67664  1.0000
  C   C2146     1.0  0.50728  0.93493  0.68691  1.0000
  C   C2147     1.0  0.52128  0.95660  0.61172  1.0000
  C   C2148     1.0  0.58877  0.97978  0.63953  1.0000
  H   H3819     1.0  0.51419  0.96498  0.70568  1.0000
  H   H3820     1.0  0.60991  0.93973  0.69435  1.0000
  H   H3821     1.0  0.60875  0.96083  0.68120  1.0000
  H   H3822     1.0  0.53751  0.97447  0.61077  1.0000
  H   H3823     1.0  0.65534  0.94597  0.67470  1.0000
  H   H3824     1.0  0.43875  0.95388  0.71273  1.0000
  C   C2149     1.0  0.52114  0.97977  0.58504  1.0000
  C   C2150     1.0  0.65371  0.93493  0.71259  1.0000
  H   H3825     1.0  0.51617  0.97336  0.63904  1.0000
  H   H3826     1.0  0.42751  0.96424  0.52047  1.0000
  S   S495      1.0  0.42935  0.91319  0.72607  1.0000
  H   H3827     1.0  0.60194  0.97124  0.71069  1.0000
  S   S496      1.0  0.47283  0.97896  0.64968  1.0000
  H   H3828     1.0  0.65236  0.96034  0.60699  1.0000
  H   H3829     1.0  0.61015  0.97535  0.59154  1.0000
  H   H3830     1.0  0.63478  0.98093  0.66480  1.0000
  H   H3831     1.0  0.59651  0.84454  0.72654  1.0000
  C   C2151     1.0  0.42092  0.97817  0.51765  1.0000
  H   H3832     1.0  0.32812  0.81174  0.50858  1.0000
  C   C2152     1.0  0.41982  0.98533  0.53330  1.0000
  H   H3833     1.0  0.61416  0.98586  0.67951  1.0000
  H   H3834     1.0  0.43843  0.98296  0.60819  1.0000
  H   H3835     1.0  0.32868  0.85339  0.50877  1.0000
  H   H3836     1.0  0.52422  0.87812  0.73065  1.0000
  C   C2153     1.0  0.38337  0.97938  0.49703  1.0000
  H   H3837     1.0  0.33439  0.96661  0.61937  1.0000
  H   H3838     1.0  0.38520  0.97344  0.62449  1.0000
  C   C2154     1.0  0.57466  0.98352  0.61586  1.0000
  H   H3839     1.0  0.42184  0.98025  0.57401  1.0000
  C   C2155     1.0  0.62838  0.98340  0.67790  1.0000
  H   H3840     1.0  0.63400  0.85169  0.48932  1.0000
  C   C2156     1.0  0.62029  0.98215  0.58280  1.0000
  H   H3841     1.0  0.36746  0.98342  0.63958  1.0000
  C   C2157     1.0  0.40265  0.98013  0.51464  1.0000
  C   C2158     1.0  0.32469  0.85155  0.54880  1.0000
  H   H3842     1.0  0.48563  0.98362  0.72001  1.0000
  H   H3843     1.0  0.40987  0.98131  0.60491  1.0000
  H   H3844     1.0  0.50545  0.87533  0.72527  1.0000
  C   C2159     1.0  0.45936  0.98057  0.73257  1.0000
  H   H3845     1.0  0.42839  0.98013  0.73311  1.0000
  H   H3846     1.0  0.54468  0.94633  0.73356  1.0000
  H   H3847     1.0  0.48418  0.96263  0.73423  1.0000
  H   H3848     1.0  0.52331  0.98546  0.72368  1.0000
  H   H3849     1.0  0.51952  0.62715  0.79286  1.0000
  Fe  Fe248     1.0  0.61738  0.87908  0.76409  1.0000
  C   C2160     1.0  0.62533  0.77076  0.94093  1.0000
  S   S497      1.0  0.64062  0.85697  0.76624  1.0000
  Fe  Fe249     1.0  0.57863  0.88506  0.77427  1.0000
  S   S498      1.0  0.55490  0.87437  0.78788  1.0000
  S   S499      1.0  0.59833  0.88630  0.78779  1.0000
  Fe  Fe250     1.0  0.47018  0.91578  0.76062  1.0000
  S   S500      1.0  0.45668  0.91305  0.78864  1.0000
  S   S501      1.0  0.49595  0.92281  0.74966  1.0000
  Fe  Fe251     1.0  0.44078  0.91088  0.74890  1.0000
  S   S502      1.0  0.42451  0.90763  0.77589  1.0000
  H   H3850     1.0  0.47620  0.87275  0.83748  1.0000
  H   H3851     1.0  0.55399  0.74228  0.84307  1.0000
  Fe  Fe252     1.0  0.44860  0.89075  0.78473  1.0000
  S   S503      1.0  0.44243  0.86821  0.80708  1.0000
  S   S504      1.0  0.44781  0.93476  0.75039  1.0000
  S   S505      1.0  0.46430  0.89196  0.75726  1.0000
  Fe  Fe253     1.0  0.48427  0.79239  0.87356  1.0000
  S   S506      1.0  0.49119  0.76337  0.87590  1.0000
  S   S507      1.0  0.49495  0.81047  0.84884  1.0000
  Fe  Fe254     1.0  0.46526  0.78916  0.91161  1.0000
  S   S508      1.0  0.47088  0.76005  0.91721  1.0000
  S   S509      1.0  0.44672  0.80580  0.92946  1.0000
  Fe  Fe255     1.0  0.49732  0.76228  0.90131  1.0000
  S   S510      1.0  0.52150  0.74487  0.90937  1.0000
  Fe  Fe256     1.0  0.46424  0.76364  0.89142  1.0000
  S   S511      1.0  0.44638  0.74799  0.89006  1.0000
  S   S512      1.0  0.49245  0.79115  0.89795  1.0000
  S   S513      1.0  0.45652  0.79273  0.88687  1.0000
  Fe  Fe257     1.0  0.62499  0.76277  0.88671  1.0000
  S   S514      1.0  0.62012  0.74429  0.87394  1.0000
  S   S515      1.0  0.62560  0.75541  0.91524  1.0000
  Fe  Fe258     1.0  0.63276  0.78892  0.85270  1.0000
  S   S516      1.0  0.62898  0.77288  0.83664  1.0000
  S   S517      1.0  0.63840  0.81559  0.84445  1.0000
  Fe  Fe259     1.0  0.60601  0.76825  0.85805  1.0000
  S   S518      1.0  0.58167  0.77028  0.84981  1.0000
  Fe  Fe260     1.0  0.64345  0.75011  0.85362  1.0000
  N   N119      1.0  0.32937  0.51702  0.82497  1.0000
  S   S519      1.0  0.60833  0.78631  0.87283  1.0000
  C   C2161     1.0  0.54380  0.96533  0.82238  1.0000
  S   S520      1.0  0.60344  0.81742  0.95370  1.0000
  Fe  Fe261     1.0  0.62673  0.65552  0.84379  1.0000
  S   S521      1.0  0.60857  0.64025  0.84253  1.0000
  H   H3852     1.0  0.55490  0.94106  0.81483  1.0000
  Fe  Fe262     1.0  0.62493  0.64092  0.88222  1.0000
  S   S522      1.0  0.60615  0.62492  0.88476  1.0000
  S   S523      1.0  0.63536  0.64028  0.90489  1.0000
  Fe  Fe263     1.0  0.62336  0.61815  0.86003  1.0000
  Fe  Fe264     1.0  0.59311  0.64826  0.86726  1.0000
  S   S524      1.0  0.56471  0.66073  0.87056  1.0000
  S   S525      1.0  0.64313  0.63267  0.85875  1.0000
  S   S526      1.0  0.61027  0.66504  0.86724  1.0000
  S   S527      1.0  0.57715  0.67338  0.96140  1.0000
  Fe  Fe265     1.0  0.45474  0.62369  0.88233  1.0000
  S   S528      1.0  0.46222  0.61586  0.90830  1.0000
  S   S529      1.0  0.44832  0.60139  0.87586  1.0000
  Fe  Fe266     1.0  0.46571  0.65850  0.87335  1.0000
  S   S530      1.0  0.47369  0.65303  0.89864  1.0000
  S   S531      1.0  0.47266  0.68301  0.85498  1.0000
  Fe  Fe267     1.0  0.48582  0.62624  0.89428  1.0000
  S   S532      1.0  0.51212  0.61145  0.89946  1.0000
  Fe  Fe268     1.0  0.44942  0.64324  0.91027  1.0000
  S   S533      1.0  0.43472  0.64972  0.93579  1.0000
  S   S534      1.0  0.47966  0.63215  0.86799  1.0000
  S   S535      1.0  0.43996  0.65080  0.88527  1.0000
  Fe  Fe269     1.0  0.37193  0.56145  0.88052  1.0000
  S   S536      1.0  0.39363  0.53789  0.87912  1.0000
  S   S537      1.0  0.37553  0.58879  0.87632  1.0000
  Fe  Fe270     1.0  0.37654  0.52446  0.90210  1.0000
  Fe  Fe271     1.0  0.37889  0.53106  0.86364  1.0000
  S   S538      1.0  0.39288  0.52195  0.83905  1.0000
  S   S539      1.0  0.35827  0.55578  0.86308  1.0000
  H   H3853     1.0  0.39397  0.50972  0.80945  1.0000
  C   C2162     1.0  0.54651  0.95132  0.74404  1.0000
  H   H3854     1.0  0.61748  0.84010  0.86258  1.0000
  N   N120      1.0  0.36684  0.60478  0.92778  1.0000
  C   C2163     1.0  0.36996  0.57173  0.94185  1.0000
  C   C2164     1.0  0.32913  0.59112  0.89150  1.0000
  H   H3855     1.0  0.57245  0.98338  0.74129  1.0000
  C   C2165     1.0  0.64183  0.81793  0.80947  1.0000
  H   H3856     1.0  0.35205  0.56473  0.82302  1.0000
  H   H3857     1.0  0.38105  0.98454  0.74532  1.0000
  C   C2166     1.0  0.61340  0.84348  0.87555  1.0000
  C   C2167     1.0  0.42733  0.59849  0.87787  1.0000
  C   C2168     1.0  0.42445  0.58157  0.88324  1.0000
  C   C2169     1.0  0.40855  0.57843  0.88310  1.0000
  C   C2170     1.0  0.39547  0.59222  0.87731  1.0000
  C   C2171     1.0  0.39824  0.60919  0.87216  1.0000
  C   C2172     1.0  0.41409  0.61234  0.87249  1.0000
  H   H3858     1.0  0.43466  0.57083  0.88745  1.0000
  H   H3859     1.0  0.40647  0.56535  0.88740  1.0000
  H   H3860     1.0  0.38818  0.61994  0.86766  1.0000
  H   H3861     1.0  0.41627  0.62540  0.86808  1.0000
  C   C2173     1.0  0.44667  0.65976  0.95869  1.0000
  C   C2174     1.0  0.45055  0.64954  0.94651  1.0000
  C   C2175     1.0  0.46732  0.63940  0.94260  1.0000
  C   C2176     1.0  0.48016  0.63946  0.95080  1.0000
  H   H3862     1.0  0.43375  0.66768  0.96169  1.0000
  H   H3863     1.0  0.47033  0.63111  0.93356  1.0000
  C   C2177     1.0  0.61910  0.65008  0.92005  1.0000
  C   C2178     1.0  0.62317  0.65115  0.93511  1.0000
  C   C2179     1.0  0.61026  0.65864  0.94760  1.0000
  C   C2180     1.0  0.59327  0.66507  0.94509  1.0000
  C   C2181     1.0  0.58924  0.66435  0.92984  1.0000
  C   C2182     1.0  0.60218  0.65677  0.91731  1.0000
  H   H3864     1.0  0.63629  0.64619  0.93715  1.0000
  H   H3865     1.0  0.61357  0.65944  0.95916  1.0000
  H   H3866     1.0  0.57612  0.66946  0.92780  1.0000
  H   H3867     1.0  0.59900  0.65596  0.90565  1.0000
  C   C2183     1.0  0.55061  0.64655  0.87859  1.0000
  C   C2184     1.0  0.55639  0.62886  0.88555  1.0000
  C   C2185     1.0  0.54455  0.61798  0.89201  1.0000
  C   C2186     1.0  0.52706  0.62478  0.89117  1.0000
  C   C2187     1.0  0.52152  0.64233  0.88372  1.0000
  C   C2188     1.0  0.53320  0.65322  0.87770  1.0000
  H   H3868     1.0  0.56988  0.62360  0.88614  1.0000
  H   H3869     1.0  0.54890  0.60434  0.89765  1.0000
  H   H3870     1.0  0.50821  0.64761  0.88261  1.0000
  H   H3871     1.0  0.52866  0.66687  0.87239  1.0000
  H   H3872     1.0  0.62683  0.81470  0.90256  1.0000
  C   C2189     1.0  0.34372  0.52679  0.81895  1.0000
  H   H3873     1.0  0.35597  0.51822  0.82244  1.0000
  H   H3874     1.0  0.47619  0.88280  0.81476  1.0000
  C   C2190     1.0  0.63476  0.69773  0.84029  1.0000
  H   H3875     1.0  0.44123  0.49619  0.93524  1.0000
  H   H3876     1.0  0.62253  0.69447  0.84700  1.0000
  H   H3877     1.0  0.63203  0.71658  0.85509  1.0000
  C   C2191     1.0  0.61968  0.77284  0.92565  1.0000
  C   C2192     1.0  0.60875  0.78849  0.91934  1.0000
  C   C2193     1.0  0.60339  0.80193  0.92834  1.0000
  C   C2194     1.0  0.60937  0.80000  0.94336  1.0000
  C   C2195     1.0  0.62021  0.78432  0.94976  1.0000
  C   C2196     1.0  0.57969  0.84126  0.82099  1.0000
  H   H3878     1.0  0.60404  0.79004  0.90781  1.0000
  H   H3879     1.0  0.59473  0.81392  0.92359  1.0000
  C   C2197     1.0  0.45460  0.72970  0.88065  1.0000
  C   C2198     1.0  0.46960  0.72841  0.86748  1.0000
  C   C2199     1.0  0.47504  0.71415  0.85948  1.0000
  C   C2200     1.0  0.46591  0.70079  0.86511  1.0000
  C   C2201     1.0  0.45120  0.70193  0.87855  1.0000
  C   C2202     1.0  0.44534  0.71653  0.88597  1.0000
  H   H3880     1.0  0.47672  0.73860  0.86314  1.0000
  H   H3881     1.0  0.48634  0.71341  0.84899  1.0000
  H   H3882     1.0  0.44403  0.69175  0.88294  1.0000
  H   H3883     1.0  0.43364  0.71750  0.89603  1.0000
  C   C2203     1.0  0.53867  0.75111  0.89288  1.0000
  C   C2204     1.0  0.55586  0.74458  0.89481  1.0000
  C   C2205     1.0  0.56932  0.75045  0.88164  1.0000
  C   C2206     1.0  0.56555  0.76222  0.86635  1.0000
  C   C2207     1.0  0.54846  0.76819  0.86429  1.0000
  C   C2208     1.0  0.53507  0.76303  0.87767  1.0000
  H   H3884     1.0  0.55869  0.73539  0.90662  1.0000
  H   H3885     1.0  0.58256  0.74587  0.88323  1.0000
  H   H3886     1.0  0.54541  0.77740  0.85264  1.0000
  H   H3887     1.0  0.52194  0.76865  0.87622  1.0000
  C   C2209     1.0  0.45751  0.85289  0.81862  1.0000
  C   C2210     1.0  0.47535  0.84982  0.81169  1.0000
  C   C2211     1.0  0.48679  0.83691  0.82117  1.0000
  C   C2212     1.0  0.48044  0.82704  0.83756  1.0000
  C   C2213     1.0  0.46264  0.83033  0.84455  1.0000
  C   C2214     1.0  0.45122  0.84314  0.83508  1.0000
  H   H3888     1.0  0.48029  0.85721  0.79896  1.0000
  H   H3889     1.0  0.50056  0.83443  0.81568  1.0000
  H   H3890     1.0  0.45768  0.82305  0.85729  1.0000
  H   H3891     1.0  0.43745  0.84555  0.84055  1.0000
  C   C2215     1.0  0.64010  0.84539  0.78793  1.0000
  H   H3892     1.0  0.53991  0.92937  0.76378  1.0000
  H   H3893     1.0  0.64107  0.96070  0.75510  1.0000
  C   C2216     1.0  0.63892  0.82677  0.82265  1.0000
  H   H3894     1.0  0.65313  0.54135  0.84522  1.0000
  H   H3895     1.0  0.49068  0.88699  0.82511  1.0000
  C   C2217     1.0  0.65225  0.54163  0.83187  1.0000
  H   H3896     1.0  0.59156  0.84013  0.89794  1.0000
  H   H3897     1.0  0.33644  0.61132  0.91442  1.0000
  H   H3898     1.0  0.41063  0.94887  0.82891  1.0000
  C   C2218     1.0  0.53833  0.88622  0.77678  1.0000
  C   C2219     1.0  0.54247  0.89543  0.75958  1.0000
  C   C2220     1.0  0.65121  0.71086  0.90067  1.0000
  C   C2221     1.0  0.51202  0.90816  0.76002  1.0000
  C   C2222     1.0  0.50776  0.89826  0.77692  1.0000
  C   C2223     1.0  0.52095  0.88735  0.78537  1.0000
  H   H3899     1.0  0.51413  0.67331  0.97585  1.0000
  C   C2224     1.0  0.34022  0.54338  0.82593  1.0000
  H   H3900     1.0  0.49437  0.89932  0.78363  1.0000
  H   H3901     1.0  0.51773  0.88009  0.79862  1.0000
  C   C2225     1.0  0.41349  0.61319  0.91977  1.0000
  H   H3902     1.0  0.58624  0.62764  0.92152  1.0000
  N   N121      1.0  0.50533  0.69278  0.92533  1.0000
  C   C2226     1.0  0.44683  0.80431  0.95132  1.0000
  C   C2227     1.0  0.42243  0.83298  0.79700  1.0000
  H   H3903     1.0  0.43862  0.92346  0.86616  1.0000
  S   S540      1.0  0.57558  0.91291  0.76049  1.0000
  H   H3904     1.0  0.42415  0.84371  0.80164  1.0000
  H   H3905     1.0  0.53323  0.64148  0.77851  1.0000
  H   H3906     1.0  0.64182  0.56144  0.81091  1.0000
  H   H3907     1.0  0.55098  0.88974  0.83505  1.0000
  H   H3908     1.0  0.34887  0.49329  0.82277  1.0000
  C   C2228     1.0  0.42072  0.94608  0.83658  1.0000
  H   H3909     1.0  0.41439  0.94436  0.85056  1.0000
  C   C2229     1.0  0.62339  0.84694  0.89953  1.0000
  C   C2230     1.0  0.63787  0.60150  0.94757  1.0000
  H   H3910     1.0  0.55640  0.96741  0.82291  1.0000
  H   H3911     1.0  0.44836  0.56260  0.79242  1.0000
  H   H3912     1.0  0.37077  0.62658  0.94881  1.0000
  C   C2231     1.0  0.46052  0.79569  0.97635  1.0000
  C   C2232     1.0  0.61909  0.60621  0.94546  1.0000
  H   H3913     1.0  0.46037  0.48752  0.94435  1.0000
  H   H3914     1.0  0.50565  0.68582  0.89297  1.0000
  H   H3915     1.0  0.47272  0.71649  0.93674  1.0000
  C   C2233     1.0  0.55462  0.89805  0.82196  1.0000
  S   S541      1.0  0.58959  0.93629  0.78495  1.0000
  H   H3916     1.0  0.46619  0.91180  0.82142  1.0000
  C   C2234     1.0  0.65281  0.58174  0.85324  1.0000
  H   H3917     1.0  0.33934  0.54001  0.84021  1.0000
  C   C2235     1.0  0.52947  0.95194  0.80725  1.0000
  H   H3918     1.0  0.42116  0.60206  0.91380  1.0000
  C   C2236     1.0  0.36318  0.58770  0.92798  1.0000
  H   H3919     1.0  0.63536  0.87346  0.87252  1.0000
  C   C2237     1.0  0.65358  0.68399  0.87986  1.0000
  H   H3920     1.0  0.60203  0.82064  0.89003  1.0000
  H   H3921     1.0  0.53886  0.64258  0.92566  1.0000
  N   N122      1.0  0.62888  0.83893  0.88388  1.0000
  C   C2238     1.0  0.33912  0.50130  0.79934  1.0000
  C   C2239     1.0  0.43052  0.76293  0.95180  1.0000
  H   H3922     1.0  0.48481  0.68568  0.91870  1.0000
  C   C2240     1.0  0.52934  0.90657  0.75128  1.0000
  S   S542      1.0  0.37610  0.57878  0.98276  1.0000
  H   H3923     1.0  0.64242  0.61379  0.94393  1.0000
  H   H3924     1.0  0.42492  0.73879  0.96874  1.0000
  H   H3925     1.0  0.61384  0.59437  0.94879  1.0000
  C   C2241     1.0  0.45760  0.53669  0.78802  1.0000
  C   C2242     1.0  0.60259  0.95157  0.77961  1.0000
  H   H3926     1.0  0.57239  0.62929  0.98012  1.0000
  H   H3927     1.0  0.62348  0.93845  0.76226  1.0000
  N   N123      1.0  0.53093  0.94094  0.79475  1.0000
  H   H3928     1.0  0.36833  0.54479  0.95203  1.0000
  C   C2243     1.0  0.45209  0.58432  0.95606  1.0000
  C   C2244     1.0  0.41574  0.91282  0.83145  1.0000
  H   H3929     1.0  0.57992  0.62835  0.95251  1.0000
  C   C2245     1.0  0.59653  0.96604  0.78720  1.0000
  C   C2246     1.0  0.34469  0.63266  0.96278  1.0000
  C   C2247     1.0  0.44447  0.57901  0.94336  1.0000
  H   H3930     1.0  0.44626  0.93012  0.83760  1.0000
  H   H3931     1.0  0.41941  0.62455  0.91309  1.0000
  H   H3932     1.0  0.47358  0.79110  0.95061  1.0000
  H   H3933     1.0  0.47309  0.59744  0.96716  1.0000
  C   C2248     1.0  0.45551  0.56244  0.93755  1.0000
  H   H3934     1.0  0.54361  0.91527  0.78999  1.0000
  H   H3935     1.0  0.46599  0.57744  0.95509  1.0000
  H   H3936     1.0  0.45273  0.59814  0.95053  1.0000
  H   H3937     1.0  0.40423  0.89663  0.81192  1.0000
  C   C2249     1.0  0.42051  0.61109  0.96955  1.0000
  C   C2250     1.0  0.64774  0.59327  0.89884  1.0000
  H   H3938     1.0  0.60788  0.85773  0.87301  1.0000
  C   C2251     1.0  0.47753  0.88473  0.82717  1.0000
  H   H3939     1.0  0.44541  0.96274  0.77834  1.0000
  H   H3940     1.0  0.42711  0.61432  0.95572  1.0000
  H   H3941     1.0  0.38314  0.49163  0.86505  1.0000
  H   H3942     1.0  0.43097  0.57750  0.94855  1.0000
  H   H3943     1.0  0.44408  0.58955  0.93142  1.0000
  C   C2252     1.0  0.56053  0.80082  0.98197  1.0000
  H   H3944     1.0  0.46618  0.90259  0.84408  1.0000
  H   H3945     1.0  0.64510  0.82037  0.78187  1.0000
  H   H3946     1.0  0.53534  0.97822  0.81821  1.0000
  H   H3947     1.0  0.64338  0.53345  0.83253  1.0000
  H   H3948     1.0  0.58632  0.76782  0.93206  1.0000
  H   H3949     1.0  0.52208  0.94731  0.76028  1.0000
  H   H3950     1.0  0.38427  0.56888  0.94001  1.0000
  H   H3951     1.0  0.34829  0.50974  0.79182  1.0000
  H   H3952     1.0  0.40157  0.97010  0.73923  1.0000
  H   H3953     1.0  0.44947  0.55954  0.92842  1.0000
  H   H3954     1.0  0.46875  0.56422  0.93066  1.0000
  H   H3955     1.0  0.45638  0.55116  0.94880  1.0000
  H   H3956     1.0  0.53396  0.67839  0.97675  1.0000
  H   H3957     1.0  0.36881  0.58430  0.91502  1.0000
  H   H3958     1.0  0.38917  0.59627  0.93981  1.0000
  H   H3959     1.0  0.35565  0.55759  0.80320  1.0000
  H   H3960     1.0  0.52203  0.96534  0.80287  1.0000
  H   H3961     1.0  0.43559  0.90878  0.89710  1.0000
  C   C2253     1.0  0.39500  0.98106  0.74580  1.0000
  H   H3962     1.0  0.36524  0.63025  0.91005  1.0000
  C   C2254     1.0  0.33694  0.52067  0.95293  1.0000
  C   C2255     1.0  0.46261  0.74948  0.96826  1.0000
  H   H3963     1.0  0.34245  0.61034  0.94598  1.0000
  C   C2256     1.0  0.42340  0.90906  0.85932  1.0000
  H   H3964     1.0  0.35518  0.63844  0.93528  1.0000
  C   C2257     1.0  0.63451  0.58182  0.90488  1.0000
  H   H3965     1.0  0.64009  0.68551  0.87867  1.0000
  C   C2258     1.0  0.51774  0.70537  0.87425  1.0000
  H   H3966     1.0  0.44480  0.89496  0.82271  1.0000
  H   H3967     1.0  0.44748  0.90029  0.86898  1.0000
  H   H3968     1.0  0.47058  0.53496  0.79070  1.0000
  N   N124      1.0  0.44594  0.74339  0.97682  1.0000
  H   H3969     1.0  0.55443  0.95980  0.79699  1.0000
  H   H3970     1.0  0.36031  0.60048  0.95581  1.0000
  C   C2259     1.0  0.46152  0.79647  0.95862  1.0000
  H   H3971     1.0  0.43566  0.96414  0.81790  1.0000
  H   H3972     1.0  0.59360  0.76128  0.96140  1.0000
  H   H3973     1.0  0.38782  0.62919  0.92320  1.0000
  H   H3974     1.0  0.50828  0.93113  0.80976  1.0000
  H   H3975     1.0  0.34541  0.62652  0.88368  1.0000
  C   C2260     1.0  0.33080  0.49883  0.87418  1.0000
  H   H3976     1.0  0.55676  0.92511  0.79597  1.0000
  H   H3977     1.0  0.45314  0.97310  0.74517  1.0000
  H   H3978     1.0  0.54953  0.76181  0.94865  1.0000
  H   H3979     1.0  0.64373  0.72110  0.90792  1.0000
  C   C2261     1.0  0.61869  0.94964  0.76803  1.0000
  H   H3980     1.0  0.62134  0.59004  0.90423  1.0000
  H   H3981     1.0  0.65137  0.53445  0.95071  1.0000
  H   H3982     1.0  0.63447  0.57446  0.91854  1.0000
  H   H3983     1.0  0.64705  0.60076  0.88538  1.0000
  C   C2262     1.0  0.34195  0.62281  0.91175  1.0000
  H   H3984     1.0  0.41626  0.58550  0.97208  1.0000
  C   C2263     1.0  0.62605  0.69803  0.90812  1.0000
  H   H3985     1.0  0.42179  0.78250  0.88818  1.0000
  C   C2264     1.0  0.61303  0.70920  0.92068  1.0000
  C   C2265     1.0  0.36504  0.55555  0.94096  1.0000
  C   C2266     1.0  0.41805  0.96968  0.78910  1.0000
  H   H3986     1.0  0.39985  0.79447  0.88789  1.0000
  C   C2267     1.0  0.59463  0.71311  0.91781  1.0000
  H   H3987     1.0  0.44998  0.70835  0.96964  1.0000
  H   H3988     1.0  0.44121  0.73423  0.84347  1.0000
  H   H3989     1.0  0.36421  0.57378  0.95513  1.0000
  H   H3990     1.0  0.63615  0.68072  0.93544  1.0000
  H   H3991     1.0  0.62173  0.68566  0.91100  1.0000
  H   H3992     1.0  0.62416  0.70486  0.89470  1.0000
  C   C2268     1.0  0.63667  0.84489  0.81844  1.0000
  H   H3993     1.0  0.61642  0.72181  0.91872  1.0000
  H   H3994     1.0  0.61265  0.70234  0.93451  1.0000
  H   H3995     1.0  0.45377  0.52397  0.79237  1.0000
  C   C2269     1.0  0.56911  0.62867  0.94673  1.0000
  H   H3996     1.0  0.54736  0.85136  0.84434  1.0000
  H   H3997     1.0  0.34302  0.51198  0.96376  1.0000
  H   H3998     1.0  0.60722  0.76251  0.81600  1.0000
  H   H3999     1.0  0.59384  0.72155  0.90471  1.0000
  H   H4000     1.0  0.59066  0.70091  0.91906  1.0000
  H   H4001     1.0  0.58546  0.71998  0.92772  1.0000
  N   N125      1.0  0.43162  0.55735  0.82782  1.0000
  C   C2270     1.0  0.42918  0.54813  0.84677  1.0000
  C   C2271     1.0  0.41414  0.56405  0.82284  1.0000
  C   C2272     1.0  0.44206  0.54394  0.81735  1.0000
  C   C2273     1.0  0.44107  0.57185  0.82348  1.0000
  C   C2274     1.0  0.43813  0.58204  0.83777  1.0000
  C   C2275     1.0  0.44602  0.53771  0.85328  1.0000
  C   C2276     1.0  0.40049  0.57704  0.83288  1.0000
  C   C2277     1.0  0.38325  0.58171  0.82714  1.0000
  C   C2278     1.0  0.44264  0.53238  0.87316  1.0000
  H   H4002     1.0  0.42090  0.53867  0.84938  1.0000
  H   H4003     1.0  0.42205  0.55732  0.85531  1.0000
  H   H4004     1.0  0.41552  0.57093  0.80891  1.0000
  H   H4005     1.0  0.40828  0.55290  0.82429  1.0000
  H   H4006     1.0  0.43617  0.53234  0.82147  1.0000
  H   H4007     1.0  0.45540  0.53910  0.81991  1.0000
  H   H4008     1.0  0.45536  0.56680  0.82011  1.0000
  H   H4009     1.0  0.43783  0.58144  0.81150  1.0000
  H   H4010     1.0  0.44520  0.57408  0.84817  1.0000
  H   H4011     1.0  0.42437  0.58567  0.84417  1.0000
  H   H4012     1.0  0.45114  0.52555  0.84840  1.0000
  H   H4013     1.0  0.45623  0.54531  0.84863  1.0000
  H   H4014     1.0  0.39795  0.57156  0.84710  1.0000
  H   H4015     1.0  0.40471  0.58938  0.83003  1.0000
  H   H4016     1.0  0.38466  0.58876  0.81327  1.0000
  H   H4017     1.0  0.37862  0.56980  0.82881  1.0000
  H   H4018     1.0  0.37337  0.59022  0.83522  1.0000
  H   H4019     1.0  0.43765  0.54401  0.87889  1.0000
  H   H4020     1.0  0.43308  0.52399  0.87821  1.0000
  H   H4021     1.0  0.53765  0.95903  0.83564  1.0000
  C   C2279     1.0  0.36157  0.61778  0.91190  1.0000
  H   H4022     1.0  0.58390  0.60665  0.93508  1.0000
  C   C2280     1.0  0.57688  0.62031  0.93103  1.0000
  H   H4023     1.0  0.34703  0.52620  0.94247  1.0000
  H   H4024     1.0  0.48316  0.72794  0.97790  1.0000
  H   H4025     1.0  0.38594  0.90808  0.82557  1.0000
  N   N126      1.0  0.55134  0.82965  0.83261  1.0000
  C   C2281     1.0  0.54021  0.82187  0.82637  1.0000
  C   C2282     1.0  0.54185  0.84769  0.83525  1.0000
  C   C2283     1.0  0.56749  0.83120  0.81853  1.0000
  C   C2284     1.0  0.55691  0.81828  0.84906  1.0000
  C   C2285     1.0  0.54238  0.81413  0.86514  1.0000
  C   C2286     1.0  0.54940  0.80511  0.81947  1.0000
  C   C2287     1.0  0.52177  0.85112  0.84136  1.0000
  C   C2288     1.0  0.54995  0.80325  0.88099  1.0000
  C   C2289     1.0  0.53634  0.79625  0.81734  1.0000
  H   H4026     1.0  0.53476  0.83153  0.81548  1.0000
  H   H4027     1.0  0.52884  0.81901  0.83670  1.0000
  H   H4028     1.0  0.57565  0.81808  0.81726  1.0000
  H   H4029     1.0  0.56552  0.80577  0.84656  1.0000
  H   H4030     1.0  0.56495  0.82442  0.85333  1.0000
  H   H4031     1.0  0.53429  0.80674  0.86262  1.0000
  H   H4032     1.0  0.53414  0.82622  0.86891  1.0000
  H   H4033     1.0  0.55794  0.80840  0.80647  1.0000
  H   H4034     1.0  0.55752  0.79567  0.82827  1.0000
  H   H4035     1.0  0.58475  0.83492  0.83303  1.0000
  H   H4036     1.0  0.51578  0.85313  0.83010  1.0000
  H   H4037     1.0  0.51718  0.84025  0.85137  1.0000
  H   H4038     1.0  0.55986  0.79164  0.87785  1.0000
  H   H4039     1.0  0.55608  0.81106  0.88557  1.0000
  H   H4040     1.0  0.53946  0.79881  0.89175  1.0000
  H   H4041     1.0  0.54334  0.78481  0.81163  1.0000
  H   H4042     1.0  0.52813  0.79169  0.83017  1.0000
  H   H4043     1.0  0.52786  0.80538  0.80860  1.0000
  H   H4044     1.0  0.60310  0.82838  0.80517  1.0000
  H   H4045     1.0  0.41686  0.80604  0.88277  1.0000
  H   H4046     1.0  0.59562  0.60584  0.84877  1.0000
  H   H4047     1.0  0.40856  0.83229  0.80099  1.0000
  H   H4048     1.0  0.41886  0.54660  0.92610  1.0000
  N   N127      1.0  0.57738  0.72415  0.83459  1.0000
  C   C2290     1.0  0.55816  0.73155  0.83597  1.0000
  C   C2291     1.0  0.58152  0.71859  0.85257  1.0000
  C   C2292     1.0  0.58659  0.73847  0.82380  1.0000
  C   C2293     1.0  0.58390  0.70932  0.82538  1.0000
  C   C2294     1.0  0.60614  0.73511  0.82389  1.0000
  C   C2295     1.0  0.56773  0.71121  0.86803  1.0000
  C   C2296     1.0  0.57484  0.70321  0.88462  1.0000
  C   C2297     1.0  0.61406  0.75013  0.81189  1.0000
  H   H4049     1.0  0.55053  0.72179  0.84389  1.0000
  H   H4050     1.0  0.59408  0.70892  0.85252  1.0000
  H   H4051     1.0  0.58332  0.72986  0.85630  1.0000
  H   H4052     1.0  0.58004  0.75082  0.82810  1.0000
  H   H4053     1.0  0.58581  0.74122  0.80990  1.0000
  H   H4054     1.0  0.58223  0.71387  0.81167  1.0000
  H   H4055     1.0  0.59813  0.70437  0.82433  1.0000
  H   H4056     1.0  0.61363  0.72320  0.81927  1.0000
  H   H4057     1.0  0.60807  0.73383  0.83711  1.0000
  H   H4058     1.0  0.55633  0.72188  0.87088  1.0000
  H   H4059     1.0  0.56307  0.70112  0.86526  1.0000
  H   H4060     1.0  0.58041  0.71256  0.88757  1.0000
  H   H4061     1.0  0.56424  0.69968  0.89574  1.0000
  H   H4062     1.0  0.58503  0.69128  0.88319  1.0000
  H   H4063     1.0  0.62791  0.74750  0.81255  1.0000
  H   H4064     1.0  0.61338  0.75153  0.79820  1.0000
  H   H4065     1.0  0.35216  0.49123  0.94352  1.0000
  N   N128      1.0  0.43977  0.79435  0.83348  1.0000
  C   C2298     1.0  0.43549  0.79415  0.85269  1.0000
  C   C2299     1.0  0.45879  0.79416  0.82594  1.0000
  C   C2300     1.0  0.42935  0.81122  0.82455  1.0000
  C   C2301     1.0  0.43481  0.77954  0.82997  1.0000
  C   C2302     1.0  0.44307  0.76096  0.83908  1.0000
  C   C2303     1.0  0.41636  0.79424  0.86220  1.0000
  C   C2304     1.0  0.43392  0.81570  0.80429  1.0000
  C   C2305     1.0  0.47187  0.78342  0.83767  1.0000
  C   C2306     1.0  0.49050  0.78133  0.82711  1.0000
  C   C2307     1.0  0.43465  0.74743  0.83722  1.0000
  C   C2308     1.0  0.41362  0.79433  0.88141  1.0000
  H   H4066     1.0  0.43891  0.80554  0.85463  1.0000
  H   H4067     1.0  0.44343  0.78262  0.86003  1.0000
  H   H4068     1.0  0.46295  0.78973  0.81348  1.0000
  H   H4069     1.0  0.46101  0.80761  0.82253  1.0000
  H   H4070     1.0  0.43075  0.82237  0.82885  1.0000
  H   H4071     1.0  0.41529  0.81127  0.82828  1.0000
  H   H4072     1.0  0.42048  0.78115  0.83339  1.0000
  H   H4073     1.0  0.43846  0.77976  0.81583  1.0000
  H   H4074     1.0  0.44163  0.75968  0.85318  1.0000
  H   H4075     1.0  0.45702  0.75753  0.83295  1.0000
  H   H4076     1.0  0.40737  0.80595  0.85645  1.0000
  H   H4077     1.0  0.41266  0.78247  0.86167  1.0000
  H   H4078     1.0  0.43198  0.80558  0.79897  1.0000
  H   H4079     1.0  0.44755  0.81704  0.79923  1.0000
  H   H4080     1.0  0.47075  0.79031  0.84790  1.0000
  H   H4081     1.0  0.46960  0.77032  0.84433  1.0000
  H   H4082     1.0  0.49961  0.77495  0.83603  1.0000
  H   H4083     1.0  0.49267  0.77318  0.81765  1.0000
  H   H4084     1.0  0.49335  0.79422  0.82000  1.0000
  H   H4085     1.0  0.42074  0.74970  0.84380  1.0000
  H   H4086     1.0  0.43587  0.74783  0.82328  1.0000
  S   S543      1.0  0.63045  0.58959  0.86003  1.0000
  H   H4087     1.0  0.44287  0.60568  0.84055  1.0000
  H   H4088     1.0  0.49285  0.63110  0.94810  1.0000
  H   H4089     1.0  0.56388  0.83763  0.80566  1.0000
  H   H4090     1.0  0.62483  0.78270  0.96141  1.0000
  S   S544      1.0  0.36355  0.51563  0.88658  1.0000
  C   C2309     1.0  0.41176  0.53672  0.93366  1.0000
  H   H4091     1.0  0.40747  0.53107  0.91120  1.0000
  C   C2310     1.0  0.44486  0.59873  0.83013  1.0000
  C   C2311     1.0  0.40513  0.52810  0.92525  1.0000
  H   H4092     1.0  0.48226  0.68423  0.94113  1.0000
  H   H4093     1.0  0.65543  0.51393  0.85852  1.0000
  H   H4094     1.0  0.45490  0.52497  0.87740  1.0000
  H   H4095     1.0  0.61841  0.61283  0.93174  1.0000
  N   N129      1.0  0.44271  0.58149  0.97492  1.0000
  C   C2312     1.0  0.53314  0.62822  0.78683  1.0000
  H   H4096     1.0  0.36737  0.54471  0.82002  1.0000
  H   H4097     1.0  0.58412  0.96761  0.79619  1.0000
  C   C2313     1.0  0.40833  0.53321  0.95190  1.0000
  S   S545      1.0  0.41359  0.54595  0.96269  1.0000
  C   C2314     1.0  0.64009  0.71040  0.84474  1.0000
  H   H4098     1.0  0.34351  0.64602  0.89082  1.0000
  H   H4099     1.0  0.53897  0.61867  0.77842  1.0000
  H   H4100     1.0  0.63385  0.75873  0.94584  1.0000
  H   H4101     1.0  0.58111  0.68634  0.84600  1.0000
  C   C2315     1.0  0.54687  0.95383  0.80960  1.0000
  H   H4102     1.0  0.43943  0.93210  0.81826  1.0000
  C   C2316     1.0  0.38375  0.49004  0.85226  1.0000
  H   H4103     1.0  0.44040  0.49751  0.95711  1.0000
  C   C2317     1.0  0.62864  0.96219  0.76406  1.0000
  H   H4104     1.0  0.56297  0.64243  0.94173  1.0000
  H   H4105     1.0  0.65646  0.60494  0.83364  1.0000
  H   H4106     1.0  0.56120  0.60505  0.96193  1.0000
  H   H4107     1.0  0.43601  0.55815  0.97411  1.0000
  C   C2318     1.0  0.35638  0.61021  0.94436  1.0000
  H   H4108     1.0  0.42019  0.91569  0.81699  1.0000
  H   H4109     1.0  0.45894  0.59570  0.82432  1.0000
  C   C2319     1.0  0.51472  0.86745  0.84874  1.0000
  C   C2320     1.0  0.59537  0.84173  0.80586  1.0000
  H   H4110     1.0  0.50043  0.86953  0.85314  1.0000
  H   H4111     1.0  0.52028  0.86598  0.86014  1.0000
  C   C2321     1.0  0.55182  0.73880  0.81859  1.0000
  C   C2322     1.0  0.50643  0.70270  0.93784  1.0000
  H   H4112     1.0  0.36880  0.61281  0.90003  1.0000
  H   H4113     1.0  0.42607  0.83605  0.78255  1.0000
  H   H4114     1.0  0.52179  0.63949  0.81610  1.0000
  C   C2323     1.0  0.51280  0.70160  0.90699  1.0000
  H   H4115     1.0  0.54400  0.85754  0.82282  1.0000
  H   H4116     1.0  0.57301  0.85491  0.82152  1.0000
  H   H4117     1.0  0.52375  0.58285  0.85996  1.0000
  H   H4118     1.0  0.55774  0.74977  0.81036  1.0000
  H   H4119     1.0  0.55496  0.72850  0.81123  1.0000
  S   S546      1.0  0.61754  0.90670  0.74903  1.0000
  Fe  Fe272     1.0  0.34407  0.54082  0.88754  1.0000
  H   H4120     1.0  0.41048  0.91777  0.86266  1.0000
  C   C2324     1.0  0.65469  0.68005  0.89922  1.0000
  H   H4121     1.0  0.61093  0.61521  0.95392  1.0000
  H   H4122     1.0  0.51170  0.66927  0.94459  1.0000
  H   H4123     1.0  0.40098  0.89466  0.85067  1.0000
  Fe  Fe273     1.0  0.59688  0.91368  0.77196  1.0000
  H   H4124     1.0  0.52482  0.60656  0.83398  1.0000
  H   H4125     1.0  0.55582  0.89410  0.75266  1.0000
  N   N130      1.0  0.54873  0.62453  0.97740  1.0000
  H   H4126     1.0  0.53211  0.59382  0.87090  1.0000
  H   H4127     1.0  0.43772  0.60754  0.82008  1.0000
  H   H4128     1.0  0.60376  0.84908  0.80787  1.0000
  C   C2325     1.0  0.42827  0.96223  0.83157  1.0000
  H   H4129     1.0  0.34415  0.49002  0.85105  1.0000
  H   H4130     1.0  0.64366  0.69948  0.93378  1.0000
  Fe  Fe274     1.0  0.59607  0.90369  0.73879  1.0000
  S   S547      1.0  0.35584  0.54850  0.90500  1.0000
  H   H4131     1.0  0.48050  0.98107  0.74350  1.0000
  H   H4132     1.0  0.63143  0.56475  0.83254  1.0000
  H   H4133     1.0  0.49290  0.70728  0.89157  1.0000
  C   C2326     1.0  0.53798  0.95033  0.77654  1.0000
  H   H4134     1.0  0.51701  0.66492  0.82484  1.0000
  H   H4135     1.0  0.62046  0.73533  0.96375  1.0000
  H   H4136     1.0  0.51921  0.72756  0.94562  1.0000
  C   C2327     1.0  0.52429  0.59580  0.86109  1.0000
  H   H4137     1.0  0.51866  0.63154  0.84608  1.0000
  H   H4138     1.0  0.61795  0.86115  0.89577  1.0000
  C   C2328     1.0  0.54356  0.62438  0.80086  1.0000
  C   C2329     1.0  0.53616  0.63784  0.81253  1.0000
  H   H4139     1.0  0.54347  0.61092  0.80845  1.0000
  H   H4140     1.0  0.57645  0.66860  0.82901  1.0000
  H   H4141     1.0  0.55667  0.72699  0.96974  1.0000
  H   H4142     1.0  0.57953  0.85306  0.87083  1.0000
  C   C2330     1.0  0.48658  0.69227  0.92797  1.0000
  H   H4143     1.0  0.34785  0.50488  0.92372  1.0000
  H   H4144     1.0  0.50350  0.96353  0.77962  1.0000
  C   C2331     1.0  0.57608  0.69320  0.83402  1.0000
  H   H4145     1.0  0.56051  0.94774  0.74427  1.0000
  H   H4146     1.0  0.33997  0.59115  0.89708  1.0000
  H   H4147     1.0  0.59759  0.61600  0.82594  1.0000
  H   H4148     1.0  0.53845  0.65042  0.80365  1.0000
  H   H4149     1.0  0.55161  0.65116  0.96659  1.0000
  C   C2332     1.0  0.34159  0.49728  0.93627  1.0000
  C   C2333     1.0  0.53253  0.60583  0.84347  1.0000
  H   H4150     1.0  0.51794  0.87899  0.83863  1.0000
  C   C2334     1.0  0.51327  0.93797  0.79627  1.0000
  C   C2335     1.0  0.35476  0.55315  0.81749  1.0000
  C   C2336     1.0  0.49278  0.75113  0.96918  1.0000
  C   C2337     1.0  0.43048  0.81105  0.97903  1.0000
  C   C2338     1.0  0.39513  0.51602  0.93512  1.0000
  H   H4151     1.0  0.64914  0.84837  0.90164  1.0000
  C   C2339     1.0  0.64508  0.68967  0.82684  1.0000
  C   C2340     1.0  0.52499  0.70217  0.93944  1.0000
  H   H4152     1.0  0.55716  0.62498  0.79414  1.0000
  H   H4153     1.0  0.59128  0.84829  0.79330  1.0000
  H   H4154     1.0  0.51628  0.65913  0.84779  1.0000
  H   H4155     1.0  0.53327  0.68216  0.84326  1.0000
  H   H4156     1.0  0.45994  0.76384  0.96574  1.0000
  N   N131      1.0  0.65731  0.58218  0.96918  1.0000
  H   H4157     1.0  0.57316  0.83307  0.88312  1.0000
  H   H4158     1.0  0.48559  0.94363  0.77979  1.0000
  C   C2341     1.0  0.58949  0.60893  0.83742  1.0000
  C   C2342     1.0  0.47628  0.64960  0.96303  1.0000
  C   C2343     1.0  0.39910  0.52052  0.96161  1.0000
  H   H4159     1.0  0.52167  0.94717  0.82028  1.0000
  H   H4160     1.0  0.43174  0.55173  0.79348  1.0000
  C   C2344     1.0  0.33617  0.50003  0.81915  1.0000
  H   H4161     1.0  0.63453  0.85177  0.82856  1.0000
  C   C2345     1.0  0.52420  0.66392  0.83484  1.0000
  C   C2346     1.0  0.53248  0.62444  0.84422  1.0000
  H   H4162     1.0  0.45850  0.54119  0.77373  1.0000
  H   H4163     1.0  0.42482  0.61762  0.97721  1.0000
  H   H4164     1.0  0.64075  0.85131  0.93214  1.0000
  H   H4165     1.0  0.64988  0.66798  0.90592  1.0000
  H   H4166     1.0  0.42101  0.89569  0.86435  1.0000
  C   C2347     1.0  0.58431  0.83882  0.87519  1.0000
  H   H4167     1.0  0.39609  0.97672  0.75969  1.0000
  H   H4168     1.0  0.47271  0.96236  0.78815  1.0000
  C   C2348     1.0  0.56372  0.75785  0.94838  1.0000
  C   C2349     1.0  0.33873  0.63391  0.89401  1.0000
  H   H4169     1.0  0.53357  0.59749  0.97344  1.0000
  H   H4170     1.0  0.56173  0.69658  0.83728  1.0000
  C   C2350     1.0  0.45956  0.65989  0.96684  1.0000
  S   S548      1.0  0.38573  0.50574  0.92524  1.0000
  H   H4171     1.0  0.53193  0.96448  0.77429  1.0000
  C   C2351     1.0  0.38869  0.50266  0.83746  1.0000
  H   H4172     1.0  0.56992  0.63287  0.81463  1.0000
  H   H4173     1.0  0.51088  0.60287  0.86570  1.0000
  H   H4174     1.0  0.54580  0.59808  0.83980  1.0000
  C   C2352     1.0  0.52548  0.68232  0.83406  1.0000
  H   H4175     1.0  0.61260  0.84159  0.90906  1.0000
  N   N132      1.0  0.54335  0.63427  0.82870  1.0000
  H   H4176     1.0  0.53308  0.70655  0.92648  1.0000
  H   H4177     1.0  0.38413  0.50339  0.96083  1.0000
  C   C2353     1.0  0.56249  0.77773  0.96595  1.0000
  C   C2354     1.0  0.56142  0.78163  0.98365  1.0000
  H   H4178     1.0  0.51010  0.71591  0.90564  1.0000
  C   C2355     1.0  0.52453  0.71376  0.95129  1.0000
  H   H4179     1.0  0.64381  0.80393  0.81260  1.0000
  H   H4180     1.0  0.44118  0.76996  0.94686  1.0000
  C   C2356     1.0  0.39471  0.61761  0.91782  1.0000
  N   N133      1.0  0.64496  0.69423  0.90892  1.0000
  H   H4181     1.0  0.51227  0.69037  0.83761  1.0000
  H   H4182     1.0  0.64590  0.59344  0.93822  1.0000
  H   H4183     1.0  0.40431  0.92347  0.83427  1.0000
  S   S549      1.0  0.63829  0.67418  0.82078  1.0000
  H   H4184     1.0  0.53149  0.68885  0.94534  1.0000
  H   H4185     1.0  0.54232  0.96562  0.74109  1.0000
  H   H4186     1.0  0.43468  0.75442  0.92767  1.0000
  H   H4187     1.0  0.57774  0.59587  0.98016  1.0000
  C   C2357     1.0  0.39682  0.89643  0.82549  1.0000
  Fe  Fe275     1.0  0.43366  0.92984  0.77809  1.0000
  C   C2358     1.0  0.54320  0.92352  0.79880  1.0000
  H   H4188     1.0  0.64368  0.60239  0.90761  1.0000
  H   H4189     1.0  0.56534  0.90378  0.82195  1.0000
  H   H4190     1.0  0.45524  0.70121  0.91779  1.0000
  H   H4191     1.0  0.55935  0.88977  0.81232  1.0000
  C   C2359     1.0  0.59793  0.83496  0.88607  1.0000
  C   C2360     1.0  0.54248  0.65161  0.83219  1.0000
  H   H4192     1.0  0.34615  0.64507  0.96446  1.0000
  H   H4193     1.0  0.52846  0.75624  0.82925  1.0000
  H   H4194     1.0  0.39349  0.59190  0.91880  1.0000
  H   H4195     1.0  0.53630  0.62384  0.85639  1.0000
  C   C2361     1.0  0.43504  0.92987  0.83271  1.0000
  H   H4196     1.0  0.39488  0.62129  0.90367  1.0000
  H   H4197     1.0  0.56410  0.61257  0.82180  1.0000
  C   C2362     1.0  0.38612  0.60183  0.92661  1.0000
  C   C2363     1.0  0.64266  0.82723  0.79209  1.0000
  C   C2364     1.0  0.53583  0.94365  0.76150  1.0000
  H   H4198     1.0  0.34674  0.53082  0.80449  1.0000
  H   H4199     1.0  0.63523  0.86820  0.79797  1.0000
  H   H4200     1.0  0.45647  0.66793  0.97610  1.0000
  H   H4201     1.0  0.56398  0.61236  0.85320  1.0000
  C   C2365     1.0  0.63937  0.59207  0.96659  1.0000
  H   H4202     1.0  0.37251  0.55149  0.92877  1.0000
  H   H4203     1.0  0.57891  0.75178  0.91467  1.0000
  C   C2366     1.0  0.52481  0.64290  0.92858  1.0000
  H   H4204     1.0  0.33214  0.57872  0.88729  1.0000
  H   H4205     1.0  0.54451  0.62130  0.95379  1.0000
  H   H4206     1.0  0.53159  0.68839  0.82068  1.0000
  C   C2367     1.0  0.56223  0.62488  0.82575  1.0000
  H   H4207     1.0  0.55127  0.65871  0.82138  1.0000
  H   H4208     1.0  0.59595  0.67648  0.81852  1.0000
  C   C2368     1.0  0.62241  0.97683  0.77145  1.0000
  C   C2369     1.0  0.43539  0.91051  0.87021  1.0000
  H   H4209     1.0  0.35091  0.55794  0.94168  1.0000
  H   H4210     1.0  0.50019  0.71672  0.93397  1.0000
  H   H4211     1.0  0.52817  0.90624  0.81881  1.0000
  C   C2370     1.0  0.55550  0.61917  0.96016  1.0000
  H   H4212     1.0  0.45309  0.61320  0.97068  1.0000
  H   H4213     1.0  0.34831  0.51003  0.85209  1.0000
  H   H4214     1.0  0.55806  0.76702  0.91451  1.0000
  H   H4215     1.0  0.49916  0.69779  0.95118  1.0000
  H   H4216     1.0  0.54731  0.64982  0.84409  1.0000
  H   H4217     1.0  0.41460  0.91802  0.89165  1.0000
  H   H4218     1.0  0.51808  0.71921  0.87226  1.0000
  H   H4219     1.0  0.56662  0.62059  0.92445  1.0000
  C   C2371     1.0  0.53896  0.91243  0.81758  1.0000
  H   H4220     1.0  0.41412  0.60990  0.93370  1.0000
  C   C2372     1.0  0.39222  0.51225  0.95324  1.0000
  H   H4221     1.0  0.42354  0.89482  0.89450  1.0000
  H   H4222     1.0  0.52288  0.63315  0.92275  1.0000
  C   C2373     1.0  0.57259  0.76952  0.93187  1.0000
  C   C2374     1.0  0.47349  0.71012  0.92627  1.0000
  H   H4223     1.0  0.56612  0.78344  0.93124  1.0000
  H   H4224     1.0  0.63108  0.81295  0.88071  1.0000
  H   H4225     1.0  0.51650  0.70984  0.96443  1.0000
  C   C2375     1.0  0.58577  0.75118  0.96698  1.0000
  C   C2376     1.0  0.44525  0.89782  0.83505  1.0000
  C   C2377     1.0  0.51574  0.67446  0.93032  1.0000
  H   H4226     1.0  0.39607  0.61284  0.96285  1.0000
  C   C2378     1.0  0.33810  0.50272  0.85464  1.0000
  C   C2379     1.0  0.44417  0.55009  0.79728  1.0000
  H   H4227     1.0  0.51997  0.63926  0.94286  1.0000
  H   H4228     1.0  0.44619  0.72078  0.92590  1.0000
  C   C2380     1.0  0.57175  0.76530  0.91522  1.0000
  H   H4229     1.0  0.52129  0.66427  0.90716  1.0000
  H   H4230     1.0  0.55205  0.94967  0.77485  1.0000
  H   H4231     1.0  0.41928  0.88417  0.83653  1.0000
  C   C2381     1.0  0.58157  0.68042  0.82210  1.0000
  H   H4232     1.0  0.39141  0.98033  0.79971  1.0000
  H   H4233     1.0  0.64313  0.56576  0.94952  1.0000
  H   H4234     1.0  0.34140  0.49105  0.88099  1.0000
  H   H4235     1.0  0.50143  0.66001  0.92215  1.0000
  H   H4236     1.0  0.45060  0.69999  0.94088  1.0000
  H   H4237     1.0  0.57789  0.77418  0.90374  1.0000
  H   H4238     1.0  0.52787  0.75115  0.80945  1.0000
  H   H4239     1.0  0.53511  0.92021  0.82758  1.0000
  H   H4240     1.0  0.52541  0.73516  0.82970  1.0000
  C   C2382     1.0  0.53217  0.74573  0.82201  1.0000
  C   C2383     1.0  0.57116  0.62004  0.84147  1.0000
  H   H4241     1.0  0.52977  0.67431  0.92771  1.0000
  C   C2384     1.0  0.51488  0.66096  0.92098  1.0000
  H   H4242     1.0  0.57636  0.68635  0.81007  1.0000
  H   H4243     1.0  0.63747  0.57255  0.89637  1.0000
  H   H4244     1.0  0.53792  0.71257  0.95267  1.0000
  S   S550      1.0  0.41381  0.94926  0.79173  1.0000
  H   H4245     1.0  0.52720  0.69740  0.90423  1.0000
  C   C2385     1.0  0.45528  0.70786  0.92783  1.0000
  H   H4246     1.0  0.58917  0.59647  0.83488  1.0000
  H   H4247     1.0  0.57230  0.63183  0.84468  1.0000
  H   H4248     1.0  0.58991  0.83300  0.86360  1.0000
  H   H4249     1.0  0.56762  0.74439  0.94643  1.0000
  H   H4250     1.0  0.39139  0.88461  0.83025  1.0000
  H   H4251     1.0  0.64791  0.92568  0.74082  1.0000
  H   H4252     1.0  0.42010  0.81797  0.95599  1.0000
  C   C2386     1.0  0.46388  0.90045  0.83224  1.0000
  C   C2387     1.0  0.50621  0.69933  0.89186  1.0000
  H   H4253     1.0  0.51249  0.70409  0.86367  1.0000
  H   H4254     1.0  0.42046  0.77543  0.92831  1.0000
  H   H4255     1.0  0.46783  0.74648  0.95514  1.0000
  H   H4256     1.0  0.34701  0.62242  0.97465  1.0000
  H   H4257     1.0  0.44428  0.88537  0.84481  1.0000
  H   H4258     1.0  0.53113  0.69722  0.87347  1.0000
  C   C2388     1.0  0.54123  0.64391  0.97356  1.0000
  N   N134      1.0  0.56709  0.75872  0.96531  1.0000
  C   C2389     1.0  0.60638  0.97863  0.78314  1.0000
  H   H4259     1.0  0.51409  0.92901  0.78796  1.0000
  H   H4260     1.0  0.65329  0.55691  0.87138  1.0000
  H   H4261     1.0  0.47723  0.71912  0.91368  1.0000
  H   H4262     1.0  0.44501  0.73658  0.95343  1.0000
  H   H4263     1.0  0.59974  0.74060  0.94388  1.0000
  H   H4264     1.0  0.65250  0.67013  0.95998  1.0000
  C   C2390     1.0  0.43143  0.81170  0.96157  1.0000
  C   C2391     1.0  0.40869  0.89598  0.83712  1.0000
  H   H4265     1.0  0.41285  0.75606  0.94060  1.0000
  H   H4266     1.0  0.57216  0.78465  0.95625  1.0000
  C   C2392     1.0  0.42426  0.76207  0.93618  1.0000
  N   N135      1.0  0.43009  0.91246  0.83987  1.0000
  C   C2393     1.0  0.42668  0.90786  0.88953  1.0000
  H   H4267     1.0  0.58821  0.72603  0.96011  1.0000
  C   C2394     1.0  0.43470  0.97296  0.78232  1.0000
  H   H4268     1.0  0.64863  0.71627  0.88732  1.0000
  C   C2395     1.0  0.65614  0.71449  0.83626  1.0000
  H   H4269     1.0  0.50295  0.88975  0.73922  1.0000
  C   C2396     1.0  0.35772  0.62773  0.94668  1.0000
  H   H4270     1.0  0.32461  0.63751  0.89424  1.0000
  H   H4271     1.0  0.61999  0.71620  0.95746  1.0000
  H   H4272     1.0  0.34901  0.58865  0.93043  1.0000
  H   H4273     1.0  0.53267  0.91406  0.73815  1.0000
  C   C2397     1.0  0.43658  0.74447  0.96287  1.0000
  C   C2398     1.0  0.49907  0.95466  0.79205  1.0000
  H   H4274     1.0  0.41762  0.97394  0.83279  1.0000
  H   H4275     1.0  0.39901  0.63303  0.96489  1.0000
  C   C2399     1.0  0.63430  0.81932  0.88937  1.0000
  H   H4276     1.0  0.41945  0.77073  0.95959  1.0000
  H   H4277     1.0  0.60364  0.97820  0.73875  1.0000
  H   H4278     1.0  0.63007  0.58345  0.97170  1.0000
  S   S551      1.0  0.59764  0.87561  0.75183  1.0000
  C   C2400     1.0  0.39002  0.50013  0.82093  1.0000
  H   H4279     1.0  0.63427  0.60225  0.97442  1.0000
  H   H4280     1.0  0.32822  0.60209  0.87994  1.0000
  H   H4281     1.0  0.49672  0.75120  0.95507  1.0000
  S   S552      1.0  0.64966  0.76661  0.86767  1.0000
  H   H4282     1.0  0.33465  0.63047  0.92171  1.0000
  C   C2401     1.0  0.63706  0.85421  0.80114  1.0000
  H   H4283     1.0  0.54971  0.78426  0.96232  1.0000
  C   C2402     1.0  0.47787  0.74189  0.97799  1.0000
  H   H4284     1.0  0.47747  0.94164  0.80303  1.0000
  H   H4285     1.0  0.33122  0.63437  0.96138  1.0000
  H   H4286     1.0  0.53202  0.64722  0.96473  1.0000
  C   C2403     1.0  0.64406  0.56039  0.82397  1.0000
  C   C2404     1.0  0.59587  0.73575  0.95813  1.0000
  C   C2405     1.0  0.64630  0.68809  0.92786  1.0000
  S   S553      1.0  0.49196  0.64830  0.97451  1.0000
  C   C2406     1.0  0.48273  0.95021  0.79071  1.0000
  H   H4287     1.0  0.39684  0.51741  0.97567  1.0000
  C   C2407     1.0  0.40114  0.61880  0.97044  1.0000
  C   C2408     1.0  0.61233  0.72618  0.96498  1.0000
  H   H4288     1.0  0.61900  0.84975  0.93361  1.0000
  H   H4289     1.0  0.48888  0.76474  0.97075  1.0000
  H   H4290     1.0  0.49541  0.96195  0.80252  1.0000
  C   C2409     1.0  0.63061  0.85396  0.92455  1.0000
  H   H4291     1.0  0.46942  0.71601  0.96541  1.0000
  C   C2410     1.0  0.65137  0.55743  0.95878  1.0000
  H   H4292     1.0  0.50411  0.74439  0.97531  1.0000
  H   H4293     1.0  0.32678  0.50665  0.79473  1.0000
  H   H4294     1.0  0.57248  0.80455  0.97331  1.0000
  C   C2411     1.0  0.45901  0.71118  0.97585  1.0000
  H   H4295     1.0  0.64261  0.55359  0.97136  1.0000
  Fe  Fe276     1.0  0.58957  0.66655  0.98432  1.0000
  C   C2412     1.0  0.44606  0.48929  0.94737  1.0000
  H   H4296     1.0  0.64096  0.82999  0.91635  1.0000
  H   H4297     1.0  0.65054  0.79123  0.91333  1.0000
  H   H4298     1.0  0.45678  0.55465  0.97865  1.0000
  H   H4299     1.0  0.47513  0.68514  0.97812  1.0000
  H   H4300     1.0  0.62719  0.86817  0.91906  1.0000
  H   H4301     1.0  0.43701  0.96103  0.84026  1.0000
  H   H4302     1.0  0.36342  0.48657  0.97281  1.0000
  H   H4303     1.0  0.43674  0.86809  0.96914  1.0000
  C   C2413     1.0  0.46149  0.60147  0.97713  1.0000
  H   H4304     1.0  0.65049  0.78464  0.89410  1.0000
  C   C2414     1.0  0.63741  0.84398  0.91001  1.0000
  C   C2415     1.0  0.42397  0.59126  0.97723  1.0000
  H   H4305     1.0  0.32808  0.55254  0.82305  1.0000
  H   H4306     1.0  0.62869  0.86948  0.85499  1.0000
  H   H4307     1.0  0.60886  0.71958  0.97887  1.0000
  H   H4308     1.0  0.65256  0.56923  0.82275  1.0000
  H   H4309     1.0  0.65659  0.50629  0.83372  1.0000
  H   H4310     1.0  0.54134  0.75606  0.97976  1.0000
  H   H4311     1.0  0.54909  0.80914  0.97668  1.0000
  C   C2416     1.0  0.64328  0.84606  0.87035  1.0000
  C   C2417     1.0  0.63919  0.86587  0.86231  1.0000
  H   H4312     1.0  0.32762  0.49078  0.82621  1.0000
  H   H4313     1.0  0.43070  0.76858  0.98129  1.0000
  H   H4314     1.0  0.47178  0.78975  0.98207  1.0000
  C   C2418     1.0  0.55512  0.74952  0.98028  1.0000
  C   C2419     1.0  0.40427  0.98283  0.79442  1.0000
  C   C2420     1.0  0.65380  0.81112  0.88931  1.0000
  C   C2421     1.0  0.55748  0.72983  0.98189  1.0000
  H   H4315     1.0  0.64727  0.83931  0.85937  1.0000
  Fe  Fe277     1.0  0.60875  0.80877  0.98076  1.0000
  H   H4316     1.0  0.58656  0.74706  0.98100  1.0000
  H   H4317     1.0  0.42537  0.85079  0.97534  1.0000
  S   S554      1.0  0.32982  0.58081  0.97538  1.0000
  H   H4318     1.0  0.65509  0.84327  0.87558  1.0000
  H   H4319     1.0  0.65176  0.88555  0.84359  1.0000
  C   C2422     1.0  0.65646  0.79212  0.89927  1.0000
  C   C2423     1.0  0.44316  0.56230  0.98131  1.0000
  H   H4320     1.0  0.32515  0.51108  0.87878  1.0000
  C   C2424     1.0  0.65504  0.87138  0.84934  1.0000
  H   H4321     1.0  0.51193  0.83360  0.98404  1.0000
  H   H4322     1.0  0.39379  0.61655  0.98413  1.0000
  C   C2425     1.0  0.42972  0.85969  0.98038  1.0000
  C   C2426     1.0  0.32816  0.51077  0.94594  1.0000
  H   H4323     1.0  0.32718  0.53152  0.95795  1.0000
  Fe  Fe278     1.0  0.39080  0.55122  0.98458  1.0000
  C   C2427     1.0  0.52362  0.67123  0.98404  1.0000
  H   H4324     1.0  0.47598  0.61595  0.98408  1.0000
  H   H4325     1.0  0.97266  0.39492  0.03571  1.0000
  H   H4326     1.0  0.89596  0.31335  0.17725  1.0000
  H   H4327     1.0  0.95421  0.45048  0.03555  1.0000
  Fe  Fe279     1.0  0.75905  0.35815  0.00907  1.0000
  S   S555      1.0  0.73529  0.37239  0.02486  1.0000
  S   S556      1.0  0.77652  0.33507  0.02258  1.0000
  Fe  Fe280     1.0  0.72165  0.37186  0.00458  1.0000
  S   S557      1.0  0.69416  0.36871  0.00839  1.0000
  Fe  Fe281     1.0  0.74311  0.39634  0.00657  1.0000
  S   S558      1.0  0.74826  0.41807  0.01484  1.0000
  H   H4328     1.0  0.69077  0.46759  0.06374  1.0000
  H   H4329     1.0  0.70273  0.45936  0.04449  1.0000
  S   S559      1.0  0.74489  0.35545  0.99051  1.0000
  H   H4330     1.0  0.82852  0.41386  0.05430  1.0000
  Fe  Fe282     1.0  0.86650  0.35445  0.01610  1.0000
  S   S560      1.0  0.89534  0.34856  0.00671  1.0000
  S   S561      1.0  0.85396  0.33166  0.02394  1.0000
  Fe  Fe283     1.0  0.86458  0.39221  0.01244  1.0000
  S   S562      1.0  0.89321  0.38952  0.00318  1.0000
  S   S563      1.0  0.84731  0.41881  0.01152  1.0000
  C   C2428     1.0  0.93801  0.31655  0.13122  1.0000
  H   H4331     1.0  0.68477  0.05791  0.14564  1.0000
  Fe  Fe284     1.0  0.89558  0.36517  0.02406  1.0000
  S   S564      1.0  0.91941  0.35710  0.03563  1.0000
  S   S565      1.0  0.86191  0.37768  0.99434  1.0000
  S   S566      1.0  0.86681  0.36928  0.03524  1.0000
  H   H4332     1.0  0.91258  0.45016  0.99475  1.0000
  H   H4333     1.0  0.67935  0.21396  0.99537  1.0000
  H   H4334     1.0  0.68119  0.02252  0.15540  1.0000
  C   C2429     1.0  0.80911  0.37397  0.04101  1.0000
  H   H4335     1.0  0.98778  0.45757  0.18032  1.0000
  H   H4336     1.0  0.71497  0.04523  0.01095  1.0000
  H   H4337     1.0  0.75480  0.45151  0.00978  1.0000
  H   H4338     1.0  0.82232  0.37252  0.03259  1.0000
  Fe  Fe285     1.0  0.97866  0.38053  0.10666  1.0000
  H   H4339     1.0  0.91074  0.46302  0.01961  1.0000
  C   C2430     1.0  0.87027  0.47095  0.13755  1.0000
  C   C2431     1.0  0.65815  0.07565  0.05960  1.0000
  C   C2432     1.0  0.81508  0.42187  0.05505  1.0000
  H   H4340     1.0  0.68522  0.03837  0.01324  1.0000
  H   H4341     1.0  0.77275  0.40782  0.04275  1.0000
  C   C2433     1.0  0.94589  0.46956  0.10698  1.0000
  Fe  Fe286     1.0  0.94996  0.41200  0.11108  1.0000
  S   S567      1.0  0.93157  0.39684  0.13038  1.0000
  S   S568      1.0  0.94214  0.44051  0.10028  1.0000
  N   N136      1.0  0.69309  0.02664  0.03797  1.0000
  S   S569      1.0  0.96255  0.36228  0.12497  1.0000
  H   H4342     1.0  0.97055  0.31881  0.18084  1.0000
  Fe  Fe287     1.0  0.94074  0.37884  0.11202  1.0000
  S   S570      1.0  0.91845  0.37022  0.10845  1.0000
  Fe  Fe288     1.0  0.95464  0.38157  0.14182  1.0000
  S   S571      1.0  0.95767  0.39518  0.09184  1.0000
  S   S572      1.0  0.97220  0.39876  0.12449  1.0000
  H   H4343     1.0  0.89059  0.46012  0.00360  1.0000
  H   H4344     1.0  0.83544  0.47832  0.13572  1.0000
  C   C2434     1.0  0.69800  0.03290  0.05124  1.0000
  C   C2435     1.0  0.97390  0.32212  0.16638  1.0000
  C   C2436     1.0  0.75294  0.43484  0.07613  1.0000
  H   H4345     1.0  0.92937  0.30737  0.13461  1.0000
  H   H4346     1.0  0.93229  0.28499  0.99464  1.0000
  H   H4347     1.0  0.90446  0.44365  0.16313  1.0000
  H   H4348     1.0  0.93424  0.43728  0.01652  1.0000
  H   H4349     1.0  0.70277  0.06104  0.02382  1.0000
  C   C2437     1.0  0.91234  0.36115  0.16018  1.0000
  S   S573      1.0  0.66729  0.01653  0.10757  1.0000
  H   H4350     1.0  0.89247  0.40584  0.08634  1.0000
  H   H4351     1.0  0.65945  0.23969  0.00590  1.0000
  C   C2438     1.0  0.90739  0.28778  0.17259  1.0000
  C   C2439     1.0  0.94453  0.45229  0.11382  1.0000
  H   H4352     1.0  0.77859  0.46892  0.01146  1.0000
  H   H4353     1.0  0.67375  0.09442  0.10778  1.0000
  H   H4354     1.0  0.66963  0.09688  0.05747  1.0000
  H   H4355     1.0  0.76422  0.45618  0.07467  1.0000
  H   H4356     1.0  0.96864  0.42360  0.16195  1.0000
  H   H4357     1.0  0.71841  0.46260  0.07577  1.0000
  C   C2440     1.0  0.97816  0.48064  0.22934  1.0000
  H   H4358     1.0  0.96019  0.36556  0.20438  1.0000
  N   N137      1.0  0.66589  0.07549  0.13103  1.0000
  H   H4359     1.0  0.75003  0.47553  0.03225  1.0000
  H   H4360     1.0  0.92426  0.30837  0.18282  1.0000
  C   C2441     1.0  0.66321  0.09138  0.05115  1.0000
  S   S574      1.0  0.67736  0.30130  0.99940  1.0000
  H   H4361     1.0  0.94321  0.43153  0.13687  1.0000
  H   H4362     1.0  0.88859  0.37084  0.17777  1.0000
  C   C2442     1.0  0.91879  0.36141  0.05567  1.0000
  C   C2443     1.0  0.90313  0.36729  0.06657  1.0000
  C   C2444     1.0  0.90317  0.36996  0.08277  1.0000
  C   C2445     1.0  0.91885  0.36742  0.08782  1.0000
  C   C2446     1.0  0.93450  0.36187  0.07678  1.0000
  C   C2447     1.0  0.93443  0.35854  0.06090  1.0000
  H   H4363     1.0  0.89101  0.36940  0.06268  1.0000
  H   H4364     1.0  0.89100  0.37407  0.09137  1.0000
  H   H4365     1.0  0.94664  0.35970  0.08066  1.0000
  H   H4366     1.0  0.94654  0.35374  0.05261  1.0000
  H   H4367     1.0  0.94906  0.38463  0.22544  1.0000
  C   C2448     1.0  0.77421  0.46187  0.03982  1.0000
  H   H4368     1.0  0.98072  0.44265  0.12646  1.0000
  C   C2449     1.0  0.69082  0.33873  0.05075  1.0000
  H   H4369     1.0  0.94817  0.31125  0.10535  1.0000
  H   H4370     1.0  0.88470  0.48055  0.08077  1.0000
  H   H4371     1.0  0.78953  0.41927  0.05655  1.0000
  H   H4372     1.0  0.70325  0.09817  0.09176  1.0000
  S   S575      1.0  0.67344  0.18079  0.99557  1.0000
  H   H4373     1.0  0.91436  0.45804  0.04899  1.0000
  C   C2450     1.0  0.86054  0.44647  0.04545  1.0000
  C   C2451     1.0  0.85048  0.45589  0.03313  1.0000
  C   C2452     1.0  0.84663  0.44735  0.02255  1.0000
  C   C2453     1.0  0.85304  0.42946  0.02410  1.0000
  C   C2454     1.0  0.86338  0.42006  0.03618  1.0000
  C   C2455     1.0  0.86694  0.42853  0.04701  1.0000
  H   H4374     1.0  0.81102  0.42651  0.06734  1.0000
  H   H4375     1.0  0.83866  0.45457  0.01322  1.0000
  H   H4376     1.0  0.86834  0.40621  0.03747  1.0000
  H   H4377     1.0  0.87465  0.42117  0.05659  1.0000
  C   C2456     1.0  0.68209  0.32075  0.00009  1.0000
  C   C2457     1.0  0.70761  0.45835  0.00523  1.0000
  C   C2458     1.0  0.67334  0.35092  0.00256  1.0000
  C   C2459     1.0  0.69016  0.35057  0.00381  1.0000
  C   C2460     1.0  0.70304  0.33538  0.00266  1.0000
  C   C2461     1.0  0.69899  0.32054  0.00088  1.0000
  H   H4378     1.0  0.71600  0.33489  0.00368  1.0000
  C   C2462     1.0  0.68825  0.04235  0.02378  1.0000
  C   C2463     1.0  0.73514  0.43899  0.00981  1.0000
  C   C2464     1.0  0.71821  0.44149  0.00779  1.0000
  N   N138      1.0  0.92688  0.32882  0.15954  1.0000
  H   H4379     1.0  0.74316  0.45714  0.08783  1.0000
  C   C2465     1.0  0.73106  0.47019  0.00603  1.0000
  C   C2466     1.0  0.74159  0.45338  0.00868  1.0000
  H   H4380     1.0  0.90156  0.44707  0.10397  1.0000
  H   H4381     1.0  0.78030  0.39300  0.06092  1.0000
  H   H4382     1.0  0.66551  0.03962  0.13128  1.0000
  C   C2467     1.0  0.79777  0.33548  0.02263  1.0000
  C   C2468     1.0  0.80664  0.32183  0.03381  1.0000
  C   C2469     1.0  0.82381  0.32096  0.03393  1.0000
  C   C2470     1.0  0.83233  0.33382  0.02300  1.0000
  C   C2471     1.0  0.82362  0.34751  0.01158  1.0000
  C   C2472     1.0  0.80629  0.34832  0.01137  1.0000
  H   H4383     1.0  0.80024  0.31174  0.04232  1.0000
  H   H4384     1.0  0.83053  0.31025  0.04261  1.0000
  H   H4385     1.0  0.83035  0.35717  0.00272  1.0000
  H   H4386     1.0  0.79968  0.35856  0.00231  1.0000
  H   H4387     1.0  0.69467  0.33052  0.06301  1.0000
  C   C2473     1.0  0.76962  0.38154  0.04702  1.0000
  C   C2474     1.0  0.82069  0.34855  0.06389  1.0000
  C   C2475     1.0  0.75153  0.38520  0.05856  1.0000
  H   H4388     1.0  0.79949  0.36966  0.06952  1.0000
  H   H4389     1.0  0.76789  0.38271  0.03375  1.0000
  H   H4390     1.0  0.77599  0.36789  0.05213  1.0000
  H   H4391     1.0  0.81259  0.34054  0.06238  1.0000
  H   H4392     1.0  0.83359  0.34609  0.05504  1.0000
  H   H4393     1.0  0.74424  0.39851  0.05357  1.0000
  H   H4394     1.0  0.74425  0.37576  0.05846  1.0000
  H   H4395     1.0  0.75237  0.38383  0.07220  1.0000
  H   H4396     1.0  0.97516  0.33585  0.16187  1.0000
  C   C2476     1.0  0.78029  0.39436  0.04708  1.0000
  H   H4397     1.0  0.66869  0.34776  0.03891  1.0000
  S   S576      1.0  0.72709  0.39747  0.98795  1.0000
  H   H4398     1.0  0.78663  0.40719  0.01415  1.0000
  C   C2477     1.0  0.67766  0.04261  0.13184  1.0000
  C   C2478     1.0  0.94822  0.38414  0.18421  1.0000
  H   H4399     1.0  0.95028  0.30917  0.13526  1.0000
  H   H4400     1.0  0.69911  0.98942  0.03662  1.0000
  H   H4401     1.0  0.80344  0.36438  0.03852  1.0000
  H   H4402     1.0  0.71005  0.01719  0.09162  1.0000
  H   H4403     1.0  0.97121  0.45788  0.20777  1.0000
  H   H4404     1.0  0.91635  0.33759  0.13606  1.0000
  H   H4405     1.0  0.81747  0.47909  0.00347  1.0000
  H   H4406     1.0  0.91005  0.28187  0.18585  1.0000
  H   H4407     1.0  0.91958  0.42686  0.08147  1.0000
  C   C2479     1.0  0.94569  0.45480  0.14229  1.0000
  H   H4408     1.0  0.81531  0.29717  0.99352  1.0000
  H   H4409     1.0  0.93121  0.32943  0.99691  1.0000
  H   H4410     1.0  0.95096  0.33158  0.10714  1.0000
  C   C2480     1.0  0.94197  0.32261  0.11138  1.0000
  C   C2481     1.0  0.89554  0.42138  0.16390  1.0000
  C   C2482     1.0  0.79690  0.39533  0.01739  1.0000
  H   H4411     1.0  0.73996  0.43167  0.08017  1.0000
  H   H4412     1.0  0.75477  0.48285  0.08242  1.0000
  H   H4413     1.0  0.89469  0.28571  0.17238  1.0000
  H   H4414     1.0  0.86625  0.47312  0.15104  1.0000
  H   H4415     1.0  0.96546  0.41671  0.18543  1.0000
  H   H4416     1.0  0.82170  0.40083  0.03366  1.0000
  H   H4417     1.0  0.77980  0.45088  0.04959  1.0000
  C   C2483     1.0  0.89785  0.41497  0.08993  1.0000
  S   S577      1.0  0.95565  0.36993  0.16997  1.0000
  H   H4418     1.0  0.91582  0.31414  0.99325  1.0000
  H   H4419     1.0  0.79755  0.45673  0.02004  1.0000
  H   H4420     1.0  0.69472  0.03685  0.08478  1.0000
  C   C2484     1.0  0.71414  0.47738  0.05040  1.0000
  C   C2485     1.0  0.91114  0.34178  0.16640  1.0000
  C   C2486     1.0  0.94335  0.41925  0.04562  1.0000
  H   H4421     1.0  0.90770  0.47080  0.07758  1.0000
  H   H4422     1.0  0.65967  0.10212  0.13384  1.0000
  H   H4423     1.0  0.81703  0.41004  0.00237  1.0000
  H   H4424     1.0  0.89479  0.41687  0.17817  1.0000
  H   H4425     1.0  0.92063  0.36392  0.16727  1.0000
  N   N139      1.0  0.92626  0.43211  0.04473  1.0000
  S   S578      1.0  0.76762  0.38195  0.99198  1.0000
  H   H4426     1.0  0.91756  0.28117  0.16303  1.0000
  H   H4427     1.0  0.81417  0.31842  0.99648  1.0000
  C   C2487     1.0  0.70941  0.99418  0.03901  1.0000
  H   H4428     1.0  0.93891  0.46164  0.02174  1.0000
  H   H4429     1.0  0.93266  0.45656  0.21420  1.0000
  C   C2488     1.0  0.96222  0.47089  0.20539  1.0000
  H   H4430     1.0  0.95144  0.44262  0.20360  1.0000
  H   H4431     1.0  0.91042  0.47011  0.10908  1.0000
  H   H4432     1.0  0.95832  0.26799  0.00564  1.0000
  H   H4433     1.0  0.70007  0.33397  0.03951  1.0000
  H   H4434     1.0  0.68186  0.28876  0.04145  1.0000
  C   C2489     1.0  0.95229  0.37842  0.20072  1.0000
  H   H4435     1.0  0.90820  0.33869  0.18092  1.0000
  H   H4436     1.0  0.98999  0.45875  0.12933  1.0000
  H   H4437     1.0  0.69164  0.35227  0.04958  1.0000
  H   H4438     1.0  0.94426  0.34481  0.15830  1.0000
  H   H4439     1.0  0.92324  0.42422  0.18814  1.0000
  H   H4440     1.0  0.91789  0.36443  0.14605  1.0000
  C   C2490     1.0  0.89772  0.47659  0.13999  1.0000
  C   C2491     1.0  0.69848  0.47094  0.05032  1.0000
  H   H4441     1.0  0.88136  0.44732  0.16534  1.0000
  H   H4442     1.0  0.94230  0.47283  0.05335  1.0000
  H   H4443     1.0  0.96438  0.32261  0.14446  1.0000
  C   C2492     1.0  0.82147  0.30852  0.98882  1.0000
  C   C2493     1.0  0.98549  0.48128  0.20967  1.0000
  C   C2494     1.0  0.90176  0.44926  0.00634  1.0000
  H   H4444     1.0  0.72729  0.45084  0.05899  1.0000
  H   H4445     1.0  0.89599  0.38697  0.15920  1.0000
  C   C2495     1.0  0.89453  0.37332  0.16364  1.0000
  H   H4446     1.0  0.93403  0.45445  0.19256  1.0000
  C   C2496     1.0  0.78337  0.45807  0.02191  1.0000
  H   H4447     1.0  0.90809  0.41448  0.15717  1.0000
  H   H4448     1.0  0.66417  0.11208  0.02793  1.0000
  C   C2497     1.0  0.69733  0.07785  0.11482  1.0000
  H   H4449     1.0  0.77751  0.47377  0.04024  1.0000
  C   C2498     1.0  0.94228  0.33144  0.16435  1.0000
  H   H4450     1.0  0.68715  0.04326  0.05602  1.0000
  H   H4451     1.0  0.87974  0.31721  0.99280  1.0000
  C   C2499     1.0  0.93133  0.41143  0.19165  1.0000
  H   H4452     1.0  0.71313  0.43042  0.00867  1.0000
  C   C2500     1.0  0.75122  0.45435  0.07515  1.0000
  C   C2501     1.0  0.67814  0.08048  0.11394  1.0000
  H   H4453     1.0  0.69437  0.46023  0.00409  1.0000
  C   C2502     1.0  0.89451  0.46819  0.08305  1.0000
  H   H4454     1.0  0.90389  0.31275  0.15468  1.0000
  C   C2503     1.0  0.96201  0.38898  0.04469  1.0000
  H   H4455     1.0  0.66377  0.05399  0.15346  1.0000
  H   H4456     1.0  0.88091  0.29572  0.99061  1.0000
  H   H4457     1.0  0.94712  0.34951  0.99892  1.0000
  C   C2504     1.0  0.94165  0.45505  0.20158  1.0000
  H   H4458     1.0  0.86152  0.48394  0.11286  1.0000
  H   H4459     1.0  0.67618  0.05123  0.02899  1.0000
  C   C2505     1.0  0.94446  0.44484  0.13149  1.0000
  H   H4460     1.0  0.89256  0.45929  0.07618  1.0000
  H   H4461     1.0  0.89056  0.44005  0.13363  1.0000
  H   H4462     1.0  0.89757  0.43693  0.00872  1.0000
  H   H4463     1.0  0.90828  0.41486  0.05437  1.0000
  H   H4464     1.0  0.94335  0.29875  0.99873  1.0000
  H   H4465     1.0  0.93509  0.40532  0.16670  1.0000
  H   H4466     1.0  0.93491  0.30072  0.16376  1.0000
  H   H4467     1.0  0.88477  0.41808  0.16069  1.0000
  C   C2506     1.0  0.66934  0.33611  0.00059  1.0000
  C   C2507     1.0  0.71394  0.47270  0.00459  1.0000
  H   H4468     1.0  0.66332  0.36263  0.00337  1.0000
  H   H4469     1.0  0.94536  0.44922  0.15599  1.0000
  H   H4470     1.0  0.92716  0.48439  0.03933  1.0000
  C   C2508     1.0  0.92723  0.44879  0.04830  1.0000
  C   C2509     1.0  0.91166  0.42526  0.05819  1.0000
  C   C2510     1.0  0.94435  0.40106  0.04290  1.0000
  H   H4471     1.0  0.95804  0.46871  0.18079  1.0000
  C   C2511     1.0  0.92912  0.33220  0.13999  1.0000
  H   H4472     1.0  0.70895  0.30873  0.00044  1.0000
  S   S579      1.0  0.86517  0.45677  0.05914  1.0000
  H   H4473     1.0  0.69023  0.01522  0.13538  1.0000
  C   C2512     1.0  0.92409  0.31085  0.16875  1.0000
  C   C2513     1.0  0.94404  0.29048  0.98992  1.0000
  H   H4474     1.0  0.90042  0.40930  0.10324  1.0000
  H   H4475     1.0  0.71732  0.03419  0.07400  1.0000
  C   C2514     1.0  0.89613  0.47140  0.11249  1.0000
  H   H4476     1.0  0.98570  0.38957  0.17622  1.0000
  H   H4477     1.0  0.68525  0.04570  0.11837  1.0000
  C   C2515     1.0  0.94768  0.47925  0.11763  1.0000
  H   H4478     1.0  0.84526  0.46965  0.03206  1.0000
  H   H4479     1.0  0.82470  0.38694  0.00597  1.0000
  H   H4480     1.0  0.65968  0.10075  0.17140  1.0000
  H   H4481     1.0  0.86515  0.45954  0.13826  1.0000
  C   C2516     1.0  0.68819  0.02614  0.14169  1.0000
  H   H4482     1.0  0.95361  0.47205  0.21828  1.0000
  H   H4483     1.0  0.82062  0.37503  0.06168  1.0000
  H   H4484     1.0  0.91083  0.44399  0.13281  1.0000
  C   C2517     1.0  0.81190  0.36784  0.05990  1.0000
  C   C2518     1.0  0.89231  0.45994  0.10248  1.0000
  C   C2519     1.0  0.94605  0.38923  0.21263  1.0000
  C   C2520     1.0  0.90719  0.45033  0.02235  1.0000
  H   H4485     1.0  0.75701  0.42550  0.10273  1.0000
  C   C2521     1.0  0.96005  0.31941  0.15884  1.0000
  H   H4486     1.0  0.96291  0.37656  0.04135  1.0000
  H   H4487     1.0  0.94001  0.48228  0.19264  1.0000
  N   N140      1.0  0.88984  0.46700  0.13202  1.0000
  H   H4488     1.0  0.73612  0.48118  0.00536  1.0000
  H   H4489     1.0  0.92422  0.40530  0.07801  1.0000
  H   H4490     1.0  0.70932  0.03897  0.04521  1.0000
  H   H4491     1.0  0.94704  0.41763  0.05819  1.0000
  C   C2522     1.0  0.92258  0.43511  0.02690  1.0000
  H   H4492     1.0  0.95964  0.30549  0.16340  1.0000
  C   C2523     1.0  0.70199  0.05349  0.01486  1.0000
  N   N141      1.0  0.79846  0.39216  0.03608  1.0000
  C   C2524     1.0  0.93801  0.40078  0.17953  1.0000
  C   C2525     1.0  0.66315  0.08866  0.14169  1.0000
  H   H4493     1.0  0.98662  0.31369  0.16194  1.0000
  C   C2526     1.0  0.98205  0.48559  0.18010  1.0000
  H   H4494     1.0  0.93033  0.44633  0.06129  1.0000
  H   H4495     1.0  0.92984  0.32943  0.10661  1.0000
  H   H4496     1.0  0.67791  0.07333  0.10435  1.0000
  C   C2527     1.0  0.89418  0.44097  0.15850  1.0000
  C   C2528     1.0  0.66008  0.10004  0.03445  1.0000
  H   H4497     1.0  0.70788  0.99163  0.05328  1.0000
  N   N142      1.0  0.74351  0.46695  0.06040  1.0000
  H   H4498     1.0  0.95007  0.48199  0.03069  1.0000
  C   C2529     1.0  0.72590  0.46358  0.06207  1.0000
  C   C2530     1.0  0.90685  0.30725  0.16785  1.0000
  H   H4499     1.0  0.93975  0.33027  0.17868  1.0000
  H   H4500     1.0  0.81495  0.43336  0.04393  1.0000
  C   C2531     1.0  0.95043  0.47036  0.19383  1.0000
  H   H4501     1.0  0.80338  0.39992  0.06612  1.0000
  H   H4502     1.0  0.89517  0.47231  0.15440  1.0000
  H   H4503     1.0  0.75215  0.45286  0.03973  1.0000
  C   C2532     1.0  0.94090  0.45845  0.03524  1.0000
  H   H4504     1.0  0.97141  0.43713  0.17442  1.0000
  S   S580      1.0  0.66290  0.06462  0.08022  1.0000
  S   S581      1.0  0.95042  0.48410  0.14817  1.0000
  H   H4505     1.0  0.78118  0.44576  0.02078  1.0000
  H   H4506     1.0  0.72128  0.48067  0.03680  1.0000
  C   C2533     1.0  0.75431  0.46437  0.04273  1.0000
  H   H4507     1.0  0.93420  0.39489  0.05245  1.0000
  H   H4508     1.0  0.70770  0.07673  0.08753  1.0000
  C   C2534     1.0  0.88839  0.30413  0.99247  1.0000
  C   C2535     1.0  0.80285  0.41107  0.05479  1.0000
  H   H4509     1.0  0.79268  0.38443  0.01547  1.0000
  C   C2536     1.0  0.66605  0.21358  0.00179  1.0000
  C   C2537     1.0  0.94769  0.47189  0.13522  1.0000
  C   C2538     1.0  0.70324  0.01900  0.06725  1.0000
  C   C2539     1.0  0.70814  0.01376  0.03001  1.0000
  H   H4510     1.0  0.67816  0.31809  0.03756  1.0000
  H   H4511     1.0  0.93646  0.34256  0.13348  1.0000
  H   H4512     1.0  0.82261  0.34446  0.07749  1.0000
  H   H4513     1.0  0.95388  0.42425  0.03536  1.0000
  H   H4514     1.0  0.67802  0.25929  0.04534  1.0000
  H   H4515     1.0  0.67545  0.08792  0.14532  1.0000
  H   H4516     1.0  0.70103  0.02810  0.14157  1.0000
  H   H4517     1.0  0.72186  0.08193  0.09773  1.0000
  H   H4518     1.0  0.71553  0.00985  0.06314  1.0000
  C   C2540     1.0  0.89672  0.44773  0.13841  1.0000
  H   H4519     1.0  0.96375  0.38604  0.05826  1.0000
  C   C2541     1.0  0.67232  0.33842  0.05080  1.0000
  H   H4520     1.0  0.91971  0.42320  0.02547  1.0000
  H   H4521     1.0  0.94268  0.40203  0.02964  1.0000
  C   C2542     1.0  0.81355  0.39770  0.00322  1.0000
  H   H4522     1.0  0.80414  0.41787  0.02759  1.0000
  H   H4523     1.0  0.67868  0.31024  0.06003  1.0000
  H   H4524     1.0  0.68421  0.07541  0.00209  1.0000
  H   H4525     1.0  0.75927  0.43149  0.06334  1.0000
  H   H4526     1.0  0.89572  0.45019  0.03312  1.0000
  C   C2543     1.0  0.70815  0.08407  0.09684  1.0000
  H   H4527     1.0  0.89965  0.43568  0.05889  1.0000
  C   C2544     1.0  0.65997  0.19868  0.00385  1.0000
  C   C2545     1.0  0.91468  0.41795  0.07707  1.0000
  C   C2546     1.0  0.67318  0.05775  0.14122  1.0000
  C   C2547     1.0  0.80737  0.40546  0.03724  1.0000
  C   C2548     1.0  0.70653  0.02737  0.08016  1.0000
  H   H4528     1.0  0.88585  0.37162  0.15627  1.0000
  H   H4529     1.0  0.88806  0.42744  0.09006  1.0000
  H   H4530     1.0  0.76472  0.40931  0.08980  1.0000
  H   H4531     1.0  0.89950  0.34093  0.16253  1.0000
  C   C2549     1.0  0.93539  0.40566  0.20821  1.0000
  H   H4532     1.0  0.77674  0.42569  0.08617  1.0000
  H   H4533     1.0  0.70319  0.06392  0.11943  1.0000
  C   C2550     1.0  0.76352  0.42317  0.08953  1.0000
  H   H4534     1.0  0.70784  0.01480  0.01622  1.0000
  H   H4535     1.0  0.69305  0.01165  0.07429  1.0000
  C   C2551     1.0  0.94000  0.47543  0.03999  1.0000
  H   H4536     1.0  0.87898  0.45771  0.10747  1.0000
  H   H4537     1.0  0.95404  0.32269  0.98822  1.0000
  S   S582      1.0  0.92707  0.41904  0.22328  1.0000
  H   H4538     1.0  0.94569  0.47543  0.09339  1.0000
  H   H4539     1.0  0.89239  0.29844  0.00517  1.0000
  H   H4540     1.0  0.69846  0.08525  0.12371  1.0000
  H   H4541     1.0  0.91208  0.47344  0.13561  1.0000
  H   H4542     1.0  0.66027  0.02753  0.02766  1.0000
  C   C2552     1.0  0.69709  0.06673  0.99864  1.0000
  C   C2553     1.0  0.97329  0.42349  0.17351  1.0000
  H   H4543     1.0  0.66365  0.34342  0.06206  1.0000
  C   C2554     1.0  0.67098  0.31995  0.05082  1.0000
  H   H4544     1.0  0.98569  0.46651  0.09977  1.0000
  H   H4545     1.0  0.72061  0.01702  0.02928  1.0000
  H   H4546     1.0  0.83491  0.30423  0.99107  1.0000
  H   H4547     1.0  0.69005  0.48131  0.04233  1.0000
  H   H4548     1.0  0.67977  0.00748  0.05679  1.0000
  H   H4549     1.0  0.70681  0.07491  0.99284  1.0000
  C   C2555     1.0  0.66693  0.27054  0.04337  1.0000
  C   C2556     1.0  0.66925  0.28572  0.04913  1.0000
  H   H4550     1.0  0.66651  0.27420  0.02934  1.0000
  C   C2557     1.0  0.95971  0.27530  0.99184  1.0000
  H   H4551     1.0  0.67013  0.28116  0.06301  1.0000
  C   C2558     1.0  0.67713  0.01937  0.04647  1.0000
  Fe  Fe289     1.0  0.89076  0.37327  0.98671  1.0000
  H   H4552     1.0  0.97183  0.28012  0.98805  1.0000
  Fe  Fe290     1.0  0.86462  0.48519  0.04809  1.0000
  H   H4553     1.0  0.89094  0.48524  0.10679  1.0000
  H   H4554     1.0  0.67822  0.00979  0.02339  1.0000
  C   C2559     1.0  0.66845  0.01532  0.03390  1.0000
  H   H4555     1.0  0.66458  0.98974  0.04908  1.0000
  H   H4556     1.0  0.71159  0.98630  0.11642  1.0000
  N   N143      1.0  0.97226  0.48506  0.19868  1.0000
  C   C2560     1.0  0.74079  0.48547  0.06205  1.0000
  H   H4557     1.0  0.66710  0.02877  0.05344  1.0000
  H   H4558     1.0  0.73763  0.98667  0.03466  1.0000
  C   C2561     1.0  0.94446  0.35011  0.98614  1.0000
  H   H4559     1.0  0.69672  0.06008  0.98874  1.0000
  C   C2562     1.0  0.81099  0.39828  0.98528  1.0000
  C   C2563     1.0  0.94197  0.33246  0.98590  1.0000
  H   H4560     1.0  0.80875  0.38569  0.98503  1.0000
  C   C2564     1.0  0.97195  0.12103  0.42899  1.0000
  Fe  Fe291     1.0  0.94501  0.41520  0.24116  1.0000
  S   S583      1.0  0.94032  0.40277  0.26980  1.0000
  S   S584      1.0  0.97944  0.15375  0.47750  1.0000
  H   H4561     1.0  0.66954  0.07939  0.27360  1.0000
  H   H4562     1.0  0.70276  0.05002  0.44694  1.0000
  C   C2565     1.0  0.66963  0.00458  0.37709  1.0000
  Fe  Fe292     1.0  0.96857  0.38979  0.26425  1.0000
  H   H4563     1.0  0.92933  0.10882  0.45282  1.0000
  C   C2566     1.0  0.69217  0.06882  0.42634  1.0000
  H   H4564     1.0  0.94645  0.10608  0.31389  1.0000
  H   H4565     1.0  0.69440  0.10040  0.30630  1.0000
  Fe  Fe293     1.0  0.96568  0.29353  0.35728  1.0000
  H   H4566     1.0  0.96702  0.24789  0.27781  1.0000
  S   S585      1.0  0.94713  0.31289  0.34121  1.0000
  Fe  Fe294     1.0  0.97134  0.27599  0.39399  1.0000
  N   N144      1.0  0.94573  0.37980  0.33673  1.0000
  H   H4567     1.0  0.98624  0.20954  0.42148  1.0000
  C   C2567     1.0  0.97631  0.29729  0.45482  1.0000
  C   C2568     1.0  0.72595  0.12658  0.26405  1.0000
  S   S586      1.0  0.97357  0.30230  0.37691  1.0000
  S   S587      1.0  0.96069  0.26828  0.37546  1.0000
  Fe  Fe295     1.0  0.96499  0.12721  0.38970  1.0000
  S   S588      1.0  0.94482  0.13835  0.37355  1.0000
  S   S589      1.0  0.95552  0.12209  0.41867  1.0000
  H   H4568     1.0  0.94824  0.17294  0.43352  1.0000
  H   H4569     1.0  0.80204  0.08659  0.46629  1.0000
  H   H4570     1.0  0.70607  0.08916  0.46401  1.0000
  Fe  Fe296     1.0  0.96235  0.15634  0.35773  1.0000
  S   S590      1.0  0.95184  0.18545  0.35226  1.0000
  Fe  Fe297     1.0  0.96105  0.11934  0.35728  1.0000
  S   S591      1.0  0.95335  0.09830  0.35005  1.0000
  H   H4571     1.0  0.91744  0.10385  0.47489  1.0000
  C   C2569     1.0  0.90679  0.07274  0.30688  1.0000
  Fe  Fe298     1.0  0.71306  0.03951  0.34882  1.0000
  S   S592      1.0  0.73980  0.03533  0.33197  1.0000
  S   S593      1.0  0.68711  0.04815  0.34085  1.0000
  Fe  Fe299     1.0  0.72637  0.02806  0.38240  1.0000
  S   S594      1.0  0.75420  0.02212  0.36883  1.0000
  S   S595      1.0  0.71722  0.02231  0.41152  1.0000
  Fe  Fe300     1.0  0.74695  0.04715  0.34983  1.0000
  S   S596      1.0  0.76704  0.06321  0.33880  1.0000
  Fe  Fe301     1.0  0.74524  0.01077  0.35207  1.0000
  C   C2570     1.0  0.90189  0.11650  0.42874  1.0000
  S   S597      1.0  0.71958  0.05417  0.36478  1.0000
  S   S598      1.0  0.71806  0.01384  0.36755  1.0000
  C   C2571     1.0  0.66554  0.04892  0.30160  1.0000
  H   H4572     1.0  0.71923  0.06823  0.46320  1.0000
  H   H4573     1.0  0.95816  0.08992  0.44436  1.0000
  H   H4574     1.0  0.92921  0.22522  0.44595  1.0000
  C   C2572     1.0  0.84519  0.03287  0.47061  1.0000
  C   C2573     1.0  0.88495  0.12670  0.43869  1.0000
  H   H4575     1.0  0.98085  0.08500  0.45878  1.0000
  S   S599      1.0  0.90772  0.06047  0.44563  1.0000
  Fe  Fe302     1.0  0.87822  0.05404  0.36200  1.0000
  S   S600      1.0  0.86345  0.04551  0.38918  1.0000
  S   S601      1.0  0.88279  0.08138  0.35128  1.0000
  Fe  Fe303     1.0  0.88198  0.01940  0.35296  1.0000
  S   S602      1.0  0.86786  0.00797  0.37928  1.0000
  S   S603      1.0  0.89318  0.00579  0.33073  1.0000
  Fe  Fe304     1.0  0.84933  0.03401  0.37703  1.0000
  S   S604      1.0  0.82099  0.03477  0.38818  1.0000
  Fe  Fe305     1.0  0.88312  0.02035  0.38915  1.0000
  S   S605      1.0  0.89400  0.00611  0.41284  1.0000
  S   S606      1.0  0.86222  0.04466  0.34974  1.0000
  S   S607      1.0  0.89912  0.02962  0.36295  1.0000
  S   S608      1.0  0.97256  0.40050  0.23535  1.0000
  C   C2574     1.0  0.81350  0.05999  0.46231  1.0000
  C   C2575     1.0  0.93757  0.34172  0.37723  1.0000
  H   H4576     1.0  0.72926  0.09186  0.26615  1.0000
  H   H4577     1.0  0.77142  0.08532  0.47114  1.0000
  C   C2576     1.0  0.79902  0.07685  0.46125  1.0000
  C   C2577     1.0  0.96728  0.28409  0.46315  1.0000
  C   C2578     1.0  0.98154  0.07091  0.46471  1.0000
  H   H4578     1.0  0.93662  0.05276  0.34145  1.0000
  H   H4579     1.0  0.72437  0.09800  0.31170  1.0000
  C   C2579     1.0  0.89900  0.02077  0.42158  1.0000
  C   C2580     1.0  0.90252  0.01564  0.43830  1.0000
  C   C2581     1.0  0.90553  0.02769  0.44569  1.0000
  C   C2582     1.0  0.90518  0.04483  0.43627  1.0000
  C   C2583     1.0  0.90234  0.04969  0.41931  1.0000
  C   C2584     1.0  0.89911  0.03777  0.41201  1.0000
  H   H4580     1.0  0.88120  0.08017  0.30090  1.0000
  H   H4581     1.0  0.90825  0.02364  0.45860  1.0000
  H   H4582     1.0  0.90249  0.06270  0.41185  1.0000
  H   H4583     1.0  0.89684  0.04172  0.39892  1.0000
  C   C2585     1.0  0.94881  0.05030  0.29873  1.0000
  C   C2586     1.0  0.72844  0.02798  0.42375  1.0000
  C   C2587     1.0  0.72733  0.01973  0.44140  1.0000
  H   H4584     1.0  0.90761  0.14224  0.40183  1.0000
  C   C2588     1.0  0.74520  0.03724  0.44432  1.0000
  C   C2589     1.0  0.74633  0.04550  0.42665  1.0000
  C   C2590     1.0  0.73806  0.04079  0.41634  1.0000
  C   C2591     1.0  0.89824  0.13542  0.40050  1.0000
  H   H4585     1.0  0.72415  0.07585  0.32338  1.0000
  H   H4586     1.0  0.75362  0.05555  0.42091  1.0000
  H   H4587     1.0  0.73892  0.04724  0.40274  1.0000
  C   C2592     1.0  0.68657  0.07288  0.45718  1.0000
  H   H4588     1.0  0.96276  0.04823  0.29878  1.0000
  C   C2593     1.0  0.92777  0.08955  0.41213  1.0000
  C   C2594     1.0  0.70387  0.08776  0.30794  1.0000
  H   H4589     1.0  0.94843  0.09315  0.47400  1.0000
  H   H4590     1.0  0.96851  0.23517  0.44542  1.0000
  C   C2595     1.0  0.91885  0.05689  0.31647  1.0000
  H   H4591     1.0  0.95428  0.04536  0.46469  1.0000
  H   H4592     1.0  0.75095  0.03238  0.27325  1.0000
  C   C2596     1.0  0.94261  0.22570  0.43831  1.0000
  C   C2597     1.0  0.78217  0.05621  0.35236  1.0000
  C   C2598     1.0  0.77661  0.05093  0.37037  1.0000
  C   C2599     1.0  0.78863  0.04476  0.38120  1.0000
  C   C2600     1.0  0.80633  0.04358  0.37412  1.0000
  C   C2601     1.0  0.81195  0.04908  0.35611  1.0000
  C   C2602     1.0  0.79986  0.05547  0.34524  1.0000
  H   H4593     1.0  0.76296  0.05184  0.37600  1.0000
  H   H4594     1.0  0.78415  0.04097  0.39514  1.0000
  H   H4595     1.0  0.82554  0.04844  0.35058  1.0000
  H   H4596     1.0  0.80422  0.05962  0.33132  1.0000
  C   C2603     1.0  0.93225  0.09488  0.35398  1.0000
  C   C2604     1.0  0.91911  0.10782  0.34716  1.0000
  C   C2605     1.0  0.90376  0.10363  0.34683  1.0000
  C   C2606     1.0  0.90134  0.08658  0.35358  1.0000
  C   C2607     1.0  0.91401  0.07391  0.36135  1.0000
  C   C2608     1.0  0.92953  0.07798  0.36125  1.0000
  H   H4597     1.0  0.92121  0.12079  0.34118  1.0000
  H   H4598     1.0  0.89396  0.11353  0.34087  1.0000
  H   H4599     1.0  0.91215  0.06079  0.36684  1.0000
  H   H4600     1.0  0.93972  0.06782  0.36634  1.0000
  H   H4601     1.0  0.92507  0.34922  0.38349  1.0000
  H   H4602     1.0  0.93369  0.08515  0.30055  1.0000
  H   H4603     1.0  0.74868  0.99404  0.42088  1.0000
  C   C2609     1.0  0.96532  0.19726  0.35516  1.0000
  C   C2610     1.0  0.95792  0.21236  0.36169  1.0000
  C   C2611     1.0  0.96851  0.22235  0.36331  1.0000
  C   C2612     1.0  0.94331  0.02755  0.33498  1.0000
  H   H4604     1.0  0.88609  0.10903  0.46414  1.0000
  H   H4605     1.0  0.94398  0.21629  0.36555  1.0000
  H   H4606     1.0  0.96270  0.23386  0.36850  1.0000
  H   H4607     1.0  0.94021  0.39858  0.31301  1.0000
  C   C2613     1.0  0.96772  0.12276  0.44625  1.0000
  H   H4608     1.0  0.83030  0.08630  0.45813  1.0000
  H   H4609     1.0  0.98585  0.25509  0.27684  1.0000
  H   H4610     1.0  0.71183  0.06896  0.43884  1.0000
  H   H4611     1.0  0.96583  0.36144  0.32387  1.0000
  H   H4612     1.0  0.95433  0.12476  0.45319  1.0000
  H   H4613     1.0  0.91738  0.46510  0.31267  1.0000
  H   H4614     1.0  0.73224  0.00443  0.32825  1.0000
  C   C2614     1.0  0.97179  0.34841  0.29224  1.0000
  N   N145      1.0  0.97001  0.06436  0.45765  1.0000
  C   C2615     1.0  0.97467  0.32402  0.31715  1.0000
  C   C2616     1.0  0.95668  0.32644  0.32230  1.0000
  C   C2617     1.0  0.94620  0.33985  0.31224  1.0000
  C   C2618     1.0  0.95374  0.35093  0.29730  1.0000
  Fe  Fe306     1.0  0.90213  0.05196  0.47463  1.0000
  H   H4615     1.0  0.82242  0.99172  0.40112  1.0000
  H   H4616     1.0  0.93225  0.34175  0.31608  1.0000
  H   H4617     1.0  0.94564  0.36130  0.28962  1.0000
  H   H4618     1.0  0.90381  0.10292  0.43663  1.0000
  H   H4619     1.0  0.93224  0.39290  0.35790  1.0000
  H   H4620     1.0  0.78243  0.01991  0.31196  1.0000
  H   H4621     1.0  0.80226  0.99321  0.32266  1.0000
  H   H4622     1.0  0.93309  0.05986  0.27888  1.0000
  C   C2619     1.0  0.94357  0.22154  0.42065  1.0000
  C   C2620     1.0  0.98903  0.16775  0.40791  1.0000
  H   H4623     1.0  0.96946  0.10061  0.30563  1.0000
  H   H4624     1.0  0.93498  0.33251  0.37112  1.0000
  H   H4625     1.0  0.69564  0.99048  0.37700  1.0000
  H   H4626     1.0  0.98290  0.31395  0.32480  1.0000
  H   H4627     1.0  0.74088  0.07511  0.47499  1.0000
  C   C2621     1.0  0.68402  0.04364  0.32221  1.0000
  C   C2622     1.0  0.83962  0.00888  0.33554  1.0000
  C   C2623     1.0  0.96546  0.20890  0.30649  1.0000
  H   H4628     1.0  0.94547  0.18069  0.46879  1.0000
  C   C2624     1.0  0.98269  0.22227  0.42510  1.0000
  H   H4629     1.0  0.73769  0.02978  0.29486  1.0000
  Fe  Fe307     1.0  0.94954  0.42512  0.27231  1.0000
  H   H4630     1.0  0.90920  0.16205  0.37298  1.0000
  H   H4631     1.0  0.87184  0.01903  0.46319  1.0000
  C   C2625     1.0  0.66789  0.05052  0.31741  1.0000
  H   H4632     1.0  0.98332  0.23008  0.47803  1.0000
  H   H4633     1.0  0.77783  0.06361  0.46745  1.0000
  C   C2626     1.0  0.72324  0.09565  0.27883  1.0000
  H   H4634     1.0  0.95743  0.20455  0.47597  1.0000
  H   H4635     1.0  0.88371  0.14092  0.43360  1.0000
  H   H4636     1.0  0.97565  0.39579  0.32123  1.0000
  H   H4637     1.0  0.71977  0.00993  0.44716  1.0000
  C   C2627     1.0  0.91607  0.39123  0.32755  1.0000
  C   C2628     1.0  0.90767  0.40237  0.31235  1.0000
  H   H4638     1.0  0.93960  0.37731  0.31365  1.0000
  H   H4639     1.0  0.91162  0.39821  0.33829  1.0000
  H   H4640     1.0  0.91179  0.41494  0.30736  1.0000
  H   H4641     1.0  0.91128  0.39541  0.30163  1.0000
  H   H4642     1.0  0.89335  0.40516  0.31673  1.0000
  C   C2629     1.0  0.95048  0.16916  0.44697  1.0000
  H   H4643     1.0  0.85341  0.00312  0.33659  1.0000
  C   C2630     1.0  0.94197  0.08565  0.46940  1.0000
  C   C2631     1.0  0.71591  0.08882  0.31906  1.0000
  C   C2632     1.0  0.98179  0.47206  0.30504  1.0000
  H   H4644     1.0  0.95023  0.06825  0.40957  1.0000
  H   H4645     1.0  0.68734  0.99990  0.31019  1.0000
  H   H4646     1.0  0.95137  0.41436  0.32456  1.0000
  H   H4647     1.0  0.70173  0.01408  0.48100  1.0000
  S   S609      1.0  0.98137  0.14636  0.37510  1.0000
  H   H4648     1.0  0.93039  0.02580  0.33516  1.0000
  N   N146      1.0  0.96729  0.25392  0.31201  1.0000
  H   H4649     1.0  0.93666  0.24851  0.40677  1.0000
  H   H4650     1.0  0.93889  0.20952  0.42296  1.0000
  N   N147      1.0  0.71269  0.08290  0.29067  1.0000
  C   C2633     1.0  0.97460  0.38550  0.31558  1.0000
  H   H4651     1.0  0.86105  0.07652  0.43966  1.0000
  Fe  Fe308     1.0  0.97896  0.42277  0.24085  1.0000
  H   H4652     1.0  0.82607  0.02855  0.31646  1.0000
  C   C2634     1.0  0.87602  0.09111  0.39669  1.0000
  C   C2635     1.0  0.73587  0.02418  0.45161  1.0000
  H   H4653     1.0  0.95607  0.42032  0.35089  1.0000
  H   H4654     1.0  0.91898  0.08099  0.41394  1.0000
  H   H4655     1.0  0.84420  0.01318  0.30688  1.0000
  H   H4656     1.0  0.69739  0.10848  0.33206  1.0000
  C   C2636     1.0  0.94740  0.01875  0.35297  1.0000
  C   C2637     1.0  0.98650  0.21763  0.35781  1.0000
  C   C2638     1.0  0.95680  0.09872  0.30507  1.0000
  H   H4657     1.0  0.98071  0.21408  0.45295  1.0000
  H   H4658     1.0  0.94171  0.16045  0.45506  1.0000
  H   H4659     1.0  0.95922  0.03879  0.26788  1.0000
  H   H4660     1.0  0.80659  0.01498  0.34536  1.0000
  H   H4661     1.0  0.83531  0.06795  0.47481  1.0000
  H   H4662     1.0  0.67361  0.01433  0.36513  1.0000
  H   H4663     1.0  0.73344  0.12248  0.25181  1.0000
  C   C2639     1.0  0.94585  0.06053  0.28039  1.0000
  H   H4664     1.0  0.71676  0.99511  0.31172  1.0000
  H   H4665     1.0  0.92953  0.08964  0.42505  1.0000
  H   H4666     1.0  0.87338  0.12312  0.43749  1.0000
  C   C2640     1.0  0.85086  0.03374  0.31293  1.0000
  H   H4667     1.0  0.67691  0.09792  0.25852  1.0000
  H   H4668     1.0  0.96683  0.07280  0.30114  1.0000
  C   C2641     1.0  0.77957  0.00602  0.40938  1.0000
  C   C2642     1.0  0.69960  0.06434  0.44265  1.0000
  C   C2643     1.0  0.77631  0.98774  0.41688  1.0000
  H   H4669     1.0  0.85585  0.00891  0.46119  1.0000
  H   H4670     1.0  0.95500  0.38993  0.35331  1.0000
  H   H4671     1.0  0.68062  0.01454  0.39269  1.0000
  H   H4672     1.0  0.91265  0.07707  0.29300  1.0000
  C   C2644     1.0  0.68053  0.98927  0.34723  1.0000
  H   H4673     1.0  0.84946  0.99578  0.41356  1.0000
  H   H4674     1.0  0.76858  0.01564  0.41493  1.0000
  H   H4675     1.0  0.93809  0.35542  0.34137  1.0000
  H   H4676     1.0  0.94324  0.23957  0.43577  1.0000
  H   H4677     1.0  0.95688  0.21947  0.41269  1.0000
  C   C2645     1.0  0.82286  0.06362  0.42325  1.0000
  H   H4678     1.0  0.94652  0.07365  0.44767  1.0000
  H   H4679     1.0  0.97816  0.22724  0.32346  1.0000
  H   H4680     1.0  0.91829  0.09093  0.46014  1.0000
  C   C2646     1.0  0.97599  0.29304  0.42668  1.0000
  C   C2647     1.0  0.95428  0.07838  0.45385  1.0000
  C   C2648     1.0  0.72502  0.06540  0.29439  1.0000
  C   C2649     1.0  0.94659  0.18523  0.45446  1.0000
  H   H4681     1.0  0.97203  0.36748  0.34010  1.0000
  C   C2650     1.0  0.83450  0.01077  0.43186  1.0000
  C   C2651     1.0  0.80440  0.00551  0.32387  1.0000
  C   C2652     1.0  0.95674  0.07936  0.31072  1.0000
  H   H4682     1.0  0.81380  0.01000  0.31207  1.0000
  C   C2653     1.0  0.96461  0.37267  0.32954  1.0000
  H   H4683     1.0  0.95542  0.23608  0.47192  1.0000
  C   C2654     1.0  0.85888  0.01610  0.46915  1.0000
  H   H4684     1.0  0.95306  0.02053  0.32549  1.0000
  H   H4685     1.0  0.89565  0.12753  0.45993  1.0000
  H   H4686     1.0  0.95780  0.04716  0.32888  1.0000
  C   C2655     1.0  0.67067  0.09287  0.27220  1.0000
  H   H4687     1.0  0.68969  0.99813  0.34111  1.0000
  N   N148      1.0  0.83137  0.06205  0.45210  1.0000
  H   H4688     1.0  0.86553  0.06019  0.45867  1.0000
  H   H4689     1.0  0.87247  0.13030  0.46484  1.0000
  H   H4690     1.0  0.95694  0.05990  0.25323  1.0000
  H   H4691     1.0  0.96039  0.07444  0.32362  1.0000
  H   H4692     1.0  0.84398  0.01922  0.42741  1.0000
  C   C2656     1.0  0.96399  0.04859  0.46976  1.0000
  H   H4693     1.0  0.98243  0.15707  0.41568  1.0000
  H   H4694     1.0  0.82904  0.00953  0.44601  1.0000
  H   H4695     1.0  0.90386  0.08390  0.31313  1.0000
  C   C2657     1.0  0.96220  0.27573  0.45322  1.0000
  H   H4696     1.0  0.96405  0.16174  0.44690  1.0000
  H   H4697     1.0  0.89226  0.10882  0.38208  1.0000
  H   H4698     1.0  0.95369  0.27771  0.26272  1.0000
  H   H4699     1.0  0.85423  0.09972  0.45590  1.0000
  H   H4700     1.0  0.96825  0.39137  0.30433  1.0000
  H   H4701     1.0  0.94820  0.26729  0.29599  1.0000
  H   H4702     1.0  0.92474  0.36932  0.35529  1.0000
  Fe  Fe309     1.0  0.98855  0.25684  0.36501  1.0000
  C   C2658     1.0  0.94816  0.35391  0.36363  1.0000
  C   C2659     1.0  0.73321  0.05622  0.27891  1.0000
  H   H4703     1.0  0.75889  0.99341  0.39928  1.0000
  C   C2660     1.0  0.82162  0.98639  0.48095  1.0000
  C   C2661     1.0  0.98625  0.07434  0.42577  1.0000
  C   C2662     1.0  0.71340  0.11481  0.27426  1.0000
  C   C2663     1.0  0.78735  0.01907  0.32358  1.0000
  H   H4704     1.0  0.88515  0.14224  0.40635  1.0000
  C   C2664     1.0  0.85728  0.07305  0.45402  1.0000
  H   H4705     1.0  0.80964  0.06192  0.43017  1.0000
  C   C2665     1.0  0.94161  0.41254  0.33683  1.0000
  C   C2666     1.0  0.93222  0.23623  0.40977  1.0000
  C   C2667     1.0  0.83940  0.02076  0.31713  1.0000
  H   H4706     1.0  0.87854  0.08407  0.38627  1.0000
  C   C2668     1.0  0.88885  0.10718  0.41037  1.0000
  C   C2669     1.0  0.82145  0.07542  0.40531  1.0000
  C   C2670     1.0  0.98217  0.33469  0.30200  1.0000
  H   H4707     1.0  0.92868  0.41750  0.33338  1.0000
  N   N149      1.0  0.90225  0.11662  0.41012  1.0000
  N   N150      1.0  0.95589  0.21425  0.44877  1.0000
  H   H4708     1.0  0.94658  0.07429  0.27787  1.0000
  C   C2671     1.0  0.74511  0.03859  0.28454  1.0000
  C   C2672     1.0  0.93773  0.46099  0.29029  1.0000
  H   H4709     1.0  0.67382  0.06966  0.45907  1.0000
  H   H4710     1.0  0.85928  0.00773  0.48233  1.0000
  H   H4711     1.0  0.81605  0.06931  0.39811  1.0000
  C   C2673     1.0  0.96105  0.19570  0.44670  1.0000
  H   H4712     1.0  0.97218  0.18839  0.45307  1.0000
  C   C2674     1.0  0.86150  0.08644  0.46093  1.0000
  C   C2675     1.0  0.73685  0.99168  0.32544  1.0000
  H   H4713     1.0  0.69660  0.08625  0.34339  1.0000
  H   H4714     1.0  0.93503  0.24160  0.46533  1.0000
  H   H4715     1.0  0.94493  0.33406  0.38751  1.0000
  H   H4716     1.0  0.95821  0.46106  0.26735  1.0000
  C   C2676     1.0  0.78163  0.07313  0.47217  1.0000
  H   H4717     1.0  0.96414  0.27878  0.29360  1.0000
  H   H4718     1.0  0.67389  0.98756  0.30737  1.0000
  H   H4719     1.0  0.86447  0.02686  0.31352  1.0000
  C   C2677     1.0  0.95177  0.25624  0.32683  1.0000
  H   H4720     1.0  0.94044  0.25336  0.32417  1.0000
  N   N151      1.0  0.82961  0.99472  0.34086  1.0000
  H   H4721     1.0  0.83311  0.99180  0.47898  1.0000
  C   C2678     1.0  0.94553  0.27448  0.33110  1.0000
  S   S610      1.0  0.97733  0.41105  0.26930  1.0000
  H   H4722     1.0  0.97202  0.17691  0.38927  1.0000
  H   H4723     1.0  0.97270  0.05327  0.26675  1.0000
  H   H4724     1.0  0.75574  0.04015  0.28951  1.0000
  C   C2679     1.0  0.92816  0.27595  0.34415  1.0000
  H   H4725     1.0  0.92979  0.08145  0.32337  1.0000
  H   H4726     1.0  0.70610  0.11975  0.28606  1.0000
  H   H4727     1.0  0.93380  0.19335  0.45209  1.0000
  C   C2680     1.0  0.67601  0.99395  0.31660  1.0000
  H   H4728     1.0  0.95446  0.24678  0.33899  1.0000
  H   H4729     1.0  0.70468  0.08239  0.26769  1.0000
  C   C2681     1.0  0.68115  0.09336  0.28477  1.0000
  H   H4730     1.0  0.89160  0.05755  0.30172  1.0000
  H   H4731     1.0  0.87415  0.08157  0.40930  1.0000
  H   H4732     1.0  0.82376  0.01701  0.42480  1.0000
  H   H4733     1.0  0.98192  0.02572  0.46131  1.0000
  H   H4734     1.0  0.72356  0.98673  0.42815  1.0000
  H   H4735     1.0  0.94397  0.28491  0.31922  1.0000
  H   H4736     1.0  0.95497  0.27674  0.33717  1.0000
  S   S611      1.0  0.98035  0.10709  0.37458  1.0000
  C   C2682     1.0  0.68329  0.98713  0.37757  1.0000
  H   H4737     1.0  0.68030  0.06373  0.42925  1.0000
  C   C2683     1.0  0.66801  0.01211  0.39267  1.0000
  S   S612      1.0  0.97662  0.13860  0.33938  1.0000
  C   C2684     1.0  0.94301  0.42415  0.34775  1.0000
  H   H4738     1.0  0.90264  0.00244  0.44568  1.0000
  C   C2685     1.0  0.97191  0.22154  0.44389  1.0000
  H   H4739     1.0  0.70439  0.11613  0.26583  1.0000
  S   S613      1.0  0.75501  0.04389  0.45715  1.0000
  H   H4740     1.0  0.93760  0.07526  0.48032  1.0000
  H   H4741     1.0  0.92935  0.26600  0.35645  1.0000
  H   H4742     1.0  0.92407  0.28899  0.34726  1.0000
  H   H4743     1.0  0.91796  0.27429  0.33865  1.0000
  H   H4744     1.0  0.88267  0.06538  0.32158  1.0000
  H   H4745     1.0  0.69180  0.00485  0.25090  1.0000
  H   H4746     1.0  0.80936  0.05011  0.45842  1.0000
  H   H4747     1.0  0.87557  0.08614  0.45663  1.0000
  H   H4748     1.0  0.72683  0.09612  0.47708  1.0000
  H   H4749     1.0  0.72317  0.05380  0.27376  1.0000
  C   C2686     1.0  0.97607  0.18194  0.39837  1.0000
  H   H4750     1.0  0.83801  0.03670  0.44650  1.0000
  H   H4751     1.0  0.94686  0.03709  0.30011  1.0000
  H   H4752     1.0  0.83441  0.07740  0.39758  1.0000
  C   C2687     1.0  0.81055  0.00244  0.34108  1.0000
  H   H4753     1.0  0.96602  0.19501  0.43288  1.0000
  C   C2688     1.0  0.88486  0.12310  0.45807  1.0000
  C   C2689     1.0  0.89129  0.09922  0.39457  1.0000
  C   C2690     1.0  0.92577  0.09809  0.46389  1.0000
  H   H4754     1.0  0.91232  0.05549  0.33051  1.0000
  H   H4755     1.0  0.96428  0.18646  0.40778  1.0000
  H   H4756     1.0  0.81267  0.08822  0.40658  1.0000
  C   C2691     1.0  0.93859  0.07637  0.31204  1.0000
  H   H4757     1.0  0.98175  0.19329  0.39107  1.0000
  H   H4758     1.0  0.94970  0.23496  0.30265  1.0000
  C   C2692     1.0  0.93614  0.38684  0.32198  1.0000
  H   H4759     1.0  0.93788  0.02512  0.36311  1.0000
  H   H4760     1.0  0.73437  0.09518  0.28433  1.0000
  H   H4761     1.0  0.87574  0.11597  0.41191  1.0000
  C   C2693     1.0  0.94403  0.04704  0.33010  1.0000
  C   C2694     1.0  0.84312  0.04427  0.45235  1.0000
  C   C2695     1.0  0.94924  0.46876  0.27614  1.0000
  C   C2696     1.0  0.83779  0.07259  0.46037  1.0000
  H   H4762     1.0  0.69598  0.07818  0.31605  1.0000
  H   H4763     1.0  0.73508  0.12620  0.27202  1.0000
  H   H4764     1.0  0.91283  0.12171  0.42926  1.0000
  H   H4765     1.0  0.94099  0.43787  0.34025  1.0000
  H   H4766     1.0  0.88819  0.09610  0.42198  1.0000
  H   H4767     1.0  0.89717  0.16064  0.35830  1.0000
  H   H4768     1.0  0.67389  0.08903  0.29824  1.0000
  C   C2697     1.0  0.88954  0.06863  0.30782  1.0000
  H   H4769     1.0  0.97824  0.27322  0.31608  1.0000
  C   C2698     1.0  0.75953  0.98626  0.41288  1.0000
  H   H4770     1.0  0.96061  0.34564  0.35822  1.0000
  H   H4771     1.0  0.74113  0.06414  0.26813  1.0000
  H   H4772     1.0  0.91846  0.23827  0.41684  1.0000
  H   H4773     1.0  0.90952  0.13142  0.37356  1.0000
  S   S614      1.0  0.93727  0.43884  0.29437  1.0000
  C   C2699     1.0  0.97269  0.23482  0.31180  1.0000
  S   S615      1.0  0.96007  0.26955  0.42277  1.0000
  C   C2700     1.0  0.92628  0.47099  0.30172  1.0000
  H   H4774     1.0  0.82450  0.08532  0.43251  1.0000
  C   C2701     1.0  0.70530  0.09510  0.33549  1.0000
  H   H4775     1.0  0.68909  0.08310  0.42115  1.0000
  N   N152      1.0  0.93755  0.05787  0.31391  1.0000
  H   H4776     1.0  0.73502  0.01770  0.46517  1.0000
  H   H4777     1.0  0.83510  0.00398  0.37101  1.0000
  H   H4778     1.0  0.98375  0.25203  0.32929  1.0000
  H   H4779     1.0  0.93310  0.23288  0.39728  1.0000
  H   H4780     1.0  0.91123  0.37904  0.33215  1.0000
  C   C2702     1.0  0.83113  0.07138  0.43338  1.0000
  H   H4781     1.0  0.71418  0.09521  0.34351  1.0000
  H   H4782     1.0  0.84600  0.04246  0.32220  1.0000
  H   H4783     1.0  0.96065  0.01937  0.35320  1.0000
  H   H4784     1.0  0.91821  0.04501  0.31292  1.0000
  H   H4785     1.0  0.97541  0.23223  0.41577  1.0000
  H   H4786     1.0  0.73608  0.06652  0.29906  1.0000
  H   H4787     1.0  0.66433  0.00435  0.31940  1.0000
  H   H4788     1.0  0.84456  0.07152  0.42574  1.0000
  C   C2703     1.0  0.89750  0.15831  0.37226  1.0000
  H   H4789     1.0  0.96382  0.28067  0.47722  1.0000
  C   C2704     1.0  0.93843  0.36468  0.34885  1.0000
  C   C2705     1.0  0.69753  0.03432  0.31155  1.0000
  H   H4790     1.0  0.86392  0.10133  0.39587  1.0000
  C   C2706     1.0  0.96231  0.26543  0.29531  1.0000
  H   H4791     1.0  0.93617  0.20902  0.47215  1.0000
  H   H4792     1.0  0.97203  0.05379  0.43556  1.0000
  H   H4793     1.0  0.85620  0.04518  0.44404  1.0000
  H   H4794     1.0  0.90329  0.08893  0.39334  1.0000
  C   C2707     1.0  0.96657  0.28016  0.43497  1.0000
  H   H4795     1.0  0.95477  0.26593  0.45969  1.0000
  H   H4796     1.0  0.70984  0.02857  0.31537  1.0000
  H   H4797     1.0  0.83096  0.05079  0.42117  1.0000
  C   C2708     1.0  0.98077  0.12218  0.45453  1.0000
  C   C2709     1.0  0.95955  0.05258  0.26626  1.0000
  H   H4798     1.0  0.94668  0.00489  0.35623  1.0000
  H   H4799     1.0  0.69679  0.06787  0.28686  1.0000
  S   S616      1.0  0.67810  0.04206  0.26882  1.0000
  C   C2710     1.0  0.70799  0.07541  0.47150  1.0000
  H   H4800     1.0  0.98737  0.47616  0.25296  1.0000
  C   C2711     1.0  0.89804  0.13912  0.38092  1.0000
  H   H4801     1.0  0.94473  0.08089  0.38916  1.0000
  C   C2712     1.0  0.69537  0.03321  0.29547  1.0000
  H   H4802     1.0  0.79731  0.08270  0.44769  1.0000
  H   H4803     1.0  0.71833  0.05632  0.30519  1.0000
  C   C2713     1.0  0.98930  0.11824  0.42018  1.0000
  H   H4804     1.0  0.95492  0.08953  0.40079  1.0000
  H   H4805     1.0  0.92956  0.11607  0.40185  1.0000
  H   H4806     1.0  0.88610  0.13642  0.37948  1.0000
  H   H4807     1.0  0.88575  0.16671  0.37862  1.0000
  C   C2714     1.0  0.96786  0.27352  0.26224  1.0000
  H   H4808     1.0  0.77748  0.01544  0.33537  1.0000
  H   H4809     1.0  0.92170  0.10759  0.38863  1.0000
  H   H4810     1.0  0.68068  0.04030  0.46905  1.0000
  H   H4811     1.0  0.68440  0.08715  0.45172  1.0000
  C   C2715     1.0  0.84347  0.99308  0.42761  1.0000
  C   C2716     1.0  0.67946  0.04078  0.29030  1.0000
  C   C2717     1.0  0.69944  0.08112  0.28195  1.0000
  H   H4812     1.0  0.93298  0.42332  0.36001  1.0000
  H   H4813     1.0  0.68165  0.10703  0.28304  1.0000
  C   C2718     1.0  0.94833  0.21387  0.46789  1.0000
  H   H4814     1.0  0.70615  0.02674  0.28686  1.0000
  C   C2719     1.0  0.94378  0.39321  0.34694  1.0000
  S   S617      1.0  0.95177  0.43865  0.24423  1.0000
  C   C2720     1.0  0.92046  0.10815  0.40230  1.0000
  C   C2721     1.0  0.94551  0.08162  0.40223  1.0000
  C   C2722     1.0  0.69664  0.04901  0.48128  1.0000
  S   S618      1.0  0.98199  0.36200  0.27392  1.0000
  H   H4815     1.0  0.84914  0.03975  0.47819  1.0000
  H   H4816     1.0  0.67503  0.00281  0.27060  1.0000
  H   H4817     1.0  0.79147  0.00686  0.41270  1.0000
  H   H4818     1.0  0.66709  0.10165  0.47146  1.0000
  C   C2723     1.0  0.98336  0.19221  0.35029  1.0000
  H   H4819     1.0  0.71856  0.14020  0.26062  1.0000
  H   H4820     1.0  0.97429  0.26859  0.25022  1.0000
  H   H4821     1.0  0.83282  0.02916  0.47807  1.0000
  C   C2724     1.0  0.68306  0.03882  0.48213  1.0000
  C   C2725     1.0  0.82602  0.99550  0.37321  1.0000
  H   H4822     1.0  0.95092  0.36248  0.37034  1.0000
  H   H4823     1.0  0.95478  0.10405  0.29153  1.0000
  H   H4824     1.0  0.81273  0.00372  0.37329  1.0000
  H   H4825     1.0  0.85064  0.04188  0.29959  1.0000
  H   H4826     1.0  0.78131  0.00937  0.39497  1.0000
  H   H4827     1.0  0.83653  0.98845  0.31540  1.0000
  H   H4828     1.0  0.70185  0.06272  0.41611  1.0000
  H   H4829     1.0  0.83439  0.01795  0.34447  1.0000
  H   H4830     1.0  0.86652  0.99199  0.43539  1.0000
  H   H4831     1.0  0.97734  0.12355  0.46785  1.0000
  C   C2726     1.0  0.97163  0.25919  0.27820  1.0000
  N   N153      1.0  0.69211  0.06840  0.47431  1.0000
  C   C2727     1.0  0.94361  0.23149  0.47334  1.0000
  C   C2728     1.0  0.98176  0.25915  0.31595  1.0000
  H   H4832     1.0  0.97518  0.08370  0.42062  1.0000
  H   H4833     1.0  0.95691  0.05122  0.48270  1.0000
  C   C2729     1.0  0.98066  0.30173  0.43658  1.0000
  H   H4834     1.0  0.97292  0.28491  0.26156  1.0000
  H   H4835     1.0  0.66756  0.99793  0.34995  1.0000
  H   H4836     1.0  0.85817  0.08342  0.47538  1.0000
  H   H4837     1.0  0.78926  0.03206  0.32308  1.0000
  H   H4838     1.0  0.80236  0.99403  0.35108  1.0000
  H   H4839     1.0  0.97948  0.29651  0.41264  1.0000
  H   H4840     1.0  0.96923  0.47590  0.30084  1.0000
  S   S619      1.0  0.98195  0.30872  0.46685  1.0000
  C   C2730     1.0  0.95808  0.22639  0.31170  1.0000
  H   H4841     1.0  0.98770  0.31188  0.43009  1.0000
  H   H4842     1.0  0.81365  0.05470  0.47638  1.0000
  H   H4843     1.0  0.70926  0.04306  0.47366  1.0000
  H   H4844     1.0  0.98193  0.45983  0.31525  1.0000
  H   H4845     1.0  0.97291  0.21066  0.29282  1.0000
  H   H4846     1.0  0.94977  0.22396  0.32498  1.0000
  C   C2731     1.0  0.72997  0.08216  0.48364  1.0000
  H   H4847     1.0  0.95470  0.20270  0.30767  1.0000
  C   C2732     1.0  0.97839  0.03182  0.47266  1.0000
  H   H4848     1.0  0.68329  0.10203  0.48223  1.0000
  H   H4849     1.0  0.70923  0.99225  0.40276  1.0000
  C   C2733     1.0  0.97997  0.05944  0.44062  1.0000
  H   H4850     1.0  0.98342  0.23226  0.30060  1.0000
  C   C2734     1.0  0.72803  0.98638  0.31615  1.0000
  H   H4851     1.0  0.69594  0.00501  0.27135  1.0000
  C   C2735     1.0  0.68917  0.99927  0.26514  1.0000
  H   H4852     1.0  0.97406  0.20001  0.31523  1.0000
  H   H4853     1.0  0.66368  0.00310  0.40508  1.0000
  H   H4854     1.0  0.98919  0.18066  0.34511  1.0000
  H   H4855     1.0  0.98273  0.48255  0.31056  1.0000
  H   H4856     1.0  0.99027  0.03463  0.47410  1.0000
  H   H4857     1.0  0.97094  0.47017  0.23540  1.0000
  H   H4858     1.0  0.80985  0.99657  0.48412  1.0000
  C   C2736     1.0  0.67215  0.09634  0.48360  1.0000
  C   C2737     1.0  0.97813  0.06836  0.48478  1.0000
  H   H4859     1.0  0.65833  0.02469  0.39181  1.0000
  H   H4860     1.0  0.69565  0.98598  0.42369  1.0000
  C   C2738     1.0  0.91166  0.35118  0.61282  1.0000
  H   H4861     1.0  0.73418  0.99054  0.48795  1.0000
  S   S620      1.0  0.97823  0.15248  0.51797  1.0000
  C   C2739     1.0  0.67983  0.02196  0.61455  1.0000
  H   H4862     1.0  0.87123  0.00840  0.56511  1.0000
  C   C2740     1.0  0.93152  0.31962  0.57218  1.0000
  C   C2741     1.0  0.66829  0.02274  0.56850  1.0000
  H   H4863     1.0  0.98911  0.44470  0.66813  1.0000
  H   H4864     1.0  0.86007  0.98827  0.58954  1.0000
  Fe  Fe310     1.0  0.96818  0.13898  0.50373  1.0000
  H   H4865     1.0  0.93808  0.37451  0.72043  1.0000
  H   H4866     1.0  0.93363  0.37574  0.58295  1.0000
  S   S621      1.0  0.96295  0.40174  0.63152  1.0000
  H   H4867     1.0  0.96433  0.17099  0.60277  1.0000
  H   H4868     1.0  0.93532  0.36390  0.61676  1.0000
  H   H4869     1.0  0.66301  0.08763  0.60295  1.0000
  H   H4870     1.0  0.95506  0.36271  0.57910  1.0000
  H   H4871     1.0  0.99071  0.46869  0.69437  1.0000
  S   S622      1.0  0.96909  0.24049  0.53686  1.0000
  Fe  Fe311     1.0  0.98075  0.37517  0.63371  1.0000
  N   N154      1.0  0.86156  0.98725  0.56307  1.0000
  H   H4872     1.0  0.87955  0.37395  0.61845  1.0000
  H   H4873     1.0  0.90882  0.35553  0.62517  1.0000
  S   S623      1.0  0.96449  0.29281  0.51892  1.0000
  C   C2742     1.0  0.92562  0.32451  0.58989  1.0000
  S   S624      1.0  0.75021  0.00855  0.53440  1.0000
  H   H4874     1.0  0.85284  0.02617  0.51606  1.0000
  Fe  Fe312     1.0  0.90896  0.05445  0.50835  1.0000
  H   H4875     1.0  0.92412  0.31042  0.57177  1.0000
  S   S625      1.0  0.92790  0.06121  0.51954  1.0000
  Fe  Fe313     1.0  0.87283  0.05338  0.50583  1.0000
  H   H4876     1.0  0.95504  0.44723  0.66546  1.0000
  S   S626      1.0  0.84379  0.06370  0.51095  1.0000
  Fe  Fe314     1.0  0.90188  0.02110  0.50528  1.0000
  H   H4877     1.0  0.69896  0.99833  0.62379  1.0000
  H   H4878     1.0  0.79026  0.04643  0.51468  1.0000
  S   S627      1.0  0.89007  0.03790  0.52473  1.0000
  H   H4879     1.0  0.99053  0.37250  0.67967  1.0000
  C   C2743     1.0  0.83925  0.03066  0.51568  1.0000
  H   H4880     1.0  0.66765  0.05101  0.62586  1.0000
  H   H4881     1.0  0.83517  0.01856  0.55620  1.0000
  C   C2744     1.0  0.83155  0.04841  0.51336  1.0000
  C   C2745     1.0  0.81387  0.05407  0.51293  1.0000
  C   C2746     1.0  0.80392  0.04202  0.51481  1.0000
  H   H4882     1.0  0.98529  0.34477  0.58909  1.0000
  H   H4883     1.0  0.87835  0.38296  0.59592  1.0000
  H   H4884     1.0  0.80785  0.06778  0.51120  1.0000
  H   H4885     1.0  0.87855  0.36026  0.60504  1.0000
  C   C2747     1.0  0.94885  0.34765  0.71957  1.0000
  S   S628      1.0  0.94045  0.13684  0.50810  1.0000
  H   H4886     1.0  0.83529  0.00497  0.51929  1.0000
  C   C2748     1.0  0.96467  0.45626  0.68288  1.0000
  C   C2749     1.0  0.88145  0.98687  0.50755  1.0000
  H   H4887     1.0  0.69128  0.01696  0.50284  1.0000
  H   H4888     1.0  0.97297  0.11644  0.54799  1.0000
  Fe  Fe315     1.0  0.77292  0.01669  0.51432  1.0000
  C   C2750     1.0  0.84773  0.03801  0.55620  1.0000
  H   H4889     1.0  0.98487  0.17102  0.57961  1.0000
  H   H4890     1.0  0.68117  0.01787  0.64875  1.0000
  C   C2751     1.0  0.71413  0.07428  0.48817  1.0000
  H   H4891     1.0  0.90702  0.36480  0.58644  1.0000
  C   C2752     1.0  0.98841  0.15858  0.57532  1.0000
  C   C2753     1.0  0.67732  0.07619  0.48740  1.0000
  C   C2754     1.0  0.93700  0.11582  0.51107  1.0000
  C   C2755     1.0  0.94876  0.10099  0.51758  1.0000
  C   C2756     1.0  0.94560  0.08441  0.52034  1.0000
  C   C2757     1.0  0.93087  0.08243  0.51628  1.0000
  C   C2758     1.0  0.91901  0.09724  0.50987  1.0000
  H   H4892     1.0  0.96711  0.14075  0.60034  1.0000
  H   H4893     1.0  0.96007  0.10227  0.52092  1.0000
  H   H4894     1.0  0.95469  0.07302  0.52554  1.0000
  C   C2759     1.0  0.90358  0.36704  0.59980  1.0000
  H   H4895     1.0  0.72396  0.02110  0.56789  1.0000
  H   H4896     1.0  0.98342  0.34602  0.55897  1.0000
  C   C2760     1.0  0.92203  0.11390  0.50737  1.0000
  S   S629      1.0  0.98295  0.31715  0.62051  1.0000
  H   H4897     1.0  0.93926  0.36164  0.69585  1.0000
  C   C2761     1.0  0.97425  0.22740  0.52169  1.0000
  C   C2762     1.0  0.72113  0.02507  0.59380  1.0000
  C   C2763     1.0  0.98338  0.33397  0.56869  1.0000
  H   H4898     1.0  0.94282  0.39152  0.59981  1.0000
  H   H4899     1.0  0.67046  0.99035  0.63344  1.0000
  S   S630      1.0  0.75726  0.04285  0.50364  1.0000
  H   H4900     1.0  0.67956  0.01229  0.48970  1.0000
  C   C2764     1.0  0.70012  0.02203  0.65962  1.0000
  H   H4901     1.0  0.69857  0.04618  0.49481  1.0000
  C   C2765     1.0  0.98370  0.31797  0.59854  1.0000
  C   C2766     1.0  0.70004  0.03009  0.62729  1.0000
  H   H4902     1.0  0.89738  0.99224  0.55796  1.0000
  H   H4903     1.0  0.68531  0.99983  0.56057  1.0000
  H   H4904     1.0  0.92934  0.33131  0.56149  1.0000
  C   C2767     1.0  0.95233  0.38400  0.59057  1.0000
  H   H4905     1.0  0.94736  0.17918  0.59053  1.0000
  C   C2768     1.0  0.95067  0.35175  0.69982  1.0000
  H   H4906     1.0  0.97130  0.45170  0.71285  1.0000
  H   H4907     1.0  0.98038  0.29241  0.57366  1.0000
  H   H4908     1.0  0.94009  0.31657  0.66493  1.0000
  C   C2769     1.0  0.81162  0.02427  0.51729  1.0000
  C   C2770     1.0  0.93967  0.18426  0.54466  1.0000
  H   H4909     1.0  0.96408  0.11889  0.58641  1.0000
  H   H4910     1.0  0.69763  0.00213  0.60125  1.0000
  C   C2771     1.0  0.69681  0.02208  0.54934  1.0000
  H   H4911     1.0  0.73418  0.08107  0.49577  1.0000
  C   C2772     1.0  0.93555  0.32771  0.62154  1.0000
  S   S631      1.0  0.79959  0.00861  0.52053  1.0000
  C   C2773     1.0  0.88380  0.37125  0.60520  1.0000
  H   H4912     1.0  0.94562  0.33822  0.63791  1.0000
  Fe  Fe316     1.0  0.73415  0.03341  0.52177  1.0000
  H   H4913     1.0  0.73134  0.03977  0.56804  1.0000
  C   C2774     1.0  0.94519  0.36955  0.58867  1.0000
  C   C2775     1.0  0.98499  0.20610  0.49750  1.0000
  H   H4914     1.0  0.97856  0.42951  0.68467  1.0000
  H   H4915     1.0  0.91278  0.12532  0.50252  1.0000
  C   C2776     1.0  0.95701  0.45951  0.66693  1.0000
  H   H4916     1.0  0.66905  0.99413  0.61091  1.0000
  Fe  Fe317     1.0  0.74649  0.99787  0.51380  1.0000
  H   H4917     1.0  0.86801  0.01000  0.54403  1.0000
  C   C2777     1.0  0.82929  0.01865  0.51763  1.0000
  H   H4918     1.0  0.69173  0.02074  0.67290  1.0000
  S   S632      1.0  0.97816  0.32142  0.54344  1.0000
  H   H4919     1.0  0.67975  0.04024  0.64832  1.0000
  H   H4920     1.0  0.93304  0.34900  0.57946  1.0000
  H   H4921     1.0  0.96456  0.37848  0.59536  1.0000
  H   H4922     1.0  0.70779  0.03178  0.65785  1.0000
  H   H4923     1.0  0.96652  0.46878  0.68372  1.0000
  H   H4924     1.0  0.95450  0.34935  0.60895  1.0000
  H   H4925     1.0  0.97575  0.20353  0.54119  1.0000
  H   H4926     1.0  0.91144  0.32998  0.59193  1.0000
  H   H4927     1.0  0.98816  0.39411  0.69620  1.0000
  S   S633      1.0  0.72866  0.02198  0.50267  1.0000
  C   C2778     1.0  0.67804  0.99043  0.61993  1.0000
  Fe  Fe318     1.0  0.97933  0.26497  0.52539  1.0000
  H   H4928     1.0  0.90418  0.34096  0.61585  1.0000
  H   H4929     1.0  0.95255  0.30590  0.64760  1.0000
  H   H4930     1.0  0.96273  0.18148  0.56336  1.0000
  N   N155      1.0  0.69035  0.03498  0.61274  1.0000
  H   H4931     1.0  0.71784  0.06056  0.49512  1.0000
  C   C2779     1.0  0.93560  0.33100  0.63932  1.0000
  C   C2780     1.0  0.98195  0.44236  0.68196  1.0000
  C   C2781     1.0  0.93530  0.33788  0.59060  1.0000
  H   H4932     1.0  0.96890  0.02379  0.50069  1.0000
  H   H4933     1.0  0.74410  0.01812  0.57420  1.0000
  H   H4934     1.0  0.82787  0.99551  0.58433  1.0000
  H   H4935     1.0  0.83444  0.98982  0.61372  1.0000
  H   H4936     1.0  0.97326  0.24880  0.49932  1.0000
  C   C2782     1.0  0.94026  0.16405  0.61626  1.0000
  C   C2783     1.0  0.67921  0.04913  0.55656  1.0000
  C   C2784     1.0  0.97167  0.11082  0.56221  1.0000
  H   H4937     1.0  0.94865  0.31993  0.61689  1.0000
  C   C2785     1.0  0.94141  0.35644  0.60636  1.0000
  H   H4938     1.0  0.98282  0.13994  0.55271  1.0000
  H   H4939     1.0  0.68012  0.07132  0.50074  1.0000
  H   H4940     1.0  0.67744  0.06293  0.55533  1.0000
  C   C2786     1.0  0.97613  0.23483  0.50386  1.0000
  C   C2787     1.0  0.68880  0.02783  0.64610  1.0000
  H   H4941     1.0  0.92961  0.30635  0.65519  1.0000
  H   H4942     1.0  0.67296  0.02573  0.60363  1.0000
  H   H4943     1.0  0.85688  0.04001  0.56285  1.0000
  H   H4944     1.0  0.92722  0.18325  0.54262  1.0000
  H   H4945     1.0  0.70512  0.05055  0.59081  1.0000
  S   S634      1.0  0.88316  0.03513  0.48787  1.0000
  H   H4946     1.0  0.70868  0.01483  0.54269  1.0000
  C   C2788     1.0  0.94698  0.16780  0.55721  1.0000
  C   C2789     1.0  0.86239  0.00617  0.55824  1.0000
  H   H4947     1.0  0.93725  0.19593  0.55000  1.0000
  N   N156      1.0  0.93080  0.34366  0.60754  1.0000
  C   C2790     1.0  0.68934  0.01937  0.48937  1.0000
  N   N157      1.0  0.97256  0.15407  0.57334  1.0000
  C   C2791     1.0  0.69010  0.00301  0.61460  1.0000
  C   C2792     1.0  0.73068  0.02613  0.57482  1.0000
  C   C2793     1.0  0.96443  0.16876  0.56013  1.0000
  C   C2794     1.0  0.68359  0.01358  0.55952  1.0000
  H   H4948     1.0  0.99021  0.12887  0.57202  1.0000
  H   H4949     1.0  0.70998  0.01784  0.62688  1.0000
  H   H4950     1.0  0.95464  0.43770  0.63436  1.0000
  C   C2795     1.0  0.98184  0.31926  0.56426  1.0000
  H   H4951     1.0  0.94550  0.31318  0.56992  1.0000
  C   C2796     1.0  0.98169  0.30376  0.57692  1.0000
  H   H4952     1.0  0.96424  0.07222  0.49062  1.0000
  C   C2797     1.0  0.84513  0.01942  0.56251  1.0000
  Fe  Fe319     1.0  0.98479  0.29451  0.49410  1.0000
  H   H4953     1.0  0.90790  0.37868  0.59971  1.0000
  S   S635      1.0  0.92195  0.03638  0.49024  1.0000
  S   S636      1.0  0.77023  0.00412  0.49449  1.0000
  H   H4954     1.0  0.96258  0.35666  0.69300  1.0000
  C   C2798     1.0  0.96544  0.12523  0.57233  1.0000
  H   H4955     1.0  0.66256  0.09806  0.51080  1.0000
  H   H4956     1.0  0.87644  0.00069  0.50615  1.0000
  H   H4957     1.0  0.92286  0.33853  0.64497  1.0000
  C   C2799     1.0  0.93969  0.31387  0.65252  1.0000
  C   C2800     1.0  0.98245  0.30318  0.59404  1.0000
  H   H4958     1.0  0.70393  0.08136  0.49729  1.0000
  H   H4959     1.0  0.94888  0.15678  0.55112  1.0000
  C   C2801     1.0  0.96815  0.43438  0.62806  1.0000
  H   H4960     1.0  0.94880  0.18594  0.53181  1.0000
  C   C2802     1.0  0.70272  0.03715  0.59516  1.0000
  C   C2803     1.0  0.96052  0.15165  0.59101  1.0000
  H   H4961     1.0  0.92656  0.31891  0.62445  1.0000
  H   H4962     1.0  0.93171  0.24240  0.49614  1.0000
  H   H4963     1.0  0.70744  0.04013  0.62556  1.0000
  S   S637      1.0  0.71152  0.05053  0.53605  1.0000
  H   H4964     1.0  0.92825  0.31231  0.59984  1.0000
  H   H4965     1.0  0.96000  0.33693  0.72279  1.0000
  H   H4966     1.0  0.96215  0.10244  0.56630  1.0000
  C   C2804     1.0  0.69473  0.03985  0.54799  1.0000
  H   H4967     1.0  0.94432  0.46896  0.66833  1.0000
  H   H4968     1.0  0.98185  0.29128  0.60390  1.0000
  H   H4969     1.0  0.94943  0.33207  0.58748  1.0000
  C   C2805     1.0  0.98779  0.07898  0.48975  1.0000
  H   H4970     1.0  0.83513  0.04733  0.55894  1.0000
  H   H4971     1.0  0.85291  0.04088  0.54197  1.0000
  C   C2806     1.0  0.95368  0.16768  0.59938  1.0000
  H   H4972     1.0  0.85446  0.99075  0.53862  1.0000
  C   C2807     1.0  0.67801  0.05235  0.61394  1.0000
  S   S638      1.0  0.89066  0.07152  0.49123  1.0000
  C   C2808     1.0  0.93444  0.22973  0.49249  1.0000
  H   H4973     1.0  0.95241  0.13239  0.57006  1.0000
  H   H4974     1.0  0.95165  0.33975  0.69560  1.0000
  S   S639      1.0  0.97302  0.35061  0.65060  1.0000
  H   H4975     1.0  0.96577  0.46509  0.65502  1.0000
  S   S640      1.0  0.91101  0.99204  0.51285  1.0000
  C   C2809     1.0  0.66857  0.06143  0.59865  1.0000
  H   H4976     1.0  0.90746  0.09585  0.50703  1.0000
  C   C2810     1.0  0.66600  0.04059  0.56678  1.0000
  H   H4977     1.0  0.70904  0.00923  0.65862  1.0000
  H   H4978     1.0  0.93578  0.17559  0.62214  1.0000
  C   C2811     1.0  0.97711  0.20928  0.52743  1.0000
  H   H4979     1.0  0.94890  0.14763  0.59056  1.0000
  H   H4980     1.0  0.93677  0.34289  0.72563  1.0000
  H   H4981     1.0  0.97329  0.16957  0.54716  1.0000
  H   H4982     1.0  0.92883  0.16135  0.61365  1.0000
  H   H4983     1.0  0.95499  0.45178  0.69457  1.0000
  H   H4984     1.0  0.94600  0.15277  0.62578  1.0000
  C   C2812     1.0  0.94845  0.36400  0.72574  1.0000
  H   H4985     1.0  0.95506  0.39306  0.57773  1.0000
  H   H4986     1.0  0.97683  0.42864  0.71593  1.0000
  H   H4987     1.0  0.72089  0.01129  0.59986  1.0000
  H   H4988     1.0  0.68495  0.06168  0.61512  1.0000
  C   C2813     1.0  0.98443  0.33330  0.58574  1.0000
  C   C2814     1.0  0.97840  0.44680  0.62315  1.0000
  H   H4989     1.0  0.66923  0.02207  0.62639  1.0000
  H   H4990     1.0  0.93712  0.16643  0.56953  1.0000
  H   H4991     1.0  0.66543  0.07178  0.48836  1.0000
  H   H4992     1.0  0.67784  0.06459  0.58617  1.0000
  H   H4993     1.0  0.69675  0.03580  0.58507  1.0000
  H   H4994     1.0  0.96088  0.36806  0.71896  1.0000
  H   H4995     1.0  0.93946  0.39851  0.72642  1.0000
  H   H4996     1.0  0.72890  0.02916  0.60046  1.0000
  C   C2815     1.0  0.97542  0.41763  0.62494  1.0000
  H   H4997     1.0  0.97276  0.45972  0.62547  1.0000
  H   H4998     1.0  0.94282  0.21992  0.50095  1.0000
  C   C2816     1.0  0.97848  0.13724  0.56709  1.0000
  C   C2817     1.0  0.98162  0.22421  0.49181  1.0000
  H   H4999     1.0  0.84024  0.01737  0.57679  1.0000
  Fe  Fe320     1.0  0.98358  0.29886  0.53041  1.0000
  H   H5000     1.0  0.66092  0.05307  0.59720  1.0000
  Fe  Fe321     1.0  0.98964  0.33828  0.62846  1.0000
  H   H5001     1.0  0.98438  0.10259  0.56478  1.0000
  H   H5002     1.0  0.92198  0.22586  0.49482  1.0000
  H   H5003     1.0  0.98253  0.09307  0.48513  1.0000
  H   H5004     1.0  0.83664  0.99170  0.55625  1.0000
  H   H5005     1.0  0.98539  0.18469  0.51971  1.0000
  H   H5006     1.0  0.98265  0.05451  0.49098  1.0000
  H   H5007     1.0  0.98271  0.00654  0.49044  1.0000
  H   H5008     1.0  0.98756  0.39123  0.56443  1.0000
  C   C2818     1.0  0.98247  0.44035  0.71215  1.0000
  C   C2819     1.0  0.98248  0.19864  0.51533  1.0000
  H   H5009     1.0  0.98599  0.07615  0.50414  1.0000
  H   H5010     1.0  0.67057  0.04335  0.49074  1.0000
  C   C2820     1.0  0.97225  0.01848  0.48884  1.0000
  Fe  Fe322     1.0  0.75279  0.02960  0.48528  1.0000
  H   H5011     1.0  0.78239  0.06789  0.48608  1.0000
  H   H5012     1.0  0.96069  0.01489  0.48755  1.0000
  H   H5013     1.0  0.99091  0.22192  0.56481  1.0000
  S   S641      1.0  0.99073  0.11617  0.50412  1.0000
  H   H5014     1.0  0.92600  0.34712  0.75209  1.0000
  Fe  Fe323     1.0  0.72992  0.38200  0.85694  1.0000
  S   S642      1.0  0.71667  0.39516  0.87890  1.0000
  S   S643      1.0  0.75709  0.38385  0.84232  1.0000
  Fe  Fe324     1.0  0.69895  0.36736  0.85984  1.0000
  S   S644      1.0  0.68277  0.37943  0.88223  1.0000
  S   S645      1.0  0.69446  0.34814  0.84737  1.0000
  Fe  Fe325     1.0  0.69330  0.40314  0.86723  1.0000
  S   S646      1.0  0.67919  0.43077  0.86839  1.0000
  Fe  Fe326     1.0  0.70729  0.37088  0.89230  1.0000
  S   S647      1.0  0.70676  0.36007  0.92071  1.0000
  S   S648      1.0  0.70731  0.39197  0.84376  1.0000
  S   S649      1.0  0.72267  0.35674  0.87144  1.0000
  H   H5015     1.0  0.94276  0.48264  0.83326  1.0000
  S   S650      1.0  0.88350  0.47025  0.85968  1.0000
  Fe  Fe327     1.0  0.86886  0.37196  0.85931  1.0000
  S   S651      1.0  0.84090  0.38606  0.86522  1.0000
  S   S652      1.0  0.88322  0.37827  0.83141  1.0000
  Fe  Fe328     1.0  0.86895  0.35390  0.89691  1.0000
  S   S653      1.0  0.84135  0.36667  0.90589  1.0000
  S   S654      1.0  0.88193  0.33570  0.91809  1.0000
  Fe  Fe329     1.0  0.83659  0.36057  0.88285  1.0000
  S   S655      1.0  0.81336  0.34881  0.88856  1.0000
  Fe  Fe330     1.0  0.84806  0.39079  0.88768  1.0000
  S   S656      1.0  0.83698  0.41578  0.89678  1.0000
  S   S657      1.0  0.86394  0.34587  0.87506  1.0000
  S   S658      1.0  0.87636  0.37865  0.88059  1.0000
  H   H5016     1.0  0.66445  0.31031  0.88879  1.0000
  C   C2821     1.0  0.97943  0.43712  0.74452  1.0000
  C   C2822     1.0  0.67845  0.48584  0.82626  1.0000
  C   C2823     1.0  0.90308  0.36888  0.92931  1.0000
  C   C2824     1.0  0.67644  0.12647  0.78148  1.0000
  C   C2825     1.0  0.69426  0.14745  0.76035  1.0000
  H   H5017     1.0  0.68940  0.23882  0.90276  1.0000
  H   H5018     1.0  0.93714  0.40900  0.76027  1.0000
  H   H5019     1.0  0.90917  0.41828  0.83700  1.0000
  C   C2826     1.0  0.65993  0.13154  0.81111  1.0000
  H   H5020     1.0  0.67650  0.09843  0.80834  1.0000
  H   H5021     1.0  0.91376  0.40422  0.89583  1.0000
  C   C2827     1.0  0.89244  0.46395  0.81125  1.0000
  Fe  Fe331     1.0  0.98046  0.36696  0.79595  1.0000
  S   S659      1.0  0.90448  0.37738  0.95868  1.0000
  H   H5022     1.0  0.92525  0.41026  0.80077  1.0000
  H   H5023     1.0  0.92562  0.42217  0.85792  1.0000
  H   H5024     1.0  0.71423  0.31859  0.86889  1.0000
  H   H5025     1.0  0.79115  0.33843  0.85245  1.0000
  H   H5026     1.0  0.73641  0.37768  0.79167  1.0000
  H   H5027     1.0  0.81523  0.48288  0.90780  1.0000
  H   H5028     1.0  0.72709  0.45322  0.94399  1.0000
  H   H5029     1.0  0.74060  0.36541  0.82982  1.0000
  H   H5030     1.0  0.70614  0.13684  0.76008  1.0000
  H   H5031     1.0  0.86194  0.41124  0.92177  1.0000
  H   H5032     1.0  0.79061  0.31718  0.83615  1.0000
  H   H5033     1.0  0.66895  0.40083  0.97373  1.0000
  C   C2828     1.0  0.88002  0.43552  0.91253  1.0000
  H   H5034     1.0  0.66459  0.23269  0.89616  1.0000
  H   H5035     1.0  0.68057  0.25400  0.87418  1.0000
  N   N158      1.0  0.80165  0.33261  0.94774  1.0000
  H   H5036     1.0  0.98844  0.42454  0.83047  1.0000
  C   C2829     1.0  0.91769  0.39781  0.87073  1.0000
  H   H5037     1.0  0.93613  0.42673  0.82660  1.0000
  C   C2830     1.0  0.68001  0.30192  0.92682  1.0000
  H   H5038     1.0  0.66187  0.36052  0.96211  1.0000
  C   C2831     1.0  0.86941  0.45600  0.86859  1.0000
  C   C2832     1.0  0.85397  0.46024  0.88054  1.0000
  C   C2833     1.0  0.84391  0.44789  0.88902  1.0000
  C   C2834     1.0  0.84902  0.43145  0.88519  1.0000
  C   C2835     1.0  0.86378  0.42762  0.87234  1.0000
  C   C2836     1.0  0.87403  0.43985  0.86414  1.0000
  H   H5039     1.0  0.92999  0.33373  0.91341  1.0000
  H   H5040     1.0  0.83231  0.45099  0.89871  1.0000
  H   H5041     1.0  0.86748  0.41518  0.86889  1.0000
  H   H5042     1.0  0.88578  0.43664  0.85466  1.0000
  C   C2837     1.0  0.67507  0.34068  0.85379  1.0000
  H   H5043     1.0  0.80469  0.32606  0.92304  1.0000
  H   H5044     1.0  0.89570  0.39804  0.89270  1.0000
  H   H5045     1.0  0.83408  0.47979  0.98373  1.0000
  H   H5046     1.0  0.92528  0.30983  0.94716  1.0000
  C   C2838     1.0  0.67441  0.32643  0.84796  1.0000
  C   C2839     1.0  0.91854  0.48247  0.78944  1.0000
  H   H5047     1.0  0.70092  0.27512  0.94512  1.0000
  H   H5048     1.0  0.68812  0.14836  0.74952  1.0000
  H   H5049     1.0  0.68585  0.31995  0.84005  1.0000
  C   C2840     1.0  0.69431  0.44402  0.86027  1.0000
  C   C2841     1.0  0.69373  0.45703  0.86855  1.0000
  C   C2842     1.0  0.70641  0.46705  0.86229  1.0000
  C   C2843     1.0  0.71915  0.46453  0.84735  1.0000
  C   C2844     1.0  0.71944  0.45177  0.83898  1.0000
  C   C2845     1.0  0.70728  0.44134  0.84559  1.0000
  H   H5050     1.0  0.68379  0.45900  0.88002  1.0000
  H   H5051     1.0  0.88327  0.44618  0.94520  1.0000
  H   H5052     1.0  0.72919  0.44983  0.82737  1.0000
  H   H5053     1.0  0.70781  0.43133  0.83917  1.0000
  C   C2846     1.0  0.72147  0.36708  0.92753  1.0000
  C   C2847     1.0  0.71902  0.36694  0.94511  1.0000
  C   C2848     1.0  0.73025  0.37323  0.95063  1.0000
  C   C2849     1.0  0.74433  0.37908  0.93870  1.0000
  C   C2850     1.0  0.74695  0.37897  0.92113  1.0000
  C   C2851     1.0  0.73546  0.37305  0.91556  1.0000
  H   H5054     1.0  0.70821  0.36234  0.95443  1.0000
  H   H5055     1.0  0.72766  0.37388  0.96407  1.0000
  H   H5056     1.0  0.75784  0.38342  0.91183  1.0000
  H   H5057     1.0  0.73760  0.37280  0.90206  1.0000
  C   C2852     1.0  0.77244  0.37517  0.85558  1.0000
  C   C2853     1.0  0.78947  0.37741  0.84898  1.0000
  C   C2854     1.0  0.80203  0.36980  0.85922  1.0000
  C   C2855     1.0  0.79764  0.35965  0.87596  1.0000
  C   C2856     1.0  0.78055  0.35764  0.88263  1.0000
  C   C2857     1.0  0.76796  0.36546  0.87248  1.0000
  H   H5058     1.0  0.79298  0.38491  0.83589  1.0000
  H   H5059     1.0  0.81522  0.37135  0.85399  1.0000
  H   H5060     1.0  0.77707  0.34989  0.89561  1.0000
  H   H5061     1.0  0.75492  0.36352  0.87751  1.0000
  C   C2858     1.0  0.94179  0.35685  0.81937  1.0000
  C   C2859     1.0  0.93170  0.34978  0.83522  1.0000
  C   C2860     1.0  0.91371  0.35643  0.83924  1.0000
  C   C2861     1.0  0.90567  0.36968  0.82708  1.0000
  C   C2862     1.0  0.91568  0.37633  0.81103  1.0000
  C   C2863     1.0  0.93372  0.37018  0.80732  1.0000
  H   H5062     1.0  0.93781  0.33923  0.84447  1.0000
  H   H5063     1.0  0.90601  0.35111  0.85159  1.0000
  H   H5064     1.0  0.90944  0.38648  0.80157  1.0000
  H   H5065     1.0  0.68073  0.32227  0.90236  1.0000
  H   H5066     1.0  0.89717  0.46101  0.79812  1.0000
  C   C2864     1.0  0.95892  0.34610  0.75193  1.0000
  H   H5067     1.0  0.96067  0.26626  0.98362  1.0000
  C   C2865     1.0  0.92751  0.35966  0.75340  1.0000
  C   C2866     1.0  0.92121  0.35972  0.77300  1.0000
  H   H5068     1.0  0.78561  0.47888  0.92055  1.0000
  H   H5069     1.0  0.87377  0.33629  0.95435  1.0000
  C   C2867     1.0  0.96554  0.34617  0.76794  1.0000
  H   H5070     1.0  0.97567  0.42445  0.74789  1.0000
  C   C2868     1.0  0.90209  0.35901  0.77929  1.0000
  C   C2869     1.0  0.68157  0.14417  0.77783  1.0000
  C   C2870     1.0  0.88666  0.35487  0.95640  1.0000
  H   H5071     1.0  0.66929  0.06535  0.79050  1.0000
  H   H5072     1.0  0.94748  0.37736  0.76202  1.0000
  H   H5073     1.0  0.83146  0.33443  0.91727  1.0000
  H   H5074     1.0  0.73397  0.43606  0.97241  1.0000
  H   H5075     1.0  0.88510  0.46050  0.89792  1.0000
  H   H5076     1.0  0.83825  0.31969  0.93602  1.0000
  H   H5077     1.0  0.91156  0.41445  0.96309  1.0000
  H   H5078     1.0  0.68587  0.48141  0.83671  1.0000
  H   H5079     1.0  0.92249  0.37167  0.77571  1.0000
  H   H5080     1.0  0.92856  0.34813  0.78085  1.0000
  C   C2871     1.0  0.68927  0.29991  0.95362  1.0000
  C   C2872     1.0  0.90420  0.30545  0.97751  1.0000
  C   C2873     1.0  0.94175  0.32378  0.91643  1.0000
  H   H5081     1.0  0.81944  0.46381  0.96796  1.0000
  H   H5082     1.0  0.67477  0.22167  0.82170  1.0000
  H   H5083     1.0  0.95488  0.34937  0.77893  1.0000
  H   H5084     1.0  0.69716  0.18755  0.94044  1.0000
  C   C2874     1.0  0.97833  0.45824  0.79678  1.0000
  H   H5085     1.0  0.84559  0.38742  0.95458  1.0000
  H   H5086     1.0  0.89387  0.37062  0.77230  1.0000
  H   H5087     1.0  0.89991  0.34705  0.77731  1.0000
  H   H5088     1.0  0.89803  0.35886  0.79344  1.0000
  H   H5089     1.0  0.90302  0.44253  0.89440  1.0000
  C   C2875     1.0  0.66023  0.34902  0.86397  1.0000
  H   H5090     1.0  0.66953  0.20508  0.95474  1.0000
  H   H5091     1.0  0.69126  0.26783  0.97750  1.0000
  S   S660      1.0  0.73480  0.47715  0.83841  1.0000
  H   H5092     1.0  0.96112  0.34748  0.85264  1.0000
  N   N159      1.0  0.94428  0.40284  0.84506  1.0000
  C   C2876     1.0  0.94788  0.38358  0.84603  1.0000
  C   C2877     1.0  0.93741  0.41254  0.82882  1.0000
  C   C2878     1.0  0.96143  0.40746  0.84285  1.0000
  C   C2879     1.0  0.93208  0.40813  0.86114  1.0000
  C   C2880     1.0  0.95776  0.37165  0.86034  1.0000
  C   C2881     1.0  0.96079  0.42683  0.84164  1.0000
  C   C2882     1.0  0.95578  0.35292  0.86446  1.0000
  C   C2883     1.0  0.94031  0.41068  0.74589  1.0000
  H   H5093     1.0  0.95574  0.38052  0.83337  1.0000
  H   H5094     1.0  0.93574  0.37932  0.84787  1.0000
  H   H5095     1.0  0.94684  0.40849  0.81723  1.0000
  H   H5096     1.0  0.97065  0.40369  0.83103  1.0000
  H   H5097     1.0  0.96763  0.40003  0.85403  1.0000
  H   H5098     1.0  0.93949  0.40692  0.87112  1.0000
  H   H5099     1.0  0.92333  0.38398  0.87602  1.0000
  H   H5100     1.0  0.97184  0.37140  0.85573  1.0000
  H   H5101     1.0  0.95320  0.37636  0.87258  1.0000
  H   H5102     1.0  0.95155  0.43145  0.85292  1.0000
  H   H5103     1.0  0.95694  0.43538  0.82955  1.0000
  H   H5104     1.0  0.91817  0.39706  0.83220  1.0000
  H   H5105     1.0  0.84160  0.41814  0.93533  1.0000
  C   C2884     1.0  0.67196  0.21376  0.92648  1.0000
  H   H5106     1.0  0.96307  0.34482  0.87464  1.0000
  H   H5107     1.0  0.82927  0.42849  0.95823  1.0000
  C   C2885     1.0  0.85014  0.44041  0.95765  1.0000
  H   H5108     1.0  0.98266  0.42226  0.85385  1.0000
  N   N160      1.0  0.68584  0.31165  0.93645  1.0000
  H   H5109     1.0  0.89926  0.31077  0.96528  1.0000
  C   C2886     1.0  0.76769  0.48204  0.95340  1.0000
  H   H5110     1.0  0.96453  0.46357  0.79929  1.0000
  C   C2887     1.0  0.70150  0.31878  0.92593  1.0000
  C   C2888     1.0  0.71512  0.30797  0.91348  1.0000
  H   H5111     1.0  0.83253  0.45646  0.83149  1.0000
  H   H5112     1.0  0.67559  0.20721  0.91545  1.0000
  C   C2889     1.0  0.70332  0.28291  0.95288  1.0000
  H   H5113     1.0  0.80996  0.30788  0.94010  1.0000
  C   C2890     1.0  0.73210  0.31415  0.90758  1.0000
  H   H5114     1.0  0.68012  0.42768  0.95957  1.0000
  C   C2891     1.0  0.80323  0.32239  0.96592  1.0000
  C   C2892     1.0  0.98973  0.46852  0.79555  1.0000
  H   H5115     1.0  0.69062  0.29131  0.92248  1.0000
  C   C2893     1.0  0.92388  0.47303  0.82652  1.0000
  C   C2894     1.0  0.66563  0.47424  0.83032  1.0000
  H   H5116     1.0  0.80247  0.46842  0.89355  1.0000
  H   H5117     1.0  0.82860  0.32705  0.96540  1.0000
  H   H5118     1.0  0.69742  0.33168  0.91735  1.0000
  H   H5119     1.0  0.70827  0.32130  0.93473  1.0000
  H   H5120     1.0  0.71013  0.30954  0.90171  1.0000
  H   H5121     1.0  0.71814  0.29392  0.91940  1.0000
  H   H5122     1.0  0.95125  0.46489  0.77503  1.0000
  H   H5123     1.0  0.80549  0.35695  0.93017  1.0000
  N   N161      1.0  0.94576  0.36196  0.74518  1.0000
  H   H5124     1.0  0.88204  0.35313  0.97033  1.0000
  H   H5125     1.0  0.80377  0.48109  0.93950  1.0000
  H   H5126     1.0  0.71628  0.28599  0.94738  1.0000
  Fe  Fe332     1.0  0.98453  0.40390  0.78717  1.0000
  C   C2895     1.0  0.94503  0.32422  0.93378  1.0000
  H   H5127     1.0  0.85253  0.44274  0.92290  1.0000
  H   H5128     1.0  0.72971  0.32831  0.90171  1.0000
  H   H5129     1.0  0.73825  0.31158  0.91883  1.0000
  H   H5130     1.0  0.74120  0.30714  0.89774  1.0000
  H   H5131     1.0  0.71710  0.46538  0.92064  1.0000
  H   H5132     1.0  0.97801  0.44337  0.83951  1.0000
  H   H5133     1.0  0.68380  0.21800  0.92600  1.0000
  C   C2896     1.0  0.87527  0.45822  0.81898  1.0000
  H   H5134     1.0  0.77509  0.47109  0.94720  1.0000
  H   H5135     1.0  0.67565  0.25673  0.91203  1.0000
  H   H5136     1.0  0.71608  0.30526  0.85403  1.0000
  H   H5137     1.0  0.68776  0.48377  0.81393  1.0000
  C   C2897     1.0  0.93258  0.47511  0.83986  1.0000
  H   H5138     1.0  0.91726  0.43171  0.80508  1.0000
  C   C2898     1.0  0.68454  0.18387  0.94321  1.0000
  H   H5139     1.0  0.78917  0.32784  0.80755  1.0000
  H   H5140     1.0  0.71089  0.43073  0.96073  1.0000
  H   H5141     1.0  0.81601  0.45164  0.87050  1.0000
  C   C2899     1.0  0.80548  0.37856  0.94895  1.0000
  H   H5142     1.0  0.82283  0.40062  0.97537  1.0000
  H   H5143     1.0  0.72466  0.36103  0.82144  1.0000
  H   H5144     1.0  0.71394  0.41368  0.90569  1.0000
  H   H5145     1.0  0.66061  0.36003  0.86847  1.0000
  C   C2900     1.0  0.72259  0.30752  0.86316  1.0000
  H   H5146     1.0  0.93420  0.46662  0.81698  1.0000
  H   H5147     1.0  0.79996  0.38678  0.95866  1.0000
  H   H5148     1.0  0.94152  0.47925  0.75729  1.0000
  H   H5149     1.0  0.80479  0.45118  0.96793  1.0000
  C   C2901     1.0  0.69161  0.48094  0.91929  1.0000
  H   H5150     1.0  0.72404  0.29574  0.87387  1.0000
  C   C2902     1.0  0.88755  0.34785  0.92926  1.0000
  H   H5151     1.0  0.73109  0.32515  0.83006  1.0000
  H   H5152     1.0  0.73087  0.33817  0.84404  1.0000
  H   H5153     1.0  0.86504  0.38171  0.93863  1.0000
  C   C2903     1.0  0.91591  0.41803  0.80987  1.0000
  H   H5154     1.0  0.69299  0.45216  0.94476  1.0000
  H   H5155     1.0  0.74369  0.43748  0.93324  1.0000
  C   C2904     1.0  0.74320  0.43413  0.96002  1.0000
  H   H5156     1.0  0.73423  0.41613  0.92060  1.0000
  C   C2905     1.0  0.67523  0.12454  0.82075  1.0000
  H   H5157     1.0  0.85246  0.30874  0.90948  1.0000
  H   H5158     1.0  0.78773  0.29563  0.79624  1.0000
  H   H5159     1.0  0.74574  0.31409  0.86350  1.0000
  H   H5160     1.0  0.81675  0.48115  0.87779  1.0000
  C   C2906     1.0  0.73015  0.42875  0.88565  1.0000
  C   C2907     1.0  0.91939  0.41073  0.82827  1.0000
  H   H5161     1.0  0.76609  0.47333  0.90039  1.0000
  C   C2908     1.0  0.73878  0.37951  0.80367  1.0000
  H   H5162     1.0  0.70764  0.46196  0.90506  1.0000
  H   H5163     1.0  0.79553  0.31625  0.86452  1.0000
  H   H5164     1.0  0.94127  0.37549  0.79499  1.0000
  H   H5165     1.0  0.68447  0.17718  0.93321  1.0000
  H   H5166     1.0  0.91140  0.37783  0.92235  1.0000
  H   H5167     1.0  0.90933  0.39810  0.86209  1.0000
  C   C2909     1.0  0.67075  0.07310  0.79892  1.0000
  H   H5168     1.0  0.95299  0.32657  0.90580  1.0000
  N   N162      1.0  0.93208  0.31765  0.96715  1.0000
  H   H5169     1.0  0.89788  0.44989  0.91436  1.0000
  C   C2910     1.0  0.83158  0.44166  0.95582  1.0000
  S   S661      1.0  0.75843  0.38667  0.94581  1.0000
  H   H5170     1.0  0.74861  0.29936  0.84963  1.0000
  H   H5171     1.0  0.90222  0.36174  0.90622  1.0000
  H   H5172     1.0  0.89306  0.42521  0.94101  1.0000
  H   H5173     1.0  0.84457  0.38906  0.93238  1.0000
  H   H5174     1.0  0.69083  0.26642  0.88161  1.0000
  H   H5175     1.0  0.89996  0.41913  0.88166  1.0000
  H   H5176     1.0  0.69252  0.41876  0.92986  1.0000
  C   C2911     1.0  0.82824  0.46053  0.84409  1.0000
  H   H5177     1.0  0.98610  0.43727  0.75456  1.0000
  H   H5178     1.0  0.75160  0.38284  0.80083  1.0000
  C   C2912     1.0  0.66151  0.24044  0.90619  1.0000
  C   C2913     1.0  0.85227  0.39075  0.94075  1.0000
  H   H5179     1.0  0.77381  0.31380  0.96180  1.0000
  H   H5180     1.0  0.70971  0.40386  0.93886  1.0000
  H   H5181     1.0  0.80540  0.30661  0.78925  1.0000
  H   H5182     1.0  0.70473  0.43661  0.90114  1.0000
  H   H5183     1.0  0.68669  0.44759  0.92789  1.0000
  H   H5184     1.0  0.65809  0.10472  0.95336  1.0000
  C   C2914     1.0  0.73805  0.36310  0.81819  1.0000
  H   H5185     1.0  0.73117  0.43880  0.91265  1.0000
  H   H5186     1.0  0.74198  0.41819  0.88667  1.0000
  H   H5187     1.0  0.83977  0.46139  0.84807  1.0000
  H   H5188     1.0  0.77358  0.48092  0.96449  1.0000
  H   H5189     1.0  0.86394  0.45617  0.92598  1.0000
  H   H5190     1.0  0.72472  0.42788  0.87504  1.0000
  H   H5191     1.0  0.85891  0.40744  0.96115  1.0000
  C   C2915     1.0  0.88195  0.34537  0.94736  1.0000
  C   C2916     1.0  0.76561  0.33625  0.83739  1.0000
  H   H5192     1.0  0.77383  0.30963  0.85321  1.0000
  H   H5193     1.0  0.79999  0.38537  0.93721  1.0000
  C   C2917     1.0  0.67073  0.12313  0.93331  1.0000
  C   C2918     1.0  0.73894  0.32712  0.83820  1.0000
  C   C2919     1.0  0.93691  0.39561  0.74086  1.0000
  H   H5194     1.0  0.72723  0.41428  0.95169  1.0000
  H   H5195     1.0  0.92288  0.48189  0.84960  1.0000
  C   C2920     1.0  0.70501  0.46382  0.91851  1.0000
  H   H5196     1.0  0.68356  0.29456  0.89407  1.0000
  H   H5197     1.0  0.73346  0.44165  0.88210  1.0000
  C   C2921     1.0  0.80424  0.48183  0.88742  1.0000
  N   N163      1.0  0.78990  0.43767  0.86811  1.0000
  C   C2922     1.0  0.77500  0.43753  0.86080  1.0000
  C   C2923     1.0  0.78389  0.44904  0.88129  1.0000
  C   C2924     1.0  0.80293  0.44553  0.85320  1.0000
  C   C2925     1.0  0.79877  0.41960  0.87610  1.0000
  C   C2926     1.0  0.78734  0.40915  0.89136  1.0000
  C   C2927     1.0  0.77925  0.42609  0.84735  1.0000
  C   C2928     1.0  0.81917  0.44739  0.85814  1.0000
  C   C2929     1.0  0.76496  0.45072  0.89200  1.0000
  C   C2930     1.0  0.76191  0.46084  0.90603  1.0000
  C   C2931     1.0  0.79799  0.39142  0.89862  1.0000
  C   C2932     1.0  0.76310  0.42712  0.84103  1.0000
  H   H5198     1.0  0.76899  0.45107  0.85462  1.0000
  H   H5199     1.0  0.76464  0.43274  0.87130  1.0000
  H   H5200     1.0  0.79257  0.44459  0.89078  1.0000
  H   H5201     1.0  0.78496  0.46268  0.87472  1.0000
  H   H5202     1.0  0.79642  0.45858  0.84640  1.0000
  H   H5203     1.0  0.80820  0.43757  0.84324  1.0000
  H   H5204     1.0  0.80499  0.41181  0.86602  1.0000
  H   H5205     1.0  0.80966  0.42015  0.88128  1.0000
  H   H5206     1.0  0.77651  0.40707  0.88714  1.0000
  H   H5207     1.0  0.78223  0.41576  0.90234  1.0000
  H   H5208     1.0  0.78889  0.43039  0.83564  1.0000
  H   H5209     1.0  0.78422  0.41224  0.85322  1.0000
  H   H5210     1.0  0.82859  0.43463  0.85965  1.0000
  H   H5211     1.0  0.75570  0.45777  0.88336  1.0000
  H   H5212     1.0  0.76164  0.43800  0.89845  1.0000
  H   H5213     1.0  0.85151  0.45376  0.95677  1.0000
  H   H5214     1.0  0.80775  0.39298  0.90478  1.0000
  H   H5215     1.0  0.78943  0.38345  0.90855  1.0000
  H   H5216     1.0  0.80479  0.38454  0.88802  1.0000
  H   H5217     1.0  0.75311  0.42202  0.85196  1.0000
  H   H5218     1.0  0.75767  0.44075  0.83489  1.0000
  H   H5219     1.0  0.76654  0.41915  0.83116  1.0000
  H   H5220     1.0  0.74931  0.46690  0.97045  1.0000
  H   H5221     1.0  0.95113  0.33362  0.95882  1.0000
  H   H5222     1.0  0.70636  0.47666  0.86895  1.0000
  S   S662      1.0  0.66529  0.14549  0.97608  1.0000
  H   H5223     1.0  0.95394  0.33410  0.75488  1.0000
  C   C2933     1.0  0.80811  0.34914  0.94313  1.0000
  H   H5224     1.0  0.67793  0.12535  0.94184  1.0000
  C   C2934     1.0  0.88992  0.48365  0.80998  1.0000
  C   C2935     1.0  0.70390  0.27146  0.97112  1.0000
  C   C2936     1.0  0.86459  0.44224  0.92676  1.0000
  C   C2937     1.0  0.85456  0.40940  0.93543  1.0000
  H   H5225     1.0  0.93998  0.31077  0.91683  1.0000
  C   C2938     1.0  0.67914  0.26108  0.88439  1.0000
  H   H5226     1.0  0.81943  0.47365  0.84244  1.0000
  H   H5227     1.0  0.68468  0.07046  0.79922  1.0000
  C   C2939     1.0  0.89229  0.44786  0.90440  1.0000
  H   H5228     1.0  0.91490  0.46439  0.83363  1.0000
  C   C2940     1.0  0.66397  0.10367  0.80400  1.0000
  H   H5229     1.0  0.79982  0.40890  0.98185  1.0000
  H   H5230     1.0  0.90175  0.45597  0.81947  1.0000
  H   H5231     1.0  0.82930  0.44920  0.94278  1.0000
  C   C2941     1.0  0.92929  0.32098  0.94886  1.0000
  H   H5232     1.0  0.87486  0.43436  0.97638  1.0000
  H   H5233     1.0  0.90632  0.33086  0.97770  1.0000
  H   H5234     1.0  0.79828  0.31039  0.96908  1.0000
  H   H5235     1.0  0.77452  0.33012  0.86993  1.0000
  C   C2942     1.0  0.66390  0.09241  0.79167  1.0000
  C   C2943     1.0  0.88165  0.43254  0.94895  1.0000
  C   C2944     1.0  0.68859  0.41491  0.95769  1.0000
  C   C2945     1.0  0.79446  0.30345  0.80012  1.0000
  H   H5236     1.0  0.67924  0.11299  0.92633  1.0000
  C   C2946     1.0  0.90611  0.40528  0.88616  1.0000
  S   S663      1.0  0.96959  0.39099  0.77768  1.0000
  N   N164      1.0  0.86495  0.43179  0.94509  1.0000
  H   H5237     1.0  0.71407  0.25935  0.97026  1.0000
  C   C2947     1.0  0.86442  0.41301  0.94734  1.0000
  H   H5238     1.0  0.68305  0.17466  0.95610  1.0000
  C   C2948     1.0  0.74917  0.47951  0.96084  1.0000
  H   H5239     1.0  0.66846  0.40715  0.95086  1.0000
  H   H5240     1.0  0.86930  0.46177  0.83173  1.0000
  H   H5241     1.0  0.94728  0.33731  0.93227  1.0000
  N   N165      1.0  0.71085  0.43080  0.93421  1.0000
  C   C2949     1.0  0.72407  0.42821  0.91777  1.0000
  C   C2950     1.0  0.72024  0.42814  0.94856  1.0000
  C   C2951     1.0  0.70072  0.41672  0.93938  1.0000
  C   C2952     1.0  0.69826  0.44833  0.93200  1.0000
  H   H5242     1.0  0.90257  0.41746  0.80992  1.0000
  C   C2953     1.0  0.71686  0.42671  0.90279  1.0000
  H   H5243     1.0  0.87752  0.44390  0.82096  1.0000
  C   C2954     1.0  0.73364  0.43932  0.94509  1.0000
  C   C2955     1.0  0.67718  0.24891  0.90246  1.0000
  H   H5244     1.0  0.74311  0.47943  0.95029  1.0000
  H   H5245     1.0  0.88757  0.42234  0.91732  1.0000
  H   H5246     1.0  0.83879  0.29466  0.92409  1.0000
  C   C2956     1.0  0.74040  0.31129  0.85380  1.0000
  H   H5247     1.0  0.75642  0.34268  0.84770  1.0000
  S   S664      1.0  0.96438  0.34868  0.81476  1.0000
  H   H5248     1.0  0.69806  0.15991  0.75832  1.0000
  S   S665      1.0  0.87549  0.48258  0.93884  1.0000
  C   C2957     1.0  0.80075  0.36087  0.95653  1.0000
  H   H5249     1.0  0.82236  0.34645  0.94154  1.0000
  H   H5250     1.0  0.82934  0.30579  0.96254  1.0000
  C   C2958     1.0  0.67709  0.40228  0.96035  1.0000
  H   H5251     1.0  0.95695  0.31428  0.93618  1.0000
  H   H5252     1.0  0.75753  0.31241  0.81266  1.0000
  H   H5253     1.0  0.74565  0.34334  0.80336  1.0000
  H   H5254     1.0  0.72868  0.39060  0.80784  1.0000
  N   N166      1.0  0.75571  0.33151  0.82695  1.0000
  C   C2959     1.0  0.75117  0.34701  0.81247  1.0000
  H   H5255     1.0  0.87485  0.43423  0.90193  1.0000
  H   H5256     1.0  0.66308  0.36284  0.93930  1.0000
  H   H5257     1.0  0.79982  0.29562  0.81173  1.0000
  C   C2960     1.0  0.83044  0.32172  0.92629  1.0000
  C   C2961     1.0  0.89751  0.36638  0.94741  1.0000
  C   C2962     1.0  0.67101  0.32671  0.94051  1.0000
  H   H5258     1.0  0.78071  0.34730  0.93446  1.0000
  C   C2963     1.0  0.89789  0.35982  0.92020  1.0000
  H   H5259     1.0  0.92300  0.46841  0.79495  1.0000
  H   H5260     1.0  0.91846  0.33243  0.94650  1.0000
  H   H5261     1.0  0.76308  0.35150  0.80452  1.0000
  C   C2964     1.0  0.76598  0.31652  0.81859  1.0000
  C   C2965     1.0  0.77909  0.32125  0.84611  1.0000
  H   H5262     1.0  0.77039  0.30482  0.82840  1.0000
  H   H5263     1.0  0.77767  0.32796  0.79180  1.0000
  H   H5264     1.0  0.87775  0.40481  0.94478  1.0000
  H   H5265     1.0  0.90299  0.42154  0.98330  1.0000
  H   H5266     1.0  0.75277  0.44226  0.95712  1.0000
  H   H5267     1.0  0.68515  0.38926  0.95879  1.0000
  H   H5268     1.0  0.93209  0.42312  0.74019  1.0000
  C   C2966     1.0  0.78542  0.32692  0.85903  1.0000
  H   H5269     1.0  0.77290  0.34632  0.82917  1.0000
  C   C2967     1.0  0.78198  0.32025  0.80402  1.0000
  S   S666      1.0  0.97035  0.42921  0.79438  1.0000
  H   H5270     1.0  0.66329  0.06886  0.81228  1.0000
  H   H5271     1.0  0.80620  0.35469  0.96841  1.0000
  H   H5272     1.0  0.97360  0.35595  0.76423  1.0000
  H   H5273     1.0  0.74790  0.46394  0.91200  1.0000
  H   H5274     1.0  0.79480  0.32992  0.97572  1.0000
  H   H5275     1.0  0.69355  0.30682  0.96102  1.0000
  C   C2968     1.0  0.81103  0.32164  0.93446  1.0000
  C   C2969     1.0  0.81799  0.45046  0.96947  1.0000
  C   C2970     1.0  0.94877  0.37813  0.74802  1.0000
  H   H5276     1.0  0.94192  0.35228  0.86932  1.0000
  H   H5277     1.0  0.96932  0.31827  0.77901  1.0000
  H   H5278     1.0  0.98824  0.32504  0.76402  1.0000
  H   H5279     1.0  0.84975  0.47299  0.88322  1.0000
  H   H5280     1.0  0.75398  0.33888  0.93436  1.0000
  H   H5281     1.0  0.66719  0.23983  0.93980  1.0000
  C   C2971     1.0  0.98479  0.44128  0.79433  1.0000
  C   C2972     1.0  0.83882  0.30785  0.91563  1.0000
  H   H5282     1.0  0.78030  0.31536  0.93865  1.0000
  H   H5283     1.0  0.67327  0.11243  0.83065  1.0000
  H   H5284     1.0  0.83181  0.30993  0.90511  1.0000
  H   H5285     1.0  0.67028  0.15532  0.77768  1.0000
  H   H5286     1.0  0.66766  0.27213  0.88372  1.0000
  H   H5287     1.0  0.74881  0.31903  0.94849  1.0000
  H   H5288     1.0  0.67699  0.29643  0.96193  1.0000
  H   H5289     1.0  0.76916  0.45303  0.91635  1.0000
  H   H5290     1.0  0.95857  0.30294  0.96543  1.0000
  H   H5291     1.0  0.98181  0.32908  0.78563  1.0000
  C   C2973     1.0  0.67313  0.33659  0.95312  1.0000
  C   C2974     1.0  0.93858  0.33271  0.96813  1.0000
  H   H5292     1.0  0.81976  0.37695  0.94547  1.0000
  H   H5293     1.0  0.98465  0.48178  0.79703  1.0000
  H   H5294     1.0  0.68641  0.33884  0.95008  1.0000
  H   H5295     1.0  0.97093  0.34418  0.74169  1.0000
  H   H5296     1.0  0.66884  0.33654  0.92832  1.0000
  H   H5297     1.0  0.92932  0.34514  0.96406  1.0000
  N   N167      1.0  0.66143  0.12305  0.79650  1.0000
  H   H5298     1.0  0.96759  0.44777  0.74482  1.0000
  H   H5299     1.0  0.85056  0.43312  0.97128  1.0000
  C   C2975     1.0  0.66319  0.21665  0.82767  1.0000
  H   H5300     1.0  0.68843  0.11630  0.78345  1.0000
  H   H5301     1.0  0.95954  0.48373  0.76241  1.0000
  C   C2976     1.0  0.77376  0.32286  0.94888  1.0000
  H   H5302     1.0  0.68783  0.12133  0.81171  1.0000
  H   H5303     1.0  0.78650  0.36328  0.96060  1.0000
  C   C2977     1.0  0.88374  0.42553  0.96806  1.0000
  H   H5304     1.0  0.67197  0.09616  0.77854  1.0000
  H   H5305     1.0  0.86608  0.46455  0.81011  1.0000
  C   C2978     1.0  0.75485  0.32991  0.94724  1.0000
  H   H5306     1.0  0.75035  0.42032  0.96160  1.0000
  H   H5307     1.0  0.67382  0.12527  0.76928  1.0000
  H   H5308     1.0  0.91233  0.29221  0.97715  1.0000
  C   C2979     1.0  0.97859  0.42932  0.84139  1.0000
  C   C2980     1.0  0.78262  0.33787  0.94700  1.0000
  H   H5309     1.0  0.68803  0.14426  0.78803  1.0000
  H   H5310     1.0  0.83588  0.48026  0.93507  1.0000
  H   H5311     1.0  0.66750  0.13547  0.92365  1.0000
  H   H5312     1.0  0.74743  0.33691  0.95771  1.0000
  H   H5313     1.0  0.96239  0.37918  0.74193  1.0000
  H   H5314     1.0  0.81933  0.44289  0.98282  1.0000
  H   H5315     1.0  0.66412  0.14095  0.83960  1.0000
  C   C2981     1.0  0.82178  0.31624  0.96948  1.0000
  C   C2982     1.0  0.66956  0.19986  0.94365  1.0000
  H   H5316     1.0  0.77481  0.34478  0.95742  1.0000
  H   H5317     1.0  0.66232  0.29271  0.90763  1.0000
  H   H5318     1.0  0.94423  0.29147  0.96348  1.0000
  C   C2983     1.0  0.91467  0.31754  0.97946  1.0000
  H   H5319     1.0  0.67070  0.19721  0.81251  1.0000
  C   C2984     1.0  0.94520  0.30069  0.97067  1.0000
  C   C2985     1.0  0.97692  0.32852  0.77448  1.0000
  H   H5320     1.0  0.69631  0.40959  0.96799  1.0000
  H   H5321     1.0  0.88092  0.41240  0.97315  1.0000
  H   H5322     1.0  0.68706  0.13194  0.83741  1.0000
  Fe  Fe333     1.0  0.75098  0.38101  0.97495  1.0000
  H   H5323     1.0  0.70702  0.27836  0.97933  1.0000
  H   H5324     1.0  0.93875  0.46217  0.84686  1.0000
  H   H5325     1.0  0.95552  0.35375  0.97569  1.0000
  C   C2986     1.0  0.67064  0.30191  0.89967  1.0000
  H   H5326     1.0  0.92302  0.39537  0.74612  1.0000
  C   C2987     1.0  0.67641  0.13761  0.83018  1.0000
  H   H5327     1.0  0.95412  0.41148  0.74086  1.0000
  H   H5328     1.0  0.67284  0.46051  0.83090  1.0000
  H   H5329     1.0  0.67053  0.32889  0.96669  1.0000
  H   H5330     1.0  0.67911  0.14971  0.82071  1.0000
  C   C2988     1.0  0.67247  0.31319  0.91071  1.0000
  H   H5331     1.0  0.66989  0.29515  0.93577  1.0000
  H   H5332     1.0  0.87122  0.47458  0.97601  1.0000
  H   H5333     1.0  0.90573  0.43741  0.96319  1.0000
  H   H5334     1.0  0.68934  0.48414  0.93214  1.0000
  C   C2989     1.0  0.66089  0.20278  0.82247  1.0000
  C   C2990     1.0  0.90216  0.42467  0.96943  1.0000
  H   H5335     1.0  0.67918  0.48015  0.91700  1.0000
  C   C2991     1.0  0.94756  0.47865  0.76808  1.0000
  H   H5336     1.0  0.91199  0.48317  0.77894  1.0000
  H   H5337     1.0  0.91809  0.36980  0.74631  1.0000
  H   H5338     1.0  0.65866  0.32220  0.94627  1.0000
  C   C2992     1.0  0.66038  0.35422  0.95243  1.0000
  H   H5339     1.0  0.93252  0.36034  0.98437  1.0000
  H   H5340     1.0  0.65931  0.32103  0.91499  1.0000
  H   H5341     1.0  0.65837  0.30999  0.84716  1.0000
  C   C2993     1.0  0.65887  0.32076  0.85197  1.0000
  H   H5342     1.0  0.65812  0.14585  0.80654  1.0000
  S   S667      1.0  0.73226  0.55358  0.00004  1.0000
  H   H5343     1.0  0.86059  0.55084  0.99518  1.0000
  H   H5344     1.0  0.69074  0.80223  0.99756  1.0000
  Fe  Fe334     1.0  0.74190  0.52484  0.01003  1.0000
  C   C2994     1.0  0.67753  0.67052  0.99212  1.0000
  H   H5345     1.0  0.69957  0.59031  0.00080  1.0000
  C   C2995     1.0  0.66337  0.78589  0.03457  1.0000
  Fe  Fe335     1.0  0.84290  0.52209  0.04269  1.0000
  S   S668      1.0  0.85288  0.50273  0.02583  1.0000
  S   S669      1.0  0.81607  0.53936  0.04301  1.0000
  Fe  Fe336     1.0  0.87724  0.51343  0.05480  1.0000
  S   S670      1.0  0.88986  0.49365  0.03851  1.0000
  S   S671      1.0  0.88897  0.51647  0.07551  1.0000
  Fe  Fe337     1.0  0.87692  0.51307  0.01781  1.0000
  C   C2996     1.0  0.67418  0.77499  0.00779  1.0000
  S   S672      1.0  0.98666  0.54141  0.10093  1.0000
  S   S673      1.0  0.86630  0.53380  0.03330  1.0000
  S   S674      1.0  0.85262  0.50367  0.06576  1.0000
  C   C2997     1.0  0.95237  0.51390  0.18474  1.0000
  H   H5346     1.0  0.94699  0.50651  0.17895  1.0000
  H   H5347     1.0  0.66817  0.97304  0.12518  1.0000
  H   H5348     1.0  0.82868  0.52914  0.00326  1.0000
  S   S675      1.0  0.76636  0.50863  0.01898  1.0000
  S   S676      1.0  0.67421  0.86833  0.12996  1.0000
  H   H5349     1.0  0.80314  0.54227  0.99368  1.0000
  H   H5350     1.0  0.70914  0.48950  0.05532  1.0000
  H   H5351     1.0  0.66789  0.75815  0.04862  1.0000
  H   H5352     1.0  0.72841  0.48906  0.07141  1.0000
  H   H5353     1.0  0.88323  0.59596  0.07122  1.0000
  C   C2998     1.0  0.67870  0.96298  0.13081  1.0000
  H   H5354     1.0  0.67847  0.94395  0.08361  1.0000
  S   S677      1.0  0.71604  0.52060  0.02650  1.0000
  C   C2999     1.0  0.67565  0.94578  0.22614  1.0000
  H   H5355     1.0  0.77254  0.54949  0.98785  1.0000
  S   S678      1.0  0.67110  0.89476  0.19637  1.0000
  H   H5356     1.0  0.65963  0.97003  0.19234  1.0000
  H   H5357     1.0  0.87608  0.48960  0.99603  1.0000
  C   C3000     1.0  0.65913  0.88929  0.15356  1.0000
  Fe  Fe338     1.0  0.96757  0.52967  0.09531  1.0000
  C   C3001     1.0  0.69151  0.97282  0.13249  1.0000
  S   S679      1.0  0.95985  0.53547  0.06931  1.0000
  Fe  Fe339     1.0  0.96867  0.54113  0.12718  1.0000
  H   H5358     1.0  0.66825  0.80944  0.00426  1.0000
  S   S680      1.0  0.96222  0.56148  0.14294  1.0000
  H   H5359     1.0  0.74955  0.51727  0.05507  1.0000
  H   H5360     1.0  0.72562  0.75045  0.03022  1.0000
  Fe  Fe340     1.0  0.96292  0.50547  0.13060  1.0000
  H   H5361     1.0  0.65996  0.77841  0.00835  1.0000
  H   H5362     1.0  0.91620  0.50310  0.13236  1.0000
  S   S681      1.0  0.94833  0.53226  0.12047  1.0000
  H   H5363     1.0  0.90494  0.49906  0.15490  1.0000
  H   H5364     1.0  0.90204  0.60275  0.07011  1.0000
  H   H5365     1.0  0.87420  0.53911  0.12686  1.0000
  H   H5366     1.0  0.89050  0.50239  0.12291  1.0000
  H   H5367     1.0  0.66656  0.79106  0.04420  1.0000
  C   C3002     1.0  0.67592  0.58677  0.01928  1.0000
  C   C3003     1.0  0.68619  0.83139  0.00803  1.0000
  H   H5368     1.0  0.66992  0.93977  0.11842  1.0000
  H   H5369     1.0  0.94046  0.57683  0.10537  1.0000
  Fe  Fe341     1.0  0.71200  0.51498  0.00287  1.0000
  H   H5370     1.0  0.68991  0.66176  0.99504  1.0000
  H   H5371     1.0  0.69904  0.66433  0.05254  1.0000
  C   C3004     1.0  0.97252  0.55355  0.16078  1.0000
  H   H5372     1.0  0.85003  0.57302  0.98759  1.0000
  C   C3005     1.0  0.75459  0.48994  0.06872  1.0000
  H   H5373     1.0  0.67243  0.96831  0.16304  1.0000
  C   C3006     1.0  0.97300  0.55235  0.19075  1.0000
  C   C3007     1.0  0.96512  0.55944  0.17624  1.0000
  H   H5374     1.0  0.67236  0.81648  0.03051  1.0000
  H   H5375     1.0  0.69532  0.80743  0.02515  1.0000
  H   H5376     1.0  0.96721  0.55681  0.20269  1.0000
  H   H5377     1.0  0.95313  0.56922  0.17712  1.0000
  H   H5378     1.0  0.66539  0.62311  0.03798  1.0000
  H   H5379     1.0  0.68454  0.95348  0.21634  1.0000
  H   H5380     1.0  0.83475  0.49992  0.00113  1.0000
  N   N168      1.0  0.90452  0.57488  0.07826  1.0000
  C   C3008     1.0  0.72681  0.98305  0.03185  1.0000
  H   H5381     1.0  0.86424  0.49872  0.12369  1.0000
  H   H5382     1.0  0.93358  0.53783  0.17794  1.0000
  H   H5383     1.0  0.89845  0.55031  0.08047  1.0000
  H   H5384     1.0  0.69785  0.82968  0.99740  1.0000
  H   H5385     1.0  0.67791  0.92565  0.16322  1.0000
  H   H5386     1.0  0.67467  0.83839  0.00226  1.0000
  C   C3009     1.0  0.71179  0.77191  0.01280  1.0000
  H   H5387     1.0  0.67125  0.68115  0.01477  1.0000
  S   S682      1.0  0.66896  0.97926  0.08746  1.0000
  H   H5388     1.0  0.92556  0.59612  0.08143  1.0000
  H   H5389     1.0  0.93894  0.58212  0.06705  1.0000
  H   H5390     1.0  0.66467  0.82337  0.14647  1.0000
  S   S683      1.0  0.88917  0.52061  0.98940  1.0000
  H   H5391     1.0  0.71410  0.78461  0.00456  1.0000
  C   C3010     1.0  0.67309  0.87634  0.14808  1.0000
  C   C3011     1.0  0.66806  0.66067  0.04796  1.0000
  C   C3012     1.0  0.94623  0.57681  0.09141  1.0000
  C   C3013     1.0  0.67136  0.88775  0.17794  1.0000
  C   C3014     1.0  0.68561  0.87519  0.17210  1.0000
  C   C3015     1.0  0.68640  0.86940  0.15733  1.0000
  H   H5392     1.0  0.98548  0.50594  0.04980  1.0000
  H   H5393     1.0  0.67746  0.84576  0.19924  1.0000
  H   H5394     1.0  0.69602  0.86981  0.17912  1.0000
  H   H5395     1.0  0.69734  0.85950  0.15307  1.0000
  H   H5396     1.0  0.97220  0.60359  0.17048  1.0000
  H   H5397     1.0  0.87126  0.62027  0.10678  1.0000
  H   H5398     1.0  0.70306  0.90179  0.15676  1.0000
  H   H5399     1.0  0.91609  0.58372  0.02330  1.0000
  C   C3016     1.0  0.68693  0.65166  0.04050  1.0000
  C   C3017     1.0  0.89303  0.56193  0.08621  1.0000
  H   H5400     1.0  0.76097  0.51240  0.07232  1.0000
  C   C3018     1.0  0.67838  0.61234  0.99584  1.0000
  C   C3019     1.0  0.89124  0.49655  0.13661  1.0000
  C   C3020     1.0  0.65836  0.59432  0.02476  1.0000
  C   C3021     1.0  0.91044  0.51849  0.07261  1.0000
  C   C3022     1.0  0.91662  0.51635  0.08756  1.0000
  C   C3023     1.0  0.93214  0.52077  0.08645  1.0000
  C   C3024     1.0  0.94190  0.52723  0.07030  1.0000
  C   C3025     1.0  0.93635  0.52847  0.05511  1.0000
  C   C3026     1.0  0.92055  0.52418  0.05625  1.0000
  H   H5401     1.0  0.90903  0.51198  0.10017  1.0000
  H   H5402     1.0  0.93616  0.51983  0.09819  1.0000
  H   H5403     1.0  0.94388  0.53344  0.04252  1.0000
  H   H5404     1.0  0.91588  0.52596  0.04459  1.0000
  C   C3027     1.0  0.77938  0.51750  0.02635  1.0000
  C   C3028     1.0  0.68594  0.59591  0.00490  1.0000
  C   C3029     1.0  0.80509  0.51304  0.03776  1.0000
  C   C3030     1.0  0.80173  0.53080  0.03710  1.0000
  C   C3031     1.0  0.78692  0.54187  0.03143  1.0000
  C   C3032     1.0  0.77576  0.53524  0.02601  1.0000
  H   H5405     1.0  0.86767  0.62146  0.08568  1.0000
  H   H5406     1.0  0.81626  0.50436  0.04243  1.0000
  H   H5407     1.0  0.78421  0.55561  0.03104  1.0000
  H   H5408     1.0  0.76446  0.54385  0.02150  1.0000
  H   H5409     1.0  0.73804  0.51308  0.07749  1.0000
  H   H5410     1.0  0.99019  0.57402  0.11383  1.0000
  H   H5411     1.0  0.89506  0.59448  0.10432  1.0000
  H   H5412     1.0  0.88992  0.58638  0.04729  1.0000
  H   H5413     1.0  0.73932  0.76185  0.01210  1.0000
  H   H5414     1.0  0.66310  0.94943  0.22206  1.0000
  H   H5415     1.0  0.71246  0.96635  0.11081  1.0000
  H   H5416     1.0  0.91940  0.58419  0.05255  1.0000
  H   H5417     1.0  0.72207  0.90657  0.14093  1.0000
  C   C3033     1.0  0.69436  0.77381  0.02618  1.0000
  H   H5418     1.0  0.66944  0.62408  0.05831  1.0000
  H   H5419     1.0  0.71208  0.76327  0.00446  1.0000
  C   C3034     1.0  0.89990  0.57406  0.04824  1.0000
  H   H5420     1.0  0.88737  0.56438  0.11371  1.0000
  H   H5421     1.0  0.68799  0.83952  0.01588  1.0000
  H   H5422     1.0  0.68809  0.63822  0.03958  1.0000
  H   H5423     1.0  0.69576  0.77925  0.03658  1.0000
  H   H5424     1.0  0.69300  0.76032  0.03269  1.0000
  H   H5425     1.0  0.89324  0.56309  0.05361  1.0000
  H   H5426     1.0  0.95389  0.56358  0.09025  1.0000
  H   H5427     1.0  0.70848  0.93768  0.13504  1.0000
  H   H5428     1.0  0.67737  0.76064  0.01287  1.0000
  H   H5429     1.0  0.69954  0.96485  0.14209  1.0000
  C   C3035     1.0  0.90327  0.50491  0.14129  1.0000
  C   C3036     1.0  0.93221  0.58251  0.08071  1.0000
  H   H5430     1.0  0.96254  0.51945  0.17445  1.0000
  S   S684      1.0  0.70010  0.49352  0.00275  1.0000
  H   H5431     1.0  0.92670  0.55691  0.08733  1.0000
  C   C3037     1.0  0.66506  0.67462  0.00879  1.0000
  H   H5432     1.0  0.81265  0.51049  0.00033  1.0000
  C   C3038     1.0  0.79390  0.50641  0.03250  1.0000
  S   S685      1.0  0.98100  0.50224  0.10530  1.0000
  C   C3039     1.0  0.71085  0.91179  0.15061  1.0000
  H   H5433     1.0  0.66162  0.83787  0.16993  1.0000
  H   H5434     1.0  0.88005  0.56753  0.08281  1.0000
  H   H5435     1.0  0.92262  0.56129  0.05921  1.0000
  H   H5436     1.0  0.79682  0.49269  0.03281  1.0000
  H   H5437     1.0  0.88779  0.62494  0.08763  1.0000
  H   H5438     1.0  0.66925  0.92102  0.13629  1.0000
  S   S686      1.0  0.69941  0.54262  0.99265  1.0000
  C   C3040     1.0  0.68020  0.80237  0.00934  1.0000
  C   C3041     1.0  0.87578  0.54454  0.11262  1.0000
  C   C3042     1.0  0.91253  0.57353  0.05958  1.0000
  S   S687      1.0  0.68504  0.56600  0.03064  1.0000
  C   C3043     1.0  0.90966  0.57266  0.02974  1.0000
  H   H5439     1.0  0.98510  0.61675  0.15329  1.0000
  C   C3044     1.0  0.91918  0.57045  0.08769  1.0000
  H   H5440     1.0  0.92659  0.52417  0.19884  1.0000
  H   H5441     1.0  0.96741  0.51108  0.20310  1.0000
  C   C3045     1.0  0.72700  0.76347  0.02196  1.0000
  H   H5442     1.0  0.91431  0.57036  0.10172  1.0000
  H   H5443     1.0  0.87871  0.53367  0.10600  1.0000
  C   C3046     1.0  0.96037  0.50258  0.20054  1.0000
  Fe  Fe342     1.0  0.70595  0.54876  0.01470  1.0000
  C   C3047     1.0  0.93784  0.52905  0.18981  1.0000
  H   H5444     1.0  0.95520  0.58582  0.08643  1.0000
  C   C3048     1.0  0.75048  0.50935  0.06837  1.0000
  C   C3049     1.0  0.88556  0.59786  0.09589  1.0000
  H   H5445     1.0  0.94880  0.49253  0.11227  1.0000
  H   H5446     1.0  0.87488  0.59103  0.10254  1.0000
  H   H5447     1.0  0.66443  0.85884  0.21465  1.0000
  N   N169      1.0  0.67102  0.95158  0.14748  1.0000
  C   C3050     1.0  0.68355  0.81380  0.01970  1.0000
  C   C3051     1.0  0.89404  0.59321  0.07799  1.0000
  H   H5448     1.0  0.89781  0.51906  0.14000  1.0000
  H   H5449     1.0  0.91959  0.56026  0.02991  1.0000
  H   H5450     1.0  0.86333  0.55344  0.11006  1.0000
  H   H5451     1.0  0.90250  0.54491  0.10924  1.0000
  H   H5452     1.0  0.68537  0.95550  0.12062  1.0000
  C   C3052     1.0  0.68431  0.93634  0.15482  1.0000
  N   N170      1.0  0.67841  0.78420  0.01919  1.0000
  C   C3053     1.0  0.89044  0.55430  0.10616  1.0000
  Fe  Fe343     1.0  0.98663  0.53676  0.23341  1.0000
  H   H5453     1.0  0.94241  0.53665  0.19620  1.0000
  H   H5454     1.0  0.65901  0.59796  0.06090  1.0000
  H   H5455     1.0  0.71579  0.91435  0.16076  1.0000
  H   H5456     1.0  0.69573  0.92532  0.13128  1.0000
  H   H5457     1.0  0.69163  0.65898  0.02718  1.0000
  H   H5458     1.0  0.94962  0.50102  0.21218  1.0000
  C   C3054     1.0  0.69932  0.65101  0.05169  1.0000
  H   H5459     1.0  0.71275  0.64500  0.04577  1.0000
  C   C3055     1.0  0.70364  0.97807  0.11505  1.0000
  H   H5460     1.0  0.72776  0.77178  0.03019  1.0000
  H   H5461     1.0  0.67061  0.64675  0.01969  1.0000
  C   C3056     1.0  0.82188  0.48727  0.99053  1.0000
  C   C3057     1.0  0.98810  0.54107  0.15971  1.0000
  H   H5462     1.0  0.83355  0.50098  0.12513  1.0000
  H   H5463     1.0  0.66533  0.65568  0.06235  1.0000
  H   H5464     1.0  0.90043  0.57287  0.02196  1.0000
  H   H5465     1.0  0.72714  0.96913  0.03815  1.0000
  S   S688      1.0  0.73841  0.51733  0.98718  1.0000
  H   H5466     1.0  0.87810  0.49992  0.14479  1.0000
  H   H5467     1.0  0.69010  0.94002  0.16370  1.0000
  C   C3058     1.0  0.66266  0.96280  0.16061  1.0000
  H   H5468     1.0  0.82465  0.56456  0.98570  1.0000
  H   H5469     1.0  0.69575  0.64304  0.06501  1.0000
  H   H5470     1.0  0.68407  0.98487  0.13702  1.0000
  C   C3059     1.0  0.87761  0.61734  0.09378  1.0000
  C   C3060     1.0  0.69989  0.92845  0.14155  1.0000
  C   C3061     1.0  0.65973  0.65809  0.02156  1.0000
  H   H5471     1.0  0.82945  0.55475  0.00649  1.0000
  C   C3062     1.0  0.65809  0.89487  0.16863  1.0000
  C   C3063     1.0  0.66727  0.84599  0.21134  1.0000
  H   H5472     1.0  0.84911  0.52838  0.98902  1.0000
  C   C3064     1.0  0.65927  0.62535  0.05123  1.0000
  C   C3065     1.0  0.85172  0.55944  0.98660  1.0000
  C   C3066     1.0  0.66195  0.93413  0.13084  1.0000
  H   H5473     1.0  0.68111  0.93169  0.22665  1.0000
  H   H5474     1.0  0.73928  0.49474  0.04939  1.0000
  C   C3067     1.0  0.83534  0.53580  0.99040  1.0000
  H   H5475     1.0  0.98869  0.58747  0.14802  1.0000
  C   C3068     1.0  0.83416  0.55438  0.99249  1.0000
  C   C3069     1.0  0.98835  0.53947  0.18969  1.0000
  H   H5476     1.0  0.83811  0.49341  0.14668  1.0000
  H   H5477     1.0  0.96941  0.49321  0.23148  1.0000
  C   C3070     1.0  0.82487  0.50380  0.99301  1.0000
  H   H5478     1.0  0.67167  0.66418  0.98564  1.0000
  C   C3071     1.0  0.84059  0.48997  0.13392  1.0000
  H   H5479     1.0  0.66823  0.67459  0.04605  1.0000
  H   H5480     1.0  0.66982  0.57070  0.99126  1.0000
  H   H5481     1.0  0.66213  0.94162  0.18441  1.0000
  C   C3072     1.0  0.85997  0.48657  0.12583  1.0000
  H   H5482     1.0  0.67233  0.83584  0.22209  1.0000
  C   C3073     1.0  0.66485  0.94884  0.08337  1.0000
  H   H5483     1.0  0.66162  0.92473  0.08041  1.0000
  H   H5484     1.0  0.98963  0.49592  0.17579  1.0000
  S   S689      1.0  0.98150  0.51436  0.13941  1.0000
  C   C3074     1.0  0.98567  0.60498  0.16409  1.0000
  C   C3075     1.0  0.66070  0.61961  0.00093  1.0000
  H   H5485     1.0  0.97298  0.48931  0.17118  1.0000
  H   H5486     1.0  0.98763  0.48663  0.04225  1.0000
  H   H5487     1.0  0.76774  0.48663  0.06082  1.0000
  H   H5488     1.0  0.72869  0.98469  0.01757  1.0000
  H   H5489     1.0  0.69649  0.77823  0.98543  1.0000
  C   C3076     1.0  0.68242  0.77910  0.98800  1.0000
  H   H5490     1.0  0.69612  0.98554  0.10488  1.0000
  C   C3077     1.0  0.72318  0.97408  0.47967  1.0000
  H   H5491     1.0  0.84465  0.92324  0.44911  1.0000
  C   C3078     1.0  0.98085  0.78890  0.41106  1.0000
  H   H5492     1.0  0.77028  0.88346  0.25874  1.0000
  H   H5493     1.0  0.67582  0.89184  0.47962  1.0000
  H   H5494     1.0  0.80507  0.85694  0.29552  1.0000
  C   C3079     1.0  0.69429  0.84990  0.44539  1.0000
  H   H5495     1.0  0.77626  0.93665  0.43817  1.0000
  C   C3080     1.0  0.91579  0.85266  0.44552  1.0000
  S   S690      1.0  0.97167  0.54011  0.28179  1.0000
  C   C3081     1.0  0.89444  0.98341  0.33344  1.0000
  C   C3082     1.0  0.66634  0.92113  0.45560  1.0000
  Fe  Fe344     1.0  0.95984  0.52936  0.26673  1.0000
  S   S691      1.0  0.93616  0.51898  0.28166  1.0000
  H   H5496     1.0  0.78224  0.95628  0.43679  1.0000
  C   C3083     1.0  0.91829  0.62537  0.30874  1.0000
  H   H5497     1.0  0.91905  0.56200  0.25612  1.0000
  C   C3084     1.0  0.95094  0.76731  0.32523  1.0000
  S   S692      1.0  0.96122  0.60738  0.33224  1.0000
  C   C3085     1.0  0.77132  0.95709  0.40534  1.0000
  H   H5498     1.0  0.79895  0.89202  0.30519  1.0000
  H   H5499     1.0  0.95337  0.83121  0.36757  1.0000
  C   C3086     1.0  0.91569  0.57311  0.26251  1.0000
  S   S693      1.0  0.95823  0.65234  0.34743  1.0000
  C   C3087     1.0  0.70611  0.94233  0.27196  1.0000
  H   H5500     1.0  0.98175  0.70485  0.39777  1.0000
  H   H5501     1.0  0.94345  0.84328  0.38435  1.0000
  C   C3088     1.0  0.92920  0.71306  0.35162  1.0000
  H   H5502     1.0  0.91418  0.87568  0.29920  1.0000
  H   H5503     1.0  0.90604  0.86248  0.43855  1.0000
  H   H5504     1.0  0.95614  0.72584  0.47851  1.0000
  C   C3089     1.0  0.91735  0.78946  0.37025  1.0000
  Fe  Fe345     1.0  0.71133  0.90153  0.31964  1.0000
  S   S694      1.0  0.69530  0.92536  0.32919  1.0000
  S   S695      1.0  0.70689  0.89068  0.29905  1.0000
  Fe  Fe346     1.0  0.74161  0.89980  0.33577  1.0000
  S   S696      1.0  0.72809  0.92372  0.34594  1.0000
  S   S697      1.0  0.76854  0.88430  0.33850  1.0000
  Fe  Fe347     1.0  0.70474  0.91227  0.35407  1.0000
  S   S698      1.0  0.68911  0.91586  0.38060  1.0000
  Fe  Fe348     1.0  0.72006  0.93453  0.32032  1.0000
  S   S699      1.0  0.72044  0.96167  0.30495  1.0000
  S   S700      1.0  0.71870  0.88732  0.34544  1.0000
  S   S701      1.0  0.73564  0.91169  0.30936  1.0000
  S   S702      1.0  0.73238  0.87601  0.43884  1.0000
  S   S703      1.0  0.89903  0.91105  0.44399  1.0000
  Fe  Fe349     1.0  0.87434  0.87574  0.34783  1.0000
  S   S704      1.0  0.85067  0.87709  0.36936  1.0000
  S   S705      1.0  0.88193  0.85458  0.33300  1.0000
  Fe  Fe350     1.0  0.88177  0.90882  0.35079  1.0000
  S   S706      1.0  0.85903  0.91296  0.37283  1.0000
  H   H5505     1.0  0.89309  0.56011  0.30871  1.0000
  Fe  Fe351     1.0  0.86691  0.88416  0.38292  1.0000
  S   S707      1.0  0.86459  0.87232  0.41134  1.0000
  Fe  Fe352     1.0  0.84461  0.90554  0.35742  1.0000
  S   S708      1.0  0.81759  0.92104  0.35603  1.0000
  S   S709      1.0  0.89124  0.88045  0.36246  1.0000
  S   S710      1.0  0.86668  0.90380  0.33438  1.0000
  C   C3090     1.0  0.88879  0.90124  0.43461  1.0000
  C   C3091     1.0  0.89359  0.90180  0.41675  1.0000
  C   C3092     1.0  0.88586  0.89321  0.40945  1.0000
  C   C3093     1.0  0.87346  0.88396  0.42009  1.0000
  C   C3094     1.0  0.86836  0.88378  0.43785  1.0000
  C   C3095     1.0  0.87599  0.89248  0.44507  1.0000
  H   H5506     1.0  0.90349  0.90861  0.40863  1.0000
  H   H5507     1.0  0.88976  0.89346  0.39567  1.0000
  H   H5508     1.0  0.85852  0.87689  0.44602  1.0000
  H   H5509     1.0  0.87214  0.89222  0.45880  1.0000
  C   C3096     1.0  0.70171  0.90541  0.39643  1.0000
  C   C3097     1.0  0.71363  0.88969  0.39503  1.0000
  C   C3098     1.0  0.72305  0.88087  0.40808  1.0000
  C   C3099     1.0  0.72109  0.88801  0.42230  1.0000
  C   C3100     1.0  0.70969  0.90410  0.42341  1.0000
  C   C3101     1.0  0.69973  0.91262  0.41066  1.0000
  H   H5510     1.0  0.71526  0.88407  0.38410  1.0000
  H   H5511     1.0  0.73192  0.86848  0.40711  1.0000
  H   H5512     1.0  0.70838  0.90979  0.43420  1.0000
  H   H5513     1.0  0.69065  0.92487  0.41170  1.0000
  C   C3102     1.0  0.78248  0.89515  0.34206  1.0000
  C   C3103     1.0  0.79964  0.88640  0.34293  1.0000
  C   C3104     1.0  0.81078  0.89451  0.34650  1.0000
  C   C3105     1.0  0.80468  0.91128  0.34956  1.0000
  C   C3106     1.0  0.78770  0.92016  0.34828  1.0000
  C   C3107     1.0  0.77668  0.91220  0.34435  1.0000
  H   H5514     1.0  0.80429  0.87326  0.34101  1.0000
  H   H5515     1.0  0.82399  0.88770  0.34715  1.0000
  H   H5516     1.0  0.78293  0.93306  0.35078  1.0000
  H   H5517     1.0  0.76363  0.91919  0.34346  1.0000
  C   C3108     1.0  0.90640  0.97491  0.32105  1.0000
  C   C3109     1.0  0.92830  0.83069  0.30867  1.0000
  C   C3110     1.0  0.91096  0.83940  0.31264  1.0000
  C   C3111     1.0  0.90381  0.84360  0.32888  1.0000
  C   C3112     1.0  0.91399  0.83845  0.34147  1.0000
  C   C3113     1.0  0.93132  0.82911  0.33768  1.0000
  C   C3114     1.0  0.67066  0.95465  0.29647  1.0000
  H   H5518     1.0  0.90311  0.84323  0.30293  1.0000
  H   H5519     1.0  0.90841  0.84139  0.35417  1.0000
  H   H5520     1.0  0.93911  0.82490  0.34744  1.0000
  C   C3115     1.0  0.96751  0.61188  0.28036  1.0000
  C   C3116     1.0  0.95216  0.64045  0.43219  1.0000
  H   H5521     1.0  0.68233  0.95156  0.30194  1.0000
  C   C3117     1.0  0.70455  0.96872  0.35921  1.0000
  H   H5522     1.0  0.91578  0.55605  0.28771  1.0000
  H   H5523     1.0  0.78734  0.93922  0.37885  1.0000
  S   S711      1.0  0.98706  0.77910  0.47698  1.0000
  Fe  Fe353     1.0  0.99061  0.75109  0.47716  1.0000
  C   C3118     1.0  0.75120  0.98024  0.33154  1.0000
  C   C3119     1.0  0.88293  0.55456  0.33613  1.0000
  H   H5524     1.0  0.70707  0.94714  0.28293  1.0000
  H   H5525     1.0  0.73000  0.83479  0.33933  1.0000
  H   H5526     1.0  0.74681  0.90463  0.24625  1.0000
  N   N171      1.0  0.68937  0.95134  0.26590  1.0000
  H   H5527     1.0  0.75039  0.94104  0.25405  1.0000
  C   C3120     1.0  0.67255  0.94963  0.24403  1.0000
  H   H5528     1.0  0.80919  0.83708  0.25057  1.0000
  H   H5529     1.0  0.95065  0.68775  0.47629  1.0000
  H   H5530     1.0  0.67951  0.95418  0.38276  1.0000
  C   C3121     1.0  0.88194  0.84518  0.46723  1.0000
  H   H5531     1.0  0.82389  0.97455  0.36376  1.0000
  H   H5532     1.0  0.95642  0.85781  0.29913  1.0000
  C   C3122     1.0  0.97074  0.59449  0.27922  1.0000
  C   C3123     1.0  0.97376  0.58128  0.29386  1.0000
  C   C3124     1.0  0.97158  0.58541  0.30994  1.0000
  C   C3125     1.0  0.96768  0.60278  0.31130  1.0000
  C   C3126     1.0  0.96626  0.61602  0.29630  1.0000
  S   S712      1.0  0.71185  0.90144  0.47783  1.0000
  H   H5533     1.0  0.87715  0.95549  0.46968  1.0000
  H   H5534     1.0  0.97243  0.57509  0.32146  1.0000
  Fe  Fe354     1.0  0.76133  0.89854  0.47025  1.0000
  C   C3127     1.0  0.89955  0.83174  0.46607  1.0000
  C   C3128     1.0  0.93737  0.49655  0.28480  1.0000
  N   N172      1.0  0.75684  0.96813  0.41604  1.0000
  C   C3129     1.0  0.76816  0.94586  0.46183  1.0000
  H   H5535     1.0  0.89304  0.77756  0.30801  1.0000
  H   H5536     1.0  0.66606  0.96898  0.29282  1.0000
  C   C3130     1.0  0.96840  0.85921  0.30180  1.0000
  S   S713      1.0  0.97709  0.80699  0.39413  1.0000
  H   H5537     1.0  0.72510  0.93366  0.24976  1.0000
  N   N173      1.0  0.93431  0.76150  0.33483  1.0000
  H   H5538     1.0  0.94242  0.85622  0.47706  1.0000
  C   C3131     1.0  0.91677  0.83409  0.41656  1.0000
  S   S714      1.0  0.96031  0.55218  0.24373  1.0000
  C   C3132     1.0  0.67103  0.89838  0.30563  1.0000
  C   C3133     1.0  0.68653  0.89497  0.29352  1.0000
  C   C3134     1.0  0.68596  0.89401  0.27683  1.0000
  C   C3135     1.0  0.67000  0.89615  0.27236  1.0000
  H   H5539     1.0  0.74095  0.92718  0.27347  1.0000
  H   H5540     1.0  0.67134  0.89900  0.31855  1.0000
  H   H5541     1.0  0.69790  0.89130  0.26742  1.0000
  H   H5542     1.0  0.66971  0.89509  0.25958  1.0000
  H   H5543     1.0  0.94189  0.87093  0.36295  1.0000
  H   H5544     1.0  0.94424  0.77572  0.45933  1.0000
  H   H5545     1.0  0.93535  0.79214  0.34569  1.0000
  H   H5546     1.0  0.93419  0.67627  0.47883  1.0000
  C   C3136     1.0  0.72278  0.94356  0.25745  1.0000
  C   C3137     1.0  0.73883  0.94027  0.26483  1.0000
  H   H5547     1.0  0.70643  0.92823  0.27758  1.0000
  H   H5548     1.0  0.98616  0.75955  0.30715  1.0000
  C   C3138     1.0  0.74349  0.89469  0.25823  1.0000
  C   C3139     1.0  0.78971  0.84446  0.45156  1.0000
  H   H5549     1.0  0.73737  0.95018  0.27224  1.0000
  C   C3140     1.0  0.88482  0.96180  0.44089  1.0000
  N   N174      1.0  0.96980  0.69103  0.42293  1.0000
  C   C3141     1.0  0.68950  0.94389  0.25098  1.0000
  C   C3142     1.0  0.95914  0.69555  0.43988  1.0000
  C   C3143     1.0  0.95928  0.68565  0.41376  1.0000
  H   H5550     1.0  0.89480  0.94393  0.41470  1.0000
  H   H5551     1.0  0.74000  0.97890  0.39741  1.0000
  C   C3144     1.0  0.92920  0.76638  0.35230  1.0000
  C   C3145     1.0  0.94243  0.69902  0.40989  1.0000
  C   C3146     1.0  0.90253  0.96070  0.46228  1.0000
  C   C3147     1.0  0.94077  0.68659  0.47000  1.0000
  H   H5552     1.0  0.97688  0.87224  0.27480  1.0000
  C   C3148     1.0  0.83778  0.98217  0.32899  1.0000
  C   C3149     1.0  0.93263  0.69189  0.40114  1.0000
  C   C3150     1.0  0.66555  0.90255  0.45644  1.0000
  H   H5553     1.0  0.98792  0.57045  0.34307  1.0000
  H   H5554     1.0  0.85207  0.97805  0.32827  1.0000
  H   H5555     1.0  0.94949  0.70809  0.43749  1.0000
  H   H5556     1.0  0.95578  0.67318  0.42126  1.0000
  H   H5557     1.0  0.96722  0.68283  0.40108  1.0000
  H   H5558     1.0  0.94304  0.70617  0.34951  1.0000
  H   H5559     1.0  0.86692  0.93828  0.44727  1.0000
  H   H5560     1.0  0.95365  0.79172  0.44219  1.0000
  H   H5561     1.0  0.96758  0.69784  0.44718  1.0000
  C   C3151     1.0  0.97380  0.70815  0.36211  1.0000
  H   H5562     1.0  0.98151  0.62039  0.40175  1.0000
  H   H5563     1.0  0.94538  0.71125  0.40097  1.0000
  H   H5564     1.0  0.93357  0.70223  0.42198  1.0000
  C   C3152     1.0  0.88374  0.97405  0.34709  1.0000
  H   H5565     1.0  0.96681  0.77453  0.40376  1.0000
  Fe  Fe355     1.0  0.88980  0.90423  0.47290  1.0000
  C   C3153     1.0  0.97542  0.62364  0.41423  1.0000
  H   H5566     1.0  0.78005  0.93770  0.46635  1.0000
  C   C3154     1.0  0.94945  0.89194  0.33262  1.0000
  H   H5567     1.0  0.95946  0.92028  0.33689  1.0000
  C   C3155     1.0  0.67552  0.96305  0.37076  1.0000
  H   H5568     1.0  0.90503  0.78512  0.37641  1.0000
  H   H5569     1.0  0.83631  0.95614  0.34541  1.0000
  H   H5570     1.0  0.93666  0.73867  0.32530  1.0000
  H   H5571     1.0  0.92088  0.70180  0.39808  1.0000
  H   H5572     1.0  0.94092  0.68853  0.38881  1.0000
  H   H5573     1.0  0.92852  0.68006  0.40993  1.0000
  H   H5574     1.0  0.93900  0.68035  0.44693  1.0000
  H   H5575     1.0  0.78093  0.85605  0.25904  1.0000
  H   H5576     1.0  0.85069  0.95247  0.31532  1.0000
  H   H5577     1.0  0.91033  0.96916  0.45196  1.0000
  C   C3156     1.0  0.75480  0.95943  0.43519  1.0000
  C   C3157     1.0  0.80201  0.83461  0.26432  1.0000
  H   H5578     1.0  0.92957  0.62738  0.29788  1.0000
  H   H5579     1.0  0.66250  0.84296  0.46990  1.0000
  Fe  Fe356     1.0  0.98280  0.79566  0.37093  1.0000
  S   S715      1.0  0.98392  0.64910  0.47718  1.0000
  C   C3158     1.0  0.78042  0.87614  0.29311  1.0000
  H   H5580     1.0  0.91941  0.84729  0.41127  1.0000
  H   H5581     1.0  0.95210  0.79144  0.46471  1.0000
  C   C3159     1.0  0.74028  0.96975  0.41037  1.0000
  H   H5582     1.0  0.97254  0.68424  0.35719  1.0000
  C   C3160     1.0  0.83633  0.95593  0.31934  1.0000
  H   H5583     1.0  0.69094  0.87725  0.43981  1.0000
  H   H5584     1.0  0.93702  0.92655  0.33511  1.0000
  H   H5585     1.0  0.91462  0.98202  0.31042  1.0000
  H   H5586     1.0  0.90908  0.94686  0.46251  1.0000
  C   C3161     1.0  0.98797  0.75921  0.43727  1.0000
  C   C3162     1.0  0.97471  0.61870  0.44513  1.0000
  H   H5587     1.0  0.66292  0.94222  0.25290  1.0000
  H   H5588     1.0  0.92211  0.70571  0.36373  1.0000
  H   H5589     1.0  0.93428  0.82277  0.46170  1.0000
  H   H5590     1.0  0.68032  0.84877  0.42675  1.0000
  H   H5591     1.0  0.70585  0.97026  0.41041  1.0000
  H   H5592     1.0  0.70996  0.97682  0.26462  1.0000
  H   H5593     1.0  0.87463  0.84454  0.45796  1.0000
  H   H5594     1.0  0.81654  0.96800  0.33838  1.0000
  H   H5595     1.0  0.85914  0.96829  0.41208  1.0000
  H   H5596     1.0  0.96095  0.76171  0.33338  1.0000
  H   H5597     1.0  0.74688  0.94954  0.43855  1.0000
  H   H5598     1.0  0.67604  0.93250  0.28479  1.0000
  H   H5599     1.0  0.89325  0.84375  0.43316  1.0000
  C   C3163     1.0  0.98475  0.67598  0.42691  1.0000
  H   H5600     1.0  0.87845  0.97522  0.40897  1.0000
  H   H5601     1.0  0.96744  0.90608  0.31224  1.0000
  C   C3164     1.0  0.66226  0.84656  0.48203  1.0000
  C   C3165     1.0  0.93448  0.87465  0.42946  1.0000
  S   S716      1.0  0.99105  0.68413  0.32179  1.0000
  N   N175      1.0  0.79347  0.88437  0.41193  1.0000
  C   C3166     1.0  0.77485  0.88999  0.40989  1.0000
  C   C3167     1.0  0.79433  0.87229  0.42956  1.0000
  C   C3168     1.0  0.79909  0.90045  0.41171  1.0000
  C   C3169     1.0  0.80559  0.87598  0.39755  1.0000
  C   C3170     1.0  0.79806  0.86535  0.38959  1.0000
  C   C3171     1.0  0.77140  0.90469  0.39369  1.0000
  C   C3172     1.0  0.81751  0.89753  0.41508  1.0000
  C   C3173     1.0  0.78890  0.85490  0.43299  1.0000
  H   H5602     1.0  0.84537  0.97763  0.35898  1.0000
  C   C3174     1.0  0.81247  0.85326  0.37955  1.0000
  C   C3175     1.0  0.75443  0.90559  0.38895  1.0000
  C   C3176     1.0  0.82249  0.91483  0.41215  1.0000
  H   H5603     1.0  0.76626  0.89466  0.42152  1.0000
  H   H5604     1.0  0.76989  0.87890  0.40962  1.0000
  H   H5605     1.0  0.80775  0.86851  0.43178  1.0000
  H   H5606     1.0  0.78615  0.87911  0.43999  1.0000
  H   H5607     1.0  0.78972  0.90748  0.42150  1.0000
  H   H5608     1.0  0.79902  0.90967  0.39880  1.0000
  H   H5609     1.0  0.81058  0.88596  0.38632  1.0000
  H   H5610     1.0  0.81741  0.86745  0.40214  1.0000
  H   H5611     1.0  0.78999  0.87429  0.38041  1.0000
  H   H5612     1.0  0.78970  0.85727  0.39945  1.0000
  H   H5613     1.0  0.77054  0.91745  0.39632  1.0000
  H   H5614     1.0  0.78203  0.90283  0.38229  1.0000
  H   H5615     1.0  0.82739  0.88983  0.40625  1.0000
  H   H5616     1.0  0.81813  0.89069  0.42875  1.0000
  H   H5617     1.0  0.77546  0.85702  0.43135  1.0000
  H   H5618     1.0  0.79802  0.84674  0.42418  1.0000
  H   H5619     1.0  0.77721  0.97737  0.38165  1.0000
  H   H5620     1.0  0.98002  0.66389  0.43380  1.0000
  H   H5621     1.0  0.83308  0.93276  0.46763  1.0000
  H   H5622     1.0  0.80671  0.84668  0.37317  1.0000
  H   H5623     1.0  0.82129  0.86069  0.36932  1.0000
  H   H5624     1.0  0.82012  0.84321  0.38853  1.0000
  H   H5625     1.0  0.75271  0.91595  0.37707  1.0000
  H   H5626     1.0  0.75455  0.89309  0.38617  1.0000
  H   H5627     1.0  0.74333  0.90872  0.39968  1.0000
  H   H5628     1.0  0.82256  0.92227  0.39850  1.0000
  H   H5629     1.0  0.81327  0.92267  0.42126  1.0000
  H   H5630     1.0  0.83571  0.91229  0.41463  1.0000
  C   C3177     1.0  0.71218  0.95547  0.37455  1.0000
  C   C3178     1.0  0.95191  0.84365  0.37121  1.0000
  S   S717      1.0  0.98293  0.60609  0.46355  1.0000
  H   H5631     1.0  0.90189  0.96338  0.47500  1.0000
  C   C3179     1.0  0.92760  0.80170  0.45602  1.0000
  S   S718      1.0  0.90158  0.92514  0.33753  1.0000
  N   N176      1.0  0.86753  0.96529  0.43592  1.0000
  C   C3180     1.0  0.74787  0.95818  0.31919  1.0000
  H   H5632     1.0  0.94555  0.91285  0.30909  1.0000
  S   S719      1.0  0.71259  0.95102  0.46862  1.0000
  C   C3181     1.0  0.73324  0.96943  0.31353  1.0000
  C   C3182     1.0  0.93413  0.85539  0.43537  1.0000
  C   C3183     1.0  0.98257  0.61461  0.42888  1.0000
  H   H5633     1.0  0.98127  0.76552  0.28588  1.0000
  H   H5634     1.0  0.79130  0.95771  0.36163  1.0000
  H   H5635     1.0  0.96298  0.62946  0.29723  1.0000
  C   C3184     1.0  0.92406  0.78615  0.35186  1.0000
  C   C3185     1.0  0.97649  0.76771  0.29931  1.0000
  Fe  Fe357     1.0  0.97122  0.62616  0.34073  1.0000
  C   C3186     1.0  0.97602  0.70684  0.41124  1.0000
  H   H5636     1.0  0.87791  0.97796  0.46038  1.0000
  H   H5637     1.0  0.83152  0.94376  0.32359  1.0000
  H   H5638     1.0  0.73864  0.94870  0.35998  1.0000
  H   H5639     1.0  0.68028  0.97879  0.39085  1.0000
  C   C3187     1.0  0.73166  0.95371  0.37183  1.0000
  H   H5640     1.0  0.73724  0.85137  0.34400  1.0000
  C   C3188     1.0  0.90816  0.95717  0.32249  1.0000
  C   C3189     1.0  0.96011  0.63645  0.41589  1.0000
  N   N177      1.0  0.76892  0.86431  0.29409  1.0000
  C   C3190     1.0  0.66317  0.86586  0.47800  1.0000
  C   C3191     1.0  0.75431  0.87418  0.28472  1.0000
  C   C3192     1.0  0.76092  0.85835  0.31312  1.0000
  C   C3193     1.0  0.77900  0.84836  0.28720  1.0000
  H   H5641     1.0  0.96232  0.88691  0.29912  1.0000
  H   H5642     1.0  0.80186  0.95172  0.37975  1.0000
  C   C3194     1.0  0.74631  0.84835  0.31713  1.0000
  C   C3195     1.0  0.75841  0.88821  0.26788  1.0000
  H   H5643     1.0  0.93937  0.82243  0.43934  1.0000
  S   S720      1.0  0.78915  0.90060  0.46007  1.0000
  H   H5644     1.0  0.73148  0.90069  0.26657  1.0000
  C   C3196     1.0  0.74114  0.84093  0.33668  1.0000
  H   H5645     1.0  0.77262  0.88723  0.29922  1.0000
  H   H5646     1.0  0.88711  0.55177  0.34863  1.0000
  H   H5647     1.0  0.74846  0.86498  0.28172  1.0000
  H   H5648     1.0  0.74361  0.88143  0.29341  1.0000
  H   H5649     1.0  0.75513  0.86974  0.31924  1.0000
  H   H5650     1.0  0.77097  0.84987  0.32043  1.0000
  H   H5651     1.0  0.78775  0.83979  0.29598  1.0000
  H   H5652     1.0  0.77014  0.84030  0.28738  1.0000
  H   H5653     1.0  0.75205  0.94512  0.31701  1.0000
  H   H5654     1.0  0.70986  0.94249  0.37577  1.0000
  H   H5655     1.0  0.79248  0.86229  0.31578  1.0000
  H   H5656     1.0  0.70733  0.96155  0.34878  1.0000
  H   H5657     1.0  0.75035  0.83731  0.31066  1.0000
  H   H5658     1.0  0.73455  0.85718  0.31278  1.0000
  C   C3197     1.0  0.92644  0.89069  0.30837  1.0000
  H   H5659     1.0  0.87177  0.56595  0.33562  1.0000
  H   H5660     1.0  0.93875  0.84984  0.42366  1.0000
  C   C3198     1.0  0.83087  0.96528  0.33431  1.0000
  C   C3199     1.0  0.87124  0.96498  0.41690  1.0000
  H   H5661     1.0  0.69250  0.92938  0.25477  1.0000
  N   N178      1.0  0.95082  0.87612  0.32588  1.0000
  H   H5662     1.0  0.84428  0.89360  0.47546  1.0000
  H   H5663     1.0  0.93096  0.69903  0.46830  1.0000
  H   H5664     1.0  0.75211  0.83094  0.34144  1.0000
  Fe  Fe358     1.0  0.98469  0.65845  0.33750  1.0000
  C   C3200     1.0  0.98700  0.69915  0.33483  1.0000
  N   N179      1.0  0.92026  0.57752  0.30761  1.0000
  C   C3201     1.0  0.93546  0.56229  0.30992  1.0000
  C   C3202     1.0  0.91758  0.58211  0.28910  1.0000
  C   C3203     1.0  0.92468  0.59294  0.31058  1.0000
  C   C3204     1.0  0.90394  0.57418  0.32060  1.0000
  C   C3205     1.0  0.89792  0.55795  0.32071  1.0000
  C   C3206     1.0  0.93994  0.55602  0.32825  1.0000
  H   H5665     1.0  0.70809  0.84848  0.44562  1.0000
  C   C3207     1.0  0.92178  0.56697  0.27972  1.0000
  C   C3208     1.0  0.95540  0.54044  0.32877  1.0000
  C   C3209     1.0  0.92084  0.77052  0.32393  1.0000
  H   H5666     1.0  0.94717  0.56555  0.30030  1.0000
  H   H5667     1.0  0.93364  0.55071  0.30686  1.0000
  H   H5668     1.0  0.90402  0.58941  0.28854  1.0000
  H   H5669     1.0  0.92600  0.59106  0.28043  1.0000
  H   H5670     1.0  0.93732  0.59502  0.30195  1.0000
  H   H5671     1.0  0.92637  0.59060  0.32411  1.0000
  H   H5672     1.0  0.90526  0.57337  0.33400  1.0000
  H   H5673     1.0  0.89287  0.58536  0.31821  1.0000
  H   H5674     1.0  0.90843  0.54605  0.32171  1.0000
  H   H5675     1.0  0.94354  0.56628  0.33192  1.0000
  H   H5676     1.0  0.92883  0.55190  0.33826  1.0000
  H   H5677     1.0  0.75752  0.93886  0.46779  1.0000
  H   H5678     1.0  0.80315  0.84125  0.45367  1.0000
  H   H5679     1.0  0.93602  0.56185  0.27667  1.0000
  H   H5680     1.0  0.92661  0.88120  0.41941  1.0000
  H   H5681     1.0  0.87860  0.54310  0.33567  1.0000
  H   H5682     1.0  0.95258  0.52946  0.32546  1.0000
  H   H5683     1.0  0.96710  0.54410  0.31943  1.0000
  H   H5684     1.0  0.95822  0.53603  0.34204  1.0000
  H   H5685     1.0  0.90786  0.61382  0.29470  1.0000
  H   H5686     1.0  0.87451  0.98052  0.35675  1.0000
  C   C3210     1.0  0.84080  0.95143  0.44370  1.0000
  H   H5687     1.0  0.66793  0.90115  0.44285  1.0000
  C   C3211     1.0  0.90791  0.83099  0.40390  1.0000
  H   H5688     1.0  0.96695  0.56565  0.37145  1.0000
  H   H5689     1.0  0.89564  0.84092  0.40280  1.0000
  H   H5690     1.0  0.96483  0.84479  0.37190  1.0000
  H   H5691     1.0  0.84157  0.95283  0.42969  1.0000
  N   N180      1.0  0.91256  0.83459  0.44906  1.0000
  H   H5692     1.0  0.87087  0.95187  0.38913  1.0000
  C   C3212     1.0  0.68741  0.97084  0.25977  1.0000
  H   H5693     1.0  0.73647  0.94446  0.38319  1.0000
  H   H5694     1.0  0.95856  0.88885  0.34151  1.0000
  C   C3213     1.0  0.83494  0.93456  0.45334  1.0000
  H   H5695     1.0  0.70607  0.95910  0.38719  1.0000
  H   H5696     1.0  0.93379  0.82792  0.29589  1.0000
  C   C3214     1.0  0.68356  0.86776  0.44915  1.0000
  C   C3215     1.0  0.91053  0.88731  0.30485  1.0000
  C   C3216     1.0  0.93854  0.82549  0.32113  1.0000
  H   H5697     1.0  0.93114  0.85726  0.35800  1.0000
  H   H5698     1.0  0.72060  0.96502  0.43410  1.0000
  C   C3217     1.0  0.88422  0.96441  0.45915  1.0000
  H   H5699     1.0  0.95616  0.84812  0.33578  1.0000
  H   H5700     1.0  0.97471  0.55385  0.39106  1.0000
  H   H5701     1.0  0.96938  0.85887  0.34096  1.0000
  N   N181      1.0  0.68019  0.87018  0.46756  1.0000
  C   C3218     1.0  0.75705  0.96373  0.32786  1.0000
  H   H5702     1.0  0.90469  0.89869  0.29550  1.0000
  C   C3219     1.0  0.93360  0.87595  0.32288  1.0000
  H   H5703     1.0  0.92156  0.79907  0.44677  1.0000
  C   C3220     1.0  0.91123  0.61049  0.30765  1.0000
  C   C3221     1.0  0.94397  0.85907  0.35808  1.0000
  H   H5704     1.0  0.97531  0.78165  0.29871  1.0000
  C   C3222     1.0  0.92904  0.82096  0.45127  1.0000
  H   H5705     1.0  0.93605  0.89199  0.29590  1.0000
  C   C3223     1.0  0.98173  0.86072  0.28461  1.0000
  H   H5706     1.0  0.83073  0.96422  0.30803  1.0000
  H   H5707     1.0  0.91654  0.83193  0.39077  1.0000
  C   C3224     1.0  0.95060  0.92356  0.32777  1.0000
  S   S721      1.0  0.95073  0.64746  0.39775  1.0000
  C   C3225     1.0  0.82000  0.89628  0.46868  1.0000
  H   H5708     1.0  0.71223  0.97895  0.35368  1.0000
  C   C3226     1.0  0.69566  0.97960  0.26903  1.0000
  C   C3227     1.0  0.95591  0.86011  0.33964  1.0000
  H   H5709     1.0  0.93406  0.86332  0.32021  1.0000
  H   H5710     1.0  0.92341  0.87686  0.33490  1.0000
  H   H5711     1.0  0.89127  0.93634  0.38914  1.0000
  H   H5712     1.0  0.96602  0.70576  0.37509  1.0000
  H   H5713     1.0  0.66198  0.95169  0.27577  1.0000
  H   H5714     1.0  0.93186  0.73076  0.36512  1.0000
  H   H5715     1.0  0.89314  0.97023  0.43114  1.0000
  Fe  Fe359     1.0  0.96726  0.64061  0.37268  1.0000
  H   H5716     1.0  0.91804  0.76106  0.36081  1.0000
  H   H5717     1.0  0.76831  0.95502  0.33227  1.0000
  C   C3228     1.0  0.78968  0.95248  0.37592  1.0000
  H   H5718     1.0  0.93624  0.89572  0.34067  1.0000
  H   H5719     1.0  0.66690  0.96374  0.24295  1.0000
  H   H5720     1.0  0.90064  0.88520  0.31708  1.0000
  C   C3229     1.0  0.67433  0.94687  0.28039  1.0000
  C   C3230     1.0  0.92722  0.73159  0.35329  1.0000
  H   H5721     1.0  0.92701  0.78246  0.37850  1.0000
  C   C3231     1.0  0.90492  0.83308  0.43491  1.0000
  H   H5722     1.0  0.83055  0.96207  0.44848  1.0000
  H   H5723     1.0  0.76284  0.96496  0.38042  1.0000
  H   H5724     1.0  0.95044  0.77000  0.29782  1.0000
  H   H5725     1.0  0.92930  0.88109  0.44063  1.0000
  H   H5726     1.0  0.81237  0.88584  0.28541  1.0000
  H   H5727     1.0  0.92228  0.90318  0.31257  1.0000
  H   H5728     1.0  0.91323  0.73775  0.35538  1.0000
  H   H5729     1.0  0.95337  0.63483  0.45931  1.0000
  C   C3232     1.0  0.92595  0.48870  0.29887  1.0000
  C   C3233     1.0  0.79640  0.86761  0.30162  1.0000
  H   H5730     1.0  0.94012  0.65009  0.43360  1.0000
  C   C3234     1.0  0.95360  0.90853  0.31901  1.0000
  H   H5731     1.0  0.98279  0.71768  0.42950  1.0000
  H   H5732     1.0  0.90811  0.63759  0.30773  1.0000
  C   C3235     1.0  0.80705  0.88089  0.29940  1.0000
  S   S722      1.0  0.96897  0.58975  0.26008  1.0000
  H   H5733     1.0  0.94800  0.87614  0.42370  1.0000
  H   H5734     1.0  0.93997  0.76036  0.35945  1.0000
  H   H5735     1.0  0.90505  0.81783  0.40834  1.0000
  H   H5736     1.0  0.69189  0.89227  0.45994  1.0000
  C   C3236     1.0  0.95900  0.76273  0.30713  1.0000
  H   H5737     1.0  0.76029  0.89958  0.27131  1.0000
  H   H5738     1.0  0.87687  0.94899  0.35862  1.0000
  C   C3237     1.0  0.70754  0.98142  0.41431  1.0000
  H   H5739     1.0  0.78389  0.95482  0.40902  1.0000
  C   C3238     1.0  0.69374  0.84838  0.42738  1.0000
  C   C3239     1.0  0.99086  0.78861  0.42247  1.0000
  H   H5740     1.0  0.89767  0.77101  0.34551  1.0000
  S   S723      1.0  0.74582  0.91278  0.44979  1.0000
  Fe  Fe360     1.0  0.97540  0.79993  0.33584  1.0000
  H   H5741     1.0  0.81804  0.87471  0.30615  1.0000
  H   H5742     1.0  0.74734  0.96909  0.44325  1.0000
  C   C3240     1.0  0.78974  0.85148  0.26833  1.0000
  C   C3241     1.0  0.97751  0.69593  0.35193  1.0000
  C   C3242     1.0  0.94550  0.78944  0.45552  1.0000
  H   H5743     1.0  0.91485  0.80359  0.36962  1.0000
  C   C3243     1.0  0.96496  0.87526  0.30967  1.0000
  H   H5744     1.0  0.97115  0.83566  0.47429  1.0000
  H   H5745     1.0  0.66019  0.93337  0.31515  1.0000
  H   H5746     1.0  0.99023  0.54403  0.33829  1.0000
  Fe  Fe361     1.0  0.73370  0.88987  0.45831  1.0000
  H   H5747     1.0  0.78561  0.88226  0.27947  1.0000
  C   C3244     1.0  0.89759  0.94772  0.33600  1.0000
  C   C3245     1.0  0.67904  0.88910  0.46643  1.0000
  H   H5748     1.0  0.67879  0.95446  0.36143  1.0000
  H   H5749     1.0  0.97815  0.57542  0.38098  1.0000
  H   H5750     1.0  0.72154  0.95645  0.24828  1.0000
  H   H5751     1.0  0.92441  0.76585  0.31167  1.0000
  C   C3246     1.0  0.85825  0.95137  0.44750  1.0000
  H   H5752     1.0  0.91364  0.79308  0.34456  1.0000
  C   C3247     1.0  0.94932  0.68169  0.45247  1.0000
  C   C3248     1.0  0.95965  0.63186  0.44672  1.0000
  H   H5753     1.0  0.81159  0.82961  0.27286  1.0000
  H   H5754     1.0  0.78556  0.83215  0.45382  1.0000
  H   H5755     1.0  0.89079  0.95918  0.38463  1.0000
  H   H5756     1.0  0.95173  0.73592  0.33815  1.0000
  H   H5757     1.0  0.89209  0.94822  0.44065  1.0000
  S   S724      1.0  0.97771  0.61401  0.36713  1.0000
  H   H5758     1.0  0.92219  0.58346  0.25362  1.0000
  S   S725      1.0  0.96285  0.78797  0.36273  1.0000
  H   H5759     1.0  0.96492  0.71822  0.40975  1.0000
  C   C3249     1.0  0.88161  0.94756  0.41194  1.0000
  H   H5760     1.0  0.67346  0.97739  0.26089  1.0000
  H   H5761     1.0  0.73964  0.95702  0.40859  1.0000
  H   H5762     1.0  0.67936  0.92355  0.44868  1.0000
  H   H5763     1.0  0.93927  0.74515  0.47426  1.0000
  H   H5764     1.0  0.82419  0.90251  0.45522  1.0000
  C   C3250     1.0  0.77435  0.96426  0.38535  1.0000
  H   H5765     1.0  0.91681  0.49634  0.30764  1.0000
  H   H5766     1.0  0.87473  0.93701  0.41914  1.0000
  H   H5767     1.0  0.95783  0.49257  0.26254  1.0000
  H   H5768     1.0  0.70726  0.86400  0.46871  1.0000
  H   H5769     1.0  0.85533  0.95229  0.46132  1.0000
  C   C3251     1.0  0.88508  0.95625  0.34817  1.0000
  C   C3252     1.0  0.97779  0.75960  0.42598  1.0000
  H   H5770     1.0  0.90154  0.75454  0.33339  1.0000
  C   C3253     1.0  0.82636  0.98364  0.39129  1.0000
  H   H5771     1.0  0.66348  0.92346  0.46892  1.0000
  H   H5772     1.0  0.81729  0.97491  0.39453  1.0000
  H   H5773     1.0  0.69995  0.94746  0.23967  1.0000
  H   H5774     1.0  0.97224  0.74866  0.42769  1.0000
  H   H5775     1.0  0.95310  0.93540  0.31774  1.0000
  H   H5776     1.0  0.92917  0.82425  0.41670  1.0000
  H   H5777     1.0  0.95816  0.66877  0.45509  1.0000
  S   S726      1.0  0.96034  0.81495  0.31510  1.0000
  C   C3254     1.0  0.93799  0.74194  0.33710  1.0000
  H   H5778     1.0  0.76877  0.94386  0.40813  1.0000
  C   C3255     1.0  0.77157  0.94937  0.44201  1.0000
  H   H5779     1.0  0.66848  0.97373  0.33804  1.0000
  H   H5780     1.0  0.76455  0.95824  0.46625  1.0000
  H   H5781     1.0  0.92055  0.78471  0.31956  1.0000
  H   H5782     1.0  0.87616  0.77788  0.32742  1.0000
  H   H5783     1.0  0.98413  0.84891  0.27950  1.0000
  C   C3256     1.0  0.90218  0.76808  0.33240  1.0000
  C   C3257     1.0  0.88373  0.94889  0.39252  1.0000
  C   C3258     1.0  0.72310  0.97590  0.42295  1.0000
  H   H5784     1.0  0.82239  0.93498  0.45041  1.0000
  H   H5785     1.0  0.92378  0.71320  0.34055  1.0000
  H   H5786     1.0  0.90009  0.82092  0.43875  1.0000
  C   C3259     1.0  0.97450  0.77433  0.41265  1.0000
  H   H5787     1.0  0.70221  0.83588  0.42468  1.0000
  H   H5788     1.0  0.94895  0.78166  0.32284  1.0000
  H   H5789     1.0  0.79776  0.86103  0.26590  1.0000
  H   H5790     1.0  0.89918  0.60998  0.31784  1.0000
  H   H5791     1.0  0.96112  0.74862  0.30795  1.0000
  Fe  Fe362     1.0  0.97437  0.56169  0.25809  1.0000
  C   C3260     1.0  0.88939  0.78012  0.32130  1.0000
  H   H5792     1.0  0.78098  0.85193  0.46118  1.0000
  H   H5793     1.0  0.88910  0.79396  0.32032  1.0000
  H   H5794     1.0  0.97683  0.56786  0.29305  1.0000
  C   C3261     1.0  0.94921  0.86709  0.47281  1.0000
  H   H5795     1.0  0.69845  0.85914  0.41713  1.0000
  H   H5796     1.0  0.91389  0.85666  0.45797  1.0000
  H   H5797     1.0  0.91780  0.95073  0.31301  1.0000
  H   H5798     1.0  0.92236  0.62256  0.32132  1.0000
  Fe  Fe363     1.0  0.72584  0.92285  0.47142  1.0000
  H   H5799     1.0  0.96529  0.62220  0.26907  1.0000
  Fe  Fe364     1.0  0.98477  0.62057  0.48221  1.0000
  H   H5800     1.0  0.67113  0.87078  0.44479  1.0000
  H   H5801     1.0  0.73453  0.96646  0.37056  1.0000
  H   H5802     1.0  0.74101  0.88381  0.25445  1.0000
  H   H5803     1.0  0.89624  0.81888  0.46896  1.0000
  H   H5804     1.0  0.79463  0.82457  0.26623  1.0000
  H   H5805     1.0  0.68959  0.83888  0.45507  1.0000
  C   C3262     1.0  0.96637  0.86150  0.47887  1.0000
  H   H5806     1.0  0.95150  0.87152  0.45843  1.0000
  H   H5807     1.0  0.91991  0.79830  0.46944  1.0000
  H   H5808     1.0  0.90528  0.83162  0.47696  1.0000
  C   C3263     1.0  0.97761  0.56307  0.37837  1.0000
  H   H5809     1.0  0.94359  0.84901  0.44398  1.0000
  H   H5810     1.0  0.88385  0.85854  0.46435  1.0000
  C   C3264     1.0  0.83163  0.98472  0.35904  1.0000
  H   H5811     1.0  0.90141  0.57809  0.26478  1.0000
  H   H5812     1.0  0.69130  0.97081  0.32983  1.0000
  H   H5813     1.0  0.85126  0.98250  0.45254  1.0000
  C   C3265     1.0  0.80324  0.89324  0.47460  1.0000
  C   C3266     1.0  0.97982  0.72352  0.35547  1.0000
  H   H5814     1.0  0.97743  0.87544  0.31246  1.0000
  S   S727      1.0  0.97410  0.73865  0.36868  1.0000
  C   C3267     1.0  0.69512  0.85970  0.47624  1.0000
  H   H5815     1.0  0.97374  0.84711  0.31069  1.0000
  N   N182      1.0  0.68552  0.97719  0.36374  1.0000
  C   C3268     1.0  0.67936  0.98050  0.33326  1.0000
  S   S728      1.0  0.75034  0.87479  0.47767  1.0000
  H   H5816     1.0  0.82157  0.98299  0.46879  1.0000
  C   C3269     1.0  0.98908  0.71291  0.41738  1.0000
  H   H5817     1.0  0.69787  0.84576  0.47611  1.0000
  C   C3270     1.0  0.83141  0.89119  0.48008  1.0000
  C   C3271     1.0  0.85748  0.98317  0.43858  1.0000
  H   H5818     1.0  0.78788  0.97876  0.41127  1.0000
  H   H5819     1.0  0.94063  0.87806  0.47860  1.0000
  S   S729      1.0  0.98501  0.51334  0.25544  1.0000
  H   H5820     1.0  0.94015  0.72609  0.46712  1.0000
  C   C3272     1.0  0.97858  0.84600  0.47116  1.0000
  H   H5821     1.0  0.69285  0.97498  0.28331  1.0000
  H   H5822     1.0  0.97233  0.87295  0.47451  1.0000
  C   C3273     1.0  0.98959  0.72668  0.33845  1.0000
  H   H5823     1.0  0.83965  0.97567  0.39184  1.0000
  H   H5824     1.0  0.99112  0.67826  0.43618  1.0000
  H   H5825     1.0  0.72261  0.98249  0.46694  1.0000
  H   H5826     1.0  0.69314  0.97451  0.24563  1.0000
  C   C3274     1.0  0.94225  0.73072  0.47769  1.0000
  H   H5827     1.0  0.98087  0.85086  0.45679  1.0000
  Fe  Fe365     1.0  0.98321  0.76385  0.35884  1.0000
  H   H5828     1.0  0.98492  0.73865  0.40008  1.0000
  H   H5829     1.0  0.83345  0.98581  0.42961  1.0000
  H   H5830     1.0  0.77502  0.98506  0.43120  1.0000
  C   C3275     1.0  0.71806  0.95827  0.48408  1.0000
  S   S730      1.0  0.76106  0.98593  0.34487  1.0000
  C   C3276     1.0  0.94913  0.48652  0.27348  1.0000
  H   H5831     1.0  0.80052  0.91943  0.50728  1.0000
  C   C3277     1.0  0.79027  0.93111  0.50385  1.0000
  C   C3278     1.0  0.98860  0.51807  0.55556  1.0000
  H   H5832     1.0  0.96945  0.68865  0.55841  1.0000
  H   H5833     1.0  0.69172  0.87357  0.49698  1.0000
  H   H5834     1.0  0.66886  0.92775  0.58118  1.0000
  C   C3279     1.0  0.91077  0.96557  0.56154  1.0000
  C   C3280     1.0  0.71890  0.94735  0.50045  1.0000
  H   H5835     1.0  0.65916  0.96458  0.53013  1.0000
  C   C3281     1.0  0.67182  0.95514  0.53002  1.0000
  Fe  Fe366     1.0  0.96677  0.77465  0.50124  1.0000
  H   H5836     1.0  0.94117  0.76295  0.54996  1.0000
  S   S731      1.0  0.93917  0.79010  0.50392  1.0000
  C   C3282     1.0  0.97941  0.70220  0.51437  1.0000
  C   C3283     1.0  0.82218  0.97036  0.49593  1.0000
  S   S732      1.0  0.92315  0.86557  0.51739  1.0000
  H   H5837     1.0  0.98984  0.84458  0.50249  1.0000
  H   H5838     1.0  0.72055  0.85361  0.49567  1.0000
  C   C3284     1.0  0.98011  0.58258  0.55413  1.0000
  C   C3285     1.0  0.89411  0.97945  0.56475  1.0000
  S   S733      1.0  0.74024  0.97166  0.52245  1.0000
  C   C3286     1.0  0.66723  0.90258  0.60965  1.0000
  H   H5839     1.0  0.73211  0.92041  0.54967  1.0000
  H   H5840     1.0  0.75079  0.89504  0.53826  1.0000
  H   H5841     1.0  0.89528  0.74096  0.53907  1.0000
  H   H5842     1.0  0.98200  0.51443  0.72592  1.0000
  H   H5843     1.0  0.83828  0.96665  0.61543  1.0000
  S   S734      1.0  0.96873  0.74752  0.49975  1.0000
  H   H5844     1.0  0.77836  0.98380  0.55170  1.0000
  C   C3287     1.0  0.90455  0.96139  0.51249  1.0000
  C   C3288     1.0  0.73135  0.96714  0.50758  1.0000
  Fe  Fe367     1.0  0.87531  0.91927  0.50480  1.0000
  Fe  Fe368     1.0  0.72939  0.88838  0.49674  1.0000
  S   S735      1.0  0.86277  0.94522  0.51163  1.0000
  Fe  Fe369     1.0  0.86377  0.88812  0.50269  1.0000
  S   S736      1.0  0.84059  0.87592  0.51165  1.0000
  H   H5845     1.0  0.93221  0.70009  0.53102  1.0000
  S   S737      1.0  0.87432  0.89317  0.52288  1.0000
  H   H5846     1.0  0.89540  0.71141  0.55250  1.0000
  C   C3289     1.0  0.87697  0.95823  0.51000  1.0000
  H   H5847     1.0  0.95268  0.83720  0.52015  1.0000
  H   H5848     1.0  0.87689  0.84273  0.49534  1.0000
  H   H5849     1.0  0.88376  0.97989  0.54316  1.0000
  H   H5850     1.0  0.97490  0.55497  0.50950  1.0000
  C   C3290     1.0  0.89394  0.95080  0.51225  1.0000
  C   C3291     1.0  0.67016  0.90672  0.52963  1.0000
  H   H5851     1.0  0.72024  0.94616  0.55239  1.0000
  C   C3292     1.0  0.68873  0.87822  0.55008  1.0000
  H   H5852     1.0  0.89873  0.93685  0.51432  1.0000
  C   C3293     1.0  0.98568  0.50983  0.68489  1.0000
  H   H5853     1.0  0.90863  0.95243  0.56864  1.0000
  C   C3294     1.0  0.69687  0.88526  0.53307  1.0000
  C   C3295     1.0  0.74013  0.89343  0.54992  1.0000
  C   C3296     1.0  0.69038  0.93106  0.54870  1.0000
  C   C3297     1.0  0.82628  0.88266  0.49734  1.0000
  C   C3298     1.0  0.80961  0.87930  0.50321  1.0000
  H   H5854     1.0  0.97409  0.50048  0.55288  1.0000
  C   C3299     1.0  0.69297  0.86026  0.49553  1.0000
  C   C3300     1.0  0.71048  0.90807  0.56484  1.0000
  H   H5855     1.0  0.80562  0.87260  0.51655  1.0000
  H   H5856     1.0  0.83481  0.96113  0.49298  1.0000
  C   C3301     1.0  0.93467  0.81056  0.50882  1.0000
  C   C3302     1.0  0.91818  0.82137  0.50843  1.0000
  C   C3303     1.0  0.91442  0.83815  0.51138  1.0000
  S   S738      1.0  0.90249  0.91067  0.49040  1.0000
  C   C3304     1.0  0.97218  0.69101  0.50978  1.0000
  H   H5857     1.0  0.93994  0.72113  0.54227  1.0000
  H   H5858     1.0  0.90826  0.81674  0.50589  1.0000
  H   H5859     1.0  0.90161  0.84631  0.51124  1.0000
  H   H5860     1.0  0.87930  0.77109  0.52930  1.0000
  H   H5861     1.0  0.93429  0.74395  0.50516  1.0000
  C   C3305     1.0  0.80722  0.96126  0.49825  1.0000
  C   C3306     1.0  0.96271  0.67837  0.54029  1.0000
  C   C3307     1.0  0.68385  0.90618  0.59689  1.0000
  H   H5862     1.0  0.96841  0.50278  0.70945  1.0000
  C   C3308     1.0  0.79804  0.88466  0.49186  1.0000
  Fe  Fe370     1.0  0.97267  0.64565  0.50591  1.0000
  H   H5863     1.0  0.97286  0.69179  0.49621  1.0000
  H   H5864     1.0  0.79427  0.93754  0.49001  1.0000
  H   H5865     1.0  0.70593  0.89687  0.56387  1.0000
  Fe  Fe371     1.0  0.98327  0.52139  0.60878  1.0000
  C   C3309     1.0  0.95561  0.57255  0.52354  1.0000
  H   H5866     1.0  0.67298  0.94627  0.52154  1.0000
  H   H5867     1.0  0.95625  0.57476  0.56840  1.0000
  H   H5868     1.0  0.67153  0.95403  0.55670  1.0000
  H   H5869     1.0  0.91522  0.70125  0.56036  1.0000
  N   N183      1.0  0.92039  0.72757  0.52700  1.0000
  S   S739      1.0  0.86272  0.91490  0.48591  1.0000
  H   H5870     1.0  0.65942  0.87023  0.49047  1.0000
  H   H5871     1.0  0.76815  0.96820  0.56872  1.0000
  H   H5872     1.0  0.90567  0.75608  0.49956  1.0000
  C   C3310     1.0  0.90537  0.68432  0.55201  1.0000
  N   N184      1.0  0.80156  0.95071  0.51630  1.0000
  C   C3311     1.0  0.78655  0.94371  0.51605  1.0000
  C   C3312     1.0  0.79585  0.96280  0.52878  1.0000
  H   H5873     1.0  0.95576  0.58349  0.51187  1.0000
  C   C3313     1.0  0.81685  0.93642  0.52072  1.0000
  C   C3314     1.0  0.81354  0.92375  0.53862  1.0000
  H   H5874     1.0  0.83620  0.95050  0.54734  1.0000
  H   H5875     1.0  0.92109  0.96815  0.56616  1.0000
  C   C3315     1.0  0.78117  0.95914  0.54499  1.0000
  H   H5876     1.0  0.72767  0.94259  0.52407  1.0000
  C   C3316     1.0  0.82982  0.90964  0.54135  1.0000
  C   C3317     1.0  0.93061  0.72404  0.49499  1.0000
  C   C3318     1.0  0.98711  0.51514  0.71217  1.0000
  H   H5877     1.0  0.77578  0.95476  0.51230  1.0000
  H   H5878     1.0  0.78113  0.93659  0.52918  1.0000
  C   C3319     1.0  0.87077  0.97625  0.50755  1.0000
  N   N185      1.0  0.69534  0.92358  0.56615  1.0000
  H   H5879     1.0  0.95606  0.66930  0.55035  1.0000
  H   H5880     1.0  0.79587  0.97121  0.49410  1.0000
  H   H5881     1.0  0.82230  0.92875  0.51046  1.0000
  H   H5882     1.0  0.82761  0.94207  0.52075  1.0000
  H   H5883     1.0  0.80304  0.91726  0.53977  1.0000
  H   H5884     1.0  0.81021  0.93078  0.54922  1.0000
  H   H5885     1.0  0.65826  0.91490  0.61232  1.0000
  H   H5886     1.0  0.68580  0.97707  0.61939  1.0000
  H   H5887     1.0  0.98315  0.56648  0.51994  1.0000
  H   H5888     1.0  0.80710  0.96333  0.53349  1.0000
  H   H5889     1.0  0.76858  0.96286  0.54089  1.0000
  H   H5890     1.0  0.78317  0.94530  0.55187  1.0000
  H   H5891     1.0  0.95977  0.80770  0.51388  1.0000
  C   C3320     1.0  0.71059  0.96372  0.56935  1.0000
  H   H5892     1.0  0.66509  0.88003  0.56995  1.0000
  H   H5893     1.0  0.83389  0.90209  0.53108  1.0000
  H   H5894     1.0  0.84057  0.91549  0.54099  1.0000
  H   H5895     1.0  0.82717  0.90056  0.55418  1.0000
  H   H5896     1.0  0.87422  0.76246  0.51369  1.0000
  N   N186      1.0  0.98986  0.52992  0.53761  1.0000
  H   H5897     1.0  0.71443  0.93540  0.50412  1.0000
  C   C3321     1.0  0.72604  0.91021  0.54930  1.0000
  C   C3322     1.0  0.68755  0.89966  0.52301  1.0000
  H   H5898     1.0  0.70072  0.93687  0.53908  1.0000
  H   H5899     1.0  0.95306  0.74099  0.54953  1.0000
  H   H5900     1.0  0.74556  0.89022  0.56175  1.0000
  H   H5901     1.0  0.67569  0.90849  0.57322  1.0000
  S   S740      1.0  0.95266  0.66678  0.51714  1.0000
  H   H5902     1.0  0.68229  0.96246  0.52443  1.0000
  H   H5903     1.0  0.71626  0.97421  0.55956  1.0000
  H   H5904     1.0  0.97391  0.59354  0.54531  1.0000
  C   C3323     1.0  0.97937  0.50864  0.70281  1.0000
  H   H5905     1.0  0.81703  0.98032  0.61423  1.0000
  C   C3324     1.0  0.70757  0.95150  0.56002  1.0000
  H   H5906     1.0  0.67310  0.83776  0.48797  1.0000
  H   H5907     1.0  0.83555  0.97194  0.53355  1.0000
  H   H5908     1.0  0.66303  0.93003  0.70148  1.0000
  C   C3325     1.0  0.92706  0.84409  0.51505  1.0000
  C   C3326     1.0  0.97343  0.50856  0.56191  1.0000
  H   H5909     1.0  0.91802  0.67490  0.54972  1.0000
  H   H5910     1.0  0.68709  0.94380  0.58083  1.0000
  C   C3327     1.0  0.89831  0.97942  0.51020  1.0000
  H   H5911     1.0  0.71066  0.83506  0.50186  1.0000
  C   C3328     1.0  0.96359  0.67925  0.52275  1.0000
  S   S741      1.0  0.97452  0.49814  0.62757  1.0000
  H   H5912     1.0  0.97250  0.50417  0.58961  1.0000
  H   H5913     1.0  0.70772  0.93033  0.58279  1.0000
  H   H5914     1.0  0.66306  0.91782  0.52164  1.0000
  H   H5915     1.0  0.93710  0.75401  0.52561  1.0000
  C   C3329     1.0  0.91907  0.70878  0.53180  1.0000
  C   C3330     1.0  0.97322  0.54379  0.53772  1.0000
  H   H5916     1.0  0.89814  0.67973  0.56539  1.0000
  C   C3331     1.0  0.93346  0.73016  0.51004  1.0000
  C   C3332     1.0  0.77393  0.92494  0.50540  1.0000
  H   H5917     1.0  0.72203  0.91320  0.53669  1.0000
  Fe  Fe372     1.0  0.90043  0.88390  0.50662  1.0000
  C   C3333     1.0  0.97820  0.55743  0.57832  1.0000
  H   H5918     1.0  0.95332  0.57793  0.53518  1.0000
  H   H5919     1.0  0.94663  0.72296  0.51218  1.0000
  H   H5920     1.0  0.93405  0.70960  0.49755  1.0000
  C   C3334     1.0  0.94718  0.81622  0.51305  1.0000
  C   C3335     1.0  0.72981  0.97856  0.49148  1.0000
  C   C3336     1.0  0.90183  0.75735  0.51331  1.0000
  C   C3337     1.0  0.87967  0.97683  0.55756  1.0000
  C   C3338     1.0  0.69921  0.93689  0.57325  1.0000
  H   H5921     1.0  0.89775  0.68464  0.54259  1.0000
  H   H5922     1.0  0.98740  0.52565  0.56530  1.0000
  H   H5923     1.0  0.69376  0.90563  0.51023  1.0000
  C   C3339     1.0  0.68022  0.91685  0.57882  1.0000
  H   H5924     1.0  0.68142  0.85546  0.50385  1.0000
  S   S742      1.0  0.88984  0.87684  0.48776  1.0000
  H   H5925     1.0  0.88329  0.78150  0.50652  1.0000
  S   S743      1.0  0.71864  0.87604  0.52462  1.0000
  C   C3340     1.0  0.90824  0.70239  0.55010  1.0000
  H   H5926     1.0  0.77651  0.91660  0.49606  1.0000
  C   C3341     1.0  0.97014  0.57199  0.56722  1.0000
  H   H5927     1.0  0.85759  0.98196  0.50596  1.0000
  H   H5928     1.0  0.97890  0.82928  0.50156  1.0000
  C   C3342     1.0  0.92731  0.73053  0.54097  1.0000
  H   H5929     1.0  0.69272  0.89338  0.59574  1.0000
  H   H5930     1.0  0.96331  0.85814  0.49330  1.0000
  H   H5931     1.0  0.85804  0.85160  0.48586  1.0000
  C   C3343     1.0  0.93984  0.74945  0.55174  1.0000
  H   H5932     1.0  0.91531  0.96583  0.54739  1.0000
  H   H5933     1.0  0.96211  0.53813  0.53873  1.0000
  C   C3344     1.0  0.90261  0.73910  0.52587  1.0000
  H   H5934     1.0  0.71581  0.90365  0.57687  1.0000
  C   C3345     1.0  0.85030  0.98472  0.55264  1.0000
  H   H5935     1.0  0.94480  0.56643  0.52472  1.0000
  H   H5936     1.0  0.96324  0.48964  0.58406  1.0000
  H   H5937     1.0  0.71979  0.95656  0.57806  1.0000
  H   H5938     1.0  0.68981  0.91316  0.60263  1.0000
  H   H5939     1.0  0.73485  0.88242  0.54989  1.0000
  H   H5940     1.0  0.91700  0.75813  0.54115  1.0000
  H   H5941     1.0  0.69914  0.95959  0.55084  1.0000
  H   H5942     1.0  0.91057  0.76446  0.51505  1.0000
  H   H5943     1.0  0.91844  0.72798  0.55388  1.0000
  C   C3346     1.0  0.97839  0.70146  0.53189  1.0000
  H   H5944     1.0  0.70659  0.84885  0.51676  1.0000
  C   C3347     1.0  0.92981  0.74906  0.53872  1.0000
  C   C3348     1.0  0.97028  0.68931  0.54484  1.0000
  H   H5945     1.0  0.66200  0.93818  0.55373  1.0000
  H   H5946     1.0  0.69589  0.86708  0.55796  1.0000
  C   C3349     1.0  0.88350  0.76873  0.51591  1.0000
  H   H5947     1.0  0.78515  0.88217  0.49647  1.0000
  C   C3350     1.0  0.72595  0.95158  0.51196  1.0000
  H   H5948     1.0  0.93294  0.74505  0.56531  1.0000
  H   H5949     1.0  0.96998  0.54922  0.54949  1.0000
  C   C3351     1.0  0.66202  0.89978  0.54658  1.0000
  S   S744      1.0  0.98524  0.76682  0.51939  1.0000
  H   H5950     1.0  0.86262  0.95971  0.54528  1.0000
  H   H5951     1.0  0.91334  0.70609  0.52227  1.0000
  S   S745      1.0  0.97622  0.50103  0.67356  1.0000
  H   H5952     1.0  0.68940  0.92046  0.54335  1.0000
  H   H5953     1.0  0.89479  0.73266  0.52157  1.0000
  H   H5954     1.0  0.76315  0.93618  0.50228  1.0000
  H   H5955     1.0  0.91752  0.95556  0.51474  1.0000
  H   H5956     1.0  0.86762  0.82866  0.48883  1.0000
  C   C3352     1.0  0.94323  0.83287  0.51648  1.0000
  C   C3353     1.0  0.83528  0.96428  0.54715  1.0000
  S   S746      1.0  0.96627  0.54261  0.59274  1.0000
  S   S747      1.0  0.97124  0.61766  0.51044  1.0000
  H   H5957     1.0  0.83136  0.97279  0.58612  1.0000
  C   C3354     1.0  0.67133  0.88552  0.55688  1.0000
  H   H5958     1.0  0.85009  0.95750  0.56705  1.0000
  C   C3355     1.0  0.97403  0.49651  0.57989  1.0000
  H   H5959     1.0  0.96073  0.51798  0.56312  1.0000
  H   H5960     1.0  0.87995  0.96267  0.56140  1.0000
  C   C3356     1.0  0.67303  0.94479  0.54854  1.0000
  Fe  Fe373     1.0  0.98845  0.73976  0.51607  1.0000
  C   C3357     1.0  0.97297  0.55938  0.52162  1.0000
  C   C3358     1.0  0.77971  0.96979  0.55809  1.0000
  H   H5961     1.0  0.91690  0.72857  0.49363  1.0000
  H   H5962     1.0  0.76990  0.91725  0.51874  1.0000
  C   C3359     1.0  0.85051  0.96554  0.55363  1.0000
  S   S748      1.0  0.74235  0.91047  0.49130  1.0000
  H   H5963     1.0  0.66026  0.94331  0.64362  1.0000
  H   H5964     1.0  0.66065  0.89567  0.60445  1.0000
  H   H5965     1.0  0.81197  0.95302  0.48853  1.0000
  H   H5966     1.0  0.79140  0.96528  0.56385  1.0000
  H   H5967     1.0  0.79092  0.97641  0.52196  1.0000
  H   H5968     1.0  0.69818  0.96984  0.57710  1.0000
  H   H5969     1.0  0.82279  0.96920  0.55558  1.0000
  C   C3360     1.0  0.70868  0.84871  0.50281  1.0000
  H   H5970     1.0  0.97952  0.51591  0.52557  1.0000
  H   H5971     1.0  0.67024  0.91902  0.73049  1.0000
  H   H5972     1.0  0.67037  0.89424  0.62216  1.0000
  H   H5973     1.0  0.86164  0.96725  0.58702  1.0000
  C   C3361     1.0  0.83116  0.97967  0.60947  1.0000
  H   H5974     1.0  0.98565  0.71150  0.50430  1.0000
  C   C3362     1.0  0.83569  0.98271  0.58962  1.0000
  H   H5975     1.0  0.89005  0.97884  0.57895  1.0000
  Fe  Fe374     1.0  0.98832  0.50343  0.64509  1.0000
  H   H5976     1.0  0.82196  0.97461  0.50767  1.0000
  C   C3363     1.0  0.87050  0.84175  0.48545  1.0000
  H   H5977     1.0  0.98685  0.81471  0.53136  1.0000
  S   S749      1.0  0.98664  0.71606  0.53774  1.0000
  C   C3364     1.0  0.85551  0.98120  0.58251  1.0000
  H   H5978     1.0  0.98645  0.48662  0.57970  1.0000
  C   C3365     1.0  0.66090  0.54098  0.95203  1.0000
  C   C3366     1.0  0.95773  0.58922  0.82710  1.0000
  H   H5979     1.0  0.83565  0.55812  0.95932  1.0000
  H   H5980     1.0  0.66822  0.57266  0.89132  1.0000
  S   S750      1.0  0.94345  0.52775  0.78556  1.0000
  Fe  Fe375     1.0  0.72612  0.53664  0.84877  1.0000
  S   S751      1.0  0.74388  0.53514  0.86591  1.0000
  S   S752      1.0  0.71114  0.56218  0.83562  1.0000
  C   C3367     1.0  0.80846  0.54334  0.97945  1.0000
  H   H5981     1.0  0.67053  0.78614  0.89789  1.0000
  Fe  Fe376     1.0  0.73389  0.51151  0.88194  1.0000
  H   H5982     1.0  0.67629  0.79252  0.98185  1.0000
  Fe  Fe377     1.0  0.76325  0.51668  0.85073  1.0000
  S   S753      1.0  0.79218  0.51327  0.84272  1.0000
  S   S754      1.0  0.71446  0.51449  0.86602  1.0000
  S   S755      1.0  0.74660  0.52036  0.83194  1.0000
  S   S756      1.0  0.73092  0.55794  0.95038  1.0000
  Fe  Fe378     1.0  0.89435  0.51885  0.87735  1.0000
  S   S757      1.0  0.87582  0.51855  0.86191  1.0000
  S   S758      1.0  0.91763  0.53042  0.86501  1.0000
  Fe  Fe379     1.0  0.87752  0.49684  0.91062  1.0000
  H   H5983     1.0  0.84529  0.51083  0.97132  1.0000
  C   C3368     1.0  0.67548  0.72706  0.88943  1.0000
  H   H5984     1.0  0.96905  0.53398  0.84660  1.0000
  Fe  Fe380     1.0  0.85554  0.52263  0.88602  1.0000
  S   S759      1.0  0.82833  0.53871  0.88685  1.0000
  H   H5985     1.0  0.71081  0.52655  0.82421  1.0000
  S   S760      1.0  0.87375  0.52568  0.90041  1.0000
  C   C3369     1.0  0.66433  0.67376  0.95088  1.0000
  C   C3370     1.0  0.88546  0.50852  0.94615  1.0000
  C   C3371     1.0  0.88849  0.51681  0.95750  1.0000
  H   H5986     1.0  0.66599  0.86865  0.85591  1.0000
  C   C3372     1.0  0.83718  0.54433  0.95911  1.0000
  H   H5987     1.0  0.85783  0.55839  0.97297  1.0000
  H   H5988     1.0  0.88827  0.51376  0.93227  1.0000
  H   H5989     1.0  0.89354  0.52846  0.95229  1.0000
  C   C3373     1.0  0.87913  0.53966  0.79536  1.0000
  S   S761      1.0  0.66388  0.72904  0.84270  1.0000
  C   C3374     1.0  0.72783  0.51912  0.92180  1.0000
  C   C3375     1.0  0.73568  0.53307  0.91282  1.0000
  C   C3376     1.0  0.73588  0.54546  0.92143  1.0000
  C   C3377     1.0  0.72878  0.54360  0.93925  1.0000
  C   C3378     1.0  0.72092  0.52965  0.94827  1.0000
  C   C3379     1.0  0.72037  0.51749  0.93954  1.0000
  H   H5990     1.0  0.74201  0.53413  0.89937  1.0000
  H   H5991     1.0  0.74221  0.55607  0.91445  1.0000
  H   H5992     1.0  0.71534  0.52808  0.96201  1.0000
  C   C3380     1.0  0.87930  0.49325  0.95277  1.0000
  C   C3381     1.0  0.80202  0.52115  0.85451  1.0000
  C   C3382     1.0  0.79243  0.53330  0.86453  1.0000
  C   C3383     1.0  0.80068  0.53921  0.87394  1.0000
  C   C3384     1.0  0.81840  0.53261  0.87375  1.0000
  C   C3385     1.0  0.82791  0.52040  0.86380  1.0000
  C   C3386     1.0  0.81979  0.51488  0.85402  1.0000
  H   H5993     1.0  0.77877  0.53835  0.86480  1.0000
  H   H5994     1.0  0.79328  0.54872  0.88153  1.0000
  H   H5995     1.0  0.84150  0.51505  0.86371  1.0000
  C   C3387     1.0  0.83077  0.49302  0.93878  1.0000
  C   C3388     1.0  0.93636  0.52805  0.80777  1.0000
  C   C3389     1.0  0.91965  0.53731  0.81371  1.0000
  C   C3390     1.0  0.91366  0.53765  0.83140  1.0000
  C   C3391     1.0  0.92450  0.52891  0.84316  1.0000
  C   C3392     1.0  0.94113  0.51948  0.83729  1.0000
  C   C3393     1.0  0.94696  0.51886  0.81965  1.0000
  H   H5996     1.0  0.91143  0.54449  0.80457  1.0000
  H   H5997     1.0  0.90080  0.54499  0.83589  1.0000
  H   H5998     1.0  0.94944  0.51248  0.84642  1.0000
  H   H5999     1.0  0.95951  0.51098  0.81536  1.0000
  H   H6000     1.0  0.96795  0.59185  0.81519  1.0000
  H   H6001     1.0  0.68525  0.75304  0.98442  1.0000
  C   C3394     1.0  0.68041  0.58560  0.83427  1.0000
  C   C3395     1.0  0.68862  0.56909  0.84242  1.0000
  C   C3396     1.0  0.67884  0.55875  0.85587  1.0000
  H   H6002     1.0  0.71660  0.55860  0.88540  1.0000
  C   C3397     1.0  0.95834  0.57010  0.79927  1.0000
  H   H6003     1.0  0.68790  0.59354  0.82371  1.0000
  H   H6004     1.0  0.68513  0.54609  0.86232  1.0000
  H   H6005     1.0  0.82725  0.50544  0.84634  1.0000
  H   H6006     1.0  0.66386  0.66234  0.93056  1.0000
  C   C3398     1.0  0.72655  0.52066  0.79989  1.0000
  H   H6007     1.0  0.92549  0.57829  0.87907  1.0000
  H   H6008     1.0  0.71234  0.61615  0.83803  1.0000
  H   H6009     1.0  0.93184  0.50308  0.77265  1.0000
  H   H6010     1.0  0.70288  0.60757  0.90366  1.0000
  H   H6011     1.0  0.66553  0.76827  0.97966  1.0000
  H   H6012     1.0  0.79485  0.52315  0.98120  1.0000
  H   H6013     1.0  0.69589  0.57344  0.91176  1.0000
  H   H6014     1.0  0.89011  0.54615  0.78886  1.0000
  H   H6015     1.0  0.70854  0.60503  0.86994  1.0000
  H   H6016     1.0  0.66384  0.67249  0.85730  1.0000
  H   H6017     1.0  0.66973  0.53892  0.80708  1.0000
  H   H6018     1.0  0.69505  0.50269  0.84575  1.0000
  H   H6019     1.0  0.83919  0.55394  0.91430  1.0000
  C   C3399     1.0  0.91393  0.49091  0.81774  1.0000
  H   H6020     1.0  0.82543  0.51441  0.96544  1.0000
  H   H6021     1.0  0.70145  0.60110  0.93839  1.0000
  H   H6022     1.0  0.67067  0.52046  0.87771  1.0000
  H   H6023     1.0  0.80643  0.55757  0.97372  1.0000
  H   H6024     1.0  0.69299  0.62287  0.88637  1.0000
  H   H6025     1.0  0.67448  0.55725  0.96683  1.0000
  H   H6026     1.0  0.66893  0.68799  0.80760  1.0000
  H   H6027     1.0  0.94419  0.55541  0.82232  1.0000
  H   H6028     1.0  0.73466  0.53007  0.79791  1.0000
  H   H6029     1.0  0.69480  0.51509  0.80037  1.0000
  H   H6030     1.0  0.91897  0.55950  0.87790  1.0000
  C   C3400     1.0  0.69921  0.61600  0.84640  1.0000
  C   C3401     1.0  0.97591  0.53940  0.83335  1.0000
  C   C3402     1.0  0.67958  0.76676  0.97870  1.0000
  H   H6031     1.0  0.68545  0.52446  0.84687  1.0000
  H   H6032     1.0  0.85673  0.54824  0.92557  1.0000
  C   C3403     1.0  0.67057  0.53571  0.82104  1.0000
  C   C3404     1.0  0.92673  0.57648  0.85269  1.0000
  C   C3405     1.0  0.66921  0.59474  0.96188  1.0000
  H   H6033     1.0  0.77643  0.49835  0.90718  1.0000
  H   H6034     1.0  0.70848  0.58404  0.89332  1.0000
  S   S762      1.0  0.72745  0.50349  0.91121  1.0000
  C   C3406     1.0  0.69989  0.59991  0.95254  1.0000
  C   C3407     1.0  0.70054  0.60177  0.86300  1.0000
  S   S763      1.0  0.85771  0.49435  0.89799  1.0000
  N   N187      1.0  0.78481  0.50237  0.92830  1.0000
  C   C3408     1.0  0.78309  0.52139  0.91952  1.0000
  C   C3409     1.0  0.79944  0.49545  0.93801  1.0000
  C   C3410     1.0  0.76785  0.50021  0.94086  1.0000
  C   C3411     1.0  0.66088  0.56497  0.86109  1.0000
  C   C3412     1.0  0.81562  0.50358  0.93023  1.0000
  C   C3413     1.0  0.77866  0.53399  0.93188  1.0000
  H   H6035     1.0  0.69348  0.62894  0.84964  1.0000
  C   C3414     1.0  0.88540  0.52147  0.80602  1.0000
  Fe  Fe381     1.0  0.73611  0.49805  0.85038  1.0000
  C   C3415     1.0  0.66339  0.67548  0.93210  1.0000
  C   C3416     1.0  0.78393  0.55119  0.92243  1.0000
  H   H6036     1.0  0.77282  0.52578  0.91173  1.0000
  H   H6037     1.0  0.79504  0.52362  0.90976  1.0000
  C   C3417     1.0  0.89991  0.51028  0.79447  1.0000
  S   S764      1.0  0.98937  0.50510  0.76077  1.0000
  H   H6038     1.0  0.75741  0.50354  0.93347  1.0000
  H   H6039     1.0  0.76358  0.50944  0.94960  1.0000
  C   C3418     1.0  0.67048  0.70990  0.89968  1.0000
  H   H6040     1.0  0.67901  0.70934  0.81638  1.0000
  H   H6041     1.0  0.81270  0.51690  0.93238  1.0000
  H   H6042     1.0  0.73335  0.50760  0.80613  1.0000
  H   H6043     1.0  0.76453  0.53701  0.93711  1.0000
  H   H6044     1.0  0.78488  0.52822  0.94322  1.0000
  H   H6045     1.0  0.81806  0.55211  0.94257  1.0000
  H   H6046     1.0  0.66952  0.54421  0.93908  1.0000
  H   H6047     1.0  0.80712  0.50373  0.89450  1.0000
  C   C3419     1.0  0.68227  0.59980  0.87415  1.0000
  H   H6048     1.0  0.67513  0.67963  0.92353  1.0000
  H   H6049     1.0  0.80134  0.53483  0.95941  1.0000
  H   H6050     1.0  0.93511  0.57787  0.81808  1.0000
  H   H6051     1.0  0.69649  0.49161  0.90904  1.0000
  H   H6052     1.0  0.97047  0.53667  0.82373  1.0000
  H   H6053     1.0  0.76956  0.54214  0.97038  1.0000
  H   H6054     1.0  0.77992  0.56007  0.93150  1.0000
  H   H6055     1.0  0.79821  0.54903  0.91763  1.0000
  H   H6056     1.0  0.77748  0.55751  0.91122  1.0000
  H   H6057     1.0  0.66866  0.67651  0.89943  1.0000
  C   C3420     1.0  0.96469  0.61381  0.83503  1.0000
  H   H6058     1.0  0.66608  0.57434  0.91315  1.0000
  H   H6059     1.0  0.70460  0.50056  0.81751  1.0000
  C   C3421     1.0  0.68293  0.51285  0.84447  1.0000
  C   C3422     1.0  0.97437  0.55917  0.83048  1.0000
  N   N188      1.0  0.95632  0.57050  0.83133  1.0000
  H   H6060     1.0  0.82688  0.49093  0.95311  1.0000
  H   H6061     1.0  0.66079  0.65689  0.87767  1.0000
  H   H6062     1.0  0.84058  0.56827  0.92669  1.0000
  C   C3423     1.0  0.84275  0.55443  0.92628  1.0000
  C   C3424     1.0  0.79632  0.53616  0.97303  1.0000
  H   H6063     1.0  0.69388  0.57504  0.95794  1.0000
  N   N189      1.0  0.67965  0.51689  0.82629  1.0000
  H   H6064     1.0  0.67328  0.61283  0.87249  1.0000
  H   H6065     1.0  0.70778  0.58938  0.85908  1.0000
  C   C3425     1.0  0.66626  0.58202  0.89952  1.0000
  H   H6066     1.0  0.66936  0.60037  0.94785  1.0000
  H   H6067     1.0  0.81156  0.49049  0.98304  1.0000
  H   H6068     1.0  0.69765  0.56516  0.87671  1.0000
  C   C3426     1.0  0.77818  0.54796  0.97427  1.0000
  H   H6069     1.0  0.67921  0.69958  0.89314  1.0000
  N   N190      1.0  0.68094  0.59141  0.89332  1.0000
  H   H6070     1.0  0.87392  0.51566  0.81189  1.0000
  C   C3427     1.0  0.69705  0.57813  0.89739  1.0000
  H   H6071     1.0  0.67416  0.59905  0.91791  1.0000
  C   C3428     1.0  0.68856  0.58703  0.96302  1.0000
  H   H6072     1.0  0.70334  0.53981  0.80484  1.0000
  H   H6073     1.0  0.94415  0.55187  0.85198  1.0000
  H   H6074     1.0  0.69423  0.61288  0.95569  1.0000
  H   H6075     1.0  0.92604  0.59059  0.84771  1.0000
  H   H6076     1.0  0.91865  0.57266  0.84614  1.0000
  H   H6077     1.0  0.67403  0.72984  0.87575  1.0000
  C   C3429     1.0  0.96219  0.59516  0.84142  1.0000
  C   C3430     1.0  0.91856  0.57352  0.87214  1.0000
  H   H6078     1.0  0.83331  0.53164  0.94047  1.0000
  H   H6079     1.0  0.69105  0.61366  0.83891  1.0000
  C   C3431     1.0  0.66922  0.50537  0.82436  1.0000
  H   H6080     1.0  0.95271  0.62287  0.83140  1.0000
  C   C3432     1.0  0.93510  0.48967  0.78054  1.0000
  C   C3433     1.0  0.68409  0.62991  0.91085  1.0000
  H   H6081     1.0  0.87280  0.53893  0.78531  1.0000
  H   H6082     1.0  0.72508  0.52028  0.78693  1.0000
  C   C3434     1.0  0.66860  0.50628  0.85980  1.0000
  H   H6083     1.0  0.85139  0.53848  0.95748  1.0000
  H   H6084     1.0  0.95472  0.57410  0.77303  1.0000
  H   H6085     1.0  0.91086  0.51699  0.78998  1.0000
  H   H6086     1.0  0.90478  0.58068  0.87409  1.0000
  C   C3435     1.0  0.66262  0.59206  0.83989  1.0000
  C   C3436     1.0  0.69056  0.61589  0.90020  1.0000
  H   H6087     1.0  0.95227  0.56546  0.85942  1.0000
  H   H6088     1.0  0.94561  0.59825  0.82371  1.0000
  H   H6089     1.0  0.88314  0.48623  0.82308  1.0000
  H   H6090     1.0  0.93722  0.58621  0.78658  1.0000
  H   H6091     1.0  0.96824  0.55792  0.79790  1.0000
  H   H6092     1.0  0.79481  0.49754  0.95154  1.0000
  C   C3437     1.0  0.70223  0.56215  0.88898  1.0000
  C   C3438     1.0  0.70886  0.52635  0.81139  1.0000
  H   H6093     1.0  0.98296  0.56344  0.81777  1.0000
  H   H6094     1.0  0.68036  0.68274  0.98303  1.0000
  C   C3439     1.0  0.94772  0.56827  0.81829  1.0000
  C   C3440     1.0  0.94670  0.57357  0.78641  1.0000
  H   H6095     1.0  0.89029  0.52294  0.81675  1.0000
  H   H6096     1.0  0.89532  0.51126  0.78254  1.0000
  C   C3441     1.0  0.67116  0.50693  0.87737  1.0000
  H   H6097     1.0  0.70351  0.53447  0.89575  1.0000
  H   H6098     1.0  0.69874  0.54384  0.91434  1.0000
  H   H6099     1.0  0.67878  0.66754  0.87140  1.0000
  S   S765      1.0  0.98289  0.54712  0.75727  1.0000
  H   H6100     1.0  0.84127  0.50027  0.93430  1.0000
  H   H6101     1.0  0.71432  0.50670  0.94662  1.0000
  Fe  Fe382     1.0  0.97229  0.52484  0.77587  1.0000
  H   H6102     1.0  0.71298  0.59507  0.95567  1.0000
  H   H6103     1.0  0.67756  0.59245  0.86759  1.0000
  H   H6104     1.0  0.68233  0.54680  0.90241  1.0000
  C   C3442     1.0  0.83114  0.51599  0.97549  1.0000
  C   C3443     1.0  0.66089  0.69414  0.81803  1.0000
  C   C3444     1.0  0.67685  0.60506  0.90374  1.0000
  H   H6105     1.0  0.93959  0.56309  0.78967  1.0000
  C   C3445     1.0  0.83169  0.54488  0.94230  1.0000
  H   H6106     1.0  0.86952  0.54768  0.80408  1.0000
  C   C3446     1.0  0.94556  0.56547  0.84932  1.0000
  C   C3447     1.0  0.69624  0.54601  0.90117  1.0000
  N   N191      1.0  0.90581  0.49141  0.80312  1.0000
  H   H6107     1.0  0.95161  0.59479  0.85322  1.0000
  H   H6108     1.0  0.67259  0.63944  0.90667  1.0000
  H   H6109     1.0  0.92305  0.49976  0.81312  1.0000
  H   H6110     1.0  0.68046  0.62415  0.92496  1.0000
  H   H6111     1.0  0.74113  0.49004  0.96750  1.0000
  S   S766      1.0  0.98985  0.51987  0.79414  1.0000
  C   C3448     1.0  0.69687  0.51401  0.81357  1.0000
  H   H6112     1.0  0.98035  0.56066  0.84044  1.0000
  H   H6113     1.0  0.69443  0.63696  0.90877  1.0000
  C   C3449     1.0  0.87868  0.49491  0.98216  1.0000
  S   S767      1.0  0.89965  0.49020  0.88872  1.0000
  H   H6114     1.0  0.96515  0.58088  0.79525  1.0000
  C   C3450     1.0  0.66496  0.66927  0.87113  1.0000
  H   H6115     1.0  0.68586  0.76984  0.96468  1.0000
  H   H6116     1.0  0.97432  0.58676  0.84522  1.0000
  Fe  Fe383     1.0  0.72623  0.54541  0.97879  1.0000
  H   H6117     1.0  0.67274  0.70763  0.91297  1.0000
  H   H6118     1.0  0.97565  0.61479  0.82357  1.0000
  N   N192      1.0  0.82762  0.53487  0.97600  1.0000
  H   H6119     1.0  0.94211  0.48976  0.79030  1.0000
  H   H6120     1.0  0.66723  0.73793  0.89553  1.0000
  H   H6121     1.0  0.67816  0.54446  0.82216  1.0000
  H   H6122     1.0  0.66576  0.50990  0.81131  1.0000
  C   C3451     1.0  0.80445  0.49083  0.90127  1.0000
  H   H6123     1.0  0.68922  0.72623  0.88927  1.0000
  H   H6124     1.0  0.96769  0.61781  0.84554  1.0000
  H   H6125     1.0  0.88030  0.49012  0.80150  1.0000
  H   H6126     1.0  0.77860  0.56095  0.96548  1.0000
  H   H6127     1.0  0.67146  0.57144  0.94662  1.0000
  C   C3452     1.0  0.88512  0.51002  0.97552  1.0000
  H   H6128     1.0  0.68374  0.49847  0.87994  1.0000
  H   H6129     1.0  0.66498  0.61482  0.90101  1.0000
  H   H6130     1.0  0.82012  0.50467  0.91606  1.0000
  S   S768      1.0  0.75444  0.49303  0.86781  1.0000
  H   H6131     1.0  0.66888  0.49258  0.86032  1.0000
  H   H6132     1.0  0.66433  0.60596  0.96836  1.0000
  H   H6133     1.0  0.79367  0.48918  0.88036  1.0000
  C   C3453     1.0  0.66657  0.70624  0.82297  1.0000
  H   H6134     1.0  0.67578  0.66348  0.95416  1.0000
  H   H6135     1.0  0.90389  0.49612  0.82837  1.0000
  C   C3454     1.0  0.66446  0.56709  0.96024  1.0000
  C   C3455     1.0  0.78702  0.49241  0.91461  1.0000
  H   H6136     1.0  0.69017  0.58376  0.97660  1.0000
  H   H6137     1.0  0.66115  0.81151  0.87567  1.0000
  Fe  Fe384     1.0  0.87937  0.49033  0.87510  1.0000
  H   H6138     1.0  0.66882  0.53174  0.96126  1.0000
  H   H6139     1.0  0.66554  0.68622  0.95267  1.0000
  H   H6140     1.0  0.66069  0.50218  0.88792  1.0000
  C   C3456     1.0  0.87597  0.48641  0.97080  1.0000
  H   H6141     1.0  0.65915  0.86437  0.83859  1.0000
  H   H6142     1.0  0.65956  0.81801  0.89530  1.0000
  H   H6143     1.0  0.65818  0.69595  0.87247  1.0000
  H   H6144     1.0  0.68623  0.61936  0.98475  1.0000
