data_image0
_chemical_formula_structural       HFeS2HSFeHC2HSNSHC2H3CFeS2FeCFeSC2SHC6HFeH3C3H4CSCH4SC2FeHSC6H5CSH2SCH4C2H3C2H2C3FeHC2H2FeHCH4SNC2H4CH6CH2SH14CH3SH3C2HC2H7FeNC7HCH2CHCH5CH7CSC4HNCSH4CHCHC2H3NH4C2HSHC2H3CHSHC2H2CHC2HCFeHCHCH3CH4CH5FeHFeC3H5CSCHCH3CHCSCH5FeH2FeSH2CHC3HSCH5CH3C2HSC2H3CH4C3SC2HCHCHCH8CH4NHC2H2CHSCSH2CH2CH3CH3NHCHCH2CH2C2SCHCHCH3CH2C3H4CH3CNFeC2HCH3CH5CH2SCH2CH10C2H7CSH3CH4C2H3NS2FeHSHSC2HCH3FeH3FeHCHC2H2SH2C3H2CFeHCH3SFeHS2H4C4H4C3HFeCSHC2H5FeCHCFeCH2SHC2H2CH2C3HSH4CH2C2SHSC2H4C4H3CH2C2H3NFeS2FeS2FeSFeS3FeS2FeS2FeSFeS3C2H2C3H3CH3CNFeHSCH5SCHSH9CH2C2H6CHCH3CHCH3CH2C6H4CHC2HSHC6H4CHNC2HCH4CH2C2H3CHC2H2CH3C6H5CH2CHCHCHC2HCH3CH9NC11H25C2HCH2CHC5H7CH2CH2CHNCH3CH3CHSH3C2H5CH3CH6NH2CHCH6NCHC2HCH2CHCH7CHC2H7CHC2SC3H3CHCHCH3CH5CFeS2FeS2FeCFeS3CSHFeS2FeSFeS3HC2HNH6CH2C2H4CHNHCH2C2H4C2H2SH2C6H6CH2C6H4C6H5CSCH3C3S2H7SCHNC8HC2H32FeHFeH2C3H2C3H3CHCH5FeC2H2CHCH3C2H2CH4CHNHCH6CHCHC2HCHC3H3SCHC4H2CH8NCH5C2H6CHCHCH4C2H2CH2CFeHCSH4CH2NHC2H3NCSH7CHCH4CH3CHSH2CH9C2FeHCHSH2CHSC3FeHC2HCHCHCSH2C2H4C3HC3H2C2H3C2H3CH2NCH2SCHC2H3CSC2H3CH2CHCH2SHCH2C2HCHC2H3SH3CFeHC2H5CHC2SC3H2SCHCH5CSH3C2H2CH2CHCFeS4H2SH2CFeS2H3SH5FeS2FeSFeSFeS3HFeSH3CFeHSHSC2H2CH5CH5SC3H3C7H4C6H5NH2CHFeC2H5CH2CHSHC2HCHC2H7CHC2H2SNCH3CH2FeCSH3C2H5C2HCH11CH5NH3CHCH3CH3C2H4NH4CHC2HCH2CHSH3C2H3CHC3H2C2NCH2C8HCH7C2H2SH10CH2SHCHCHCHCH2CNC2H4CFeNC12H6C3H4CH3CHFeCH2C3H2C2HCH2CH6FeCH2CH4C3HCH4CHFeH2CHCS2CSH2CHSCH4SCHCHC2HFeH4NCHCH4C4HCHNHSCHFeH4CHSH4C3HCH5SHC2HC2H3FeHCHCHCH3C2H3SFeH2FeHSH6CHC2HCNH5CH2CSC2HCHCFeS2FeS2FeSFeS3FeS2FeHSFeHFeHS2H2SHFeSCHC3HC2H3CH2C2HCH3C2H2CH4C6H4C6H2NHC6H4C3H2CHC3H16CHCHNC7H15C2H5SC2H9CHCH6CS2H6CH4SHCSH3SC2HCNC12H25CSCFeCHCFeH2FeHCHCH2CH4C2HCHSHCH4CHC3HC4HC2H3FeCHC2HCFeH3CH3C4HCHSH5CH2CH2NHC3H2C3NCH2CH3CHCHC2H2CHCH3C3H9CSHC2SH5CH2CH2NCHCHSH6SCHC3NCSHC3HC3H4CH7CHCHCH6CHCHSH2SCNSC4H2CH7SHCH5CH2CHFeH2CS2FeC2NH5SH3CHCHFeH2CH3CH3C2HC2SCH2SH9C3H4CH3CH3C3H9C2HCHC2H2SH2CHCH5CFeS3H5SHSFeS2H6C6H4C2H2CHC3H3FeHSCHCH2CFeC2HFeHSH7C2H5CHCHSCHCHSNCSC3HCHC2H5CH5CH9CHC3H4NHC3H2C3H2CH5SH3CHCH7C3Fe2H2NH2CHCH2C2FeHCHSCH2SC3HCH3SHC4H2CSC2HCH6CH4SH2CH3CHSH2C4HFeNC7H17SHCH2CNC8H2CH3CH4CH4NH2FeC3HC2H5SNFeC3HC4H7CHSH5SHC3FeHCH2CHSHSC2HSHC2H4C2HCHNHCH3CHCH2CHCHSH2CH11NH4CH2Fe2H2Fe2S2HFeSFeSFeSFeS2H2S3HSCFeS2FeSCSHCHSCH3C3H2FeS2FeS2FeCFeS3FeCSCHNC2SHCH3SH4C2HCHSC6H3CH2CHC6H4CH4C7H8FeHSH3C6H4C5H4CNCHC6H2C2H8SH3CH3CHC3H5FeH3CHFeHFeC2H5CHC4HCHCH4C2H6CH2CSH3CH2CHCH3NC12H27NHCHCH2CHNC12H18SH9NC12H18CH7CH2CHFeC4NH2C5H5CSH2CH2CH2CHFeH6C2S2CHCH3NHCFeCHCHC3HCH4CSC2HC2HC2HCHSNH9C2H7CHSH4SH2CH7CH3CFeCH2FeHCSH2SH3CFeCHNHSC3H4SH2CHCSCH2SH2CH3C3H5CHCHC2H10CFeC2H3C2HC2HC2HCH2FeHSFeS2FeHC2S2FeS2FeS2FeSFeS3NHSC2HCHCHC10H4C6H4C4H3C6H4C6H5C2HCH8C3HCH3SH3C2H2CHCHSCH3CHC2H2CH8CH3CH6CH2SCH3CH5SHCHCH5C2NC9H21CH2CH6NC12H22CH5NSC4H3CH3SHCH4C2HC2H8NC5HC3FeH4CH4C2H11FeH3CHCH2CHCH2C2H2C2H5NSHNC2HC2HSH2SH3NH3SH3CH3C2HCHCH2CH2NHSH5C2HCNHCHC2H2CH4CH4CH5CH6SH5C2HFeH3CH3CH2CH3CH7SCH4FeH4C2HCFeS2FeS2FeSFeS3CH5FeSC2SCS2CHCHCFeHSHCFeH3NSHFe2CSFeH2SFeSFeSFeHSH2C4SH4C7H4C6H3CH3CH2FeC3HCHCH2CH2C6H4C3H2CH4C6H4C6H4C3H2CSH4NC9HC2H17CHSH7SH4SHSC2SHC2SCH2CH5C2HCH2C3H4S2H9C5H15CSCHCHC3H3CH2NH3CHSHSH3FeSFeH3NCHC2SCH4CH2C2NCH2C2HCH3CH5CH10C3FeSH2C2HC3HCHFeSCSH4FeH2CHSH4C3FeC2HFeSH4CH2C4H3NH2CH3SC4H5NH5CH4CH2C2HCHCHCH7CHC2HFeNH2CHS2H2CH5FeC2H4CHC2H2CH2CHSH3FeCSFeC2H4SH3SHC2H7SHCH2CH2C3HCHSHCSH2CNCHCHC2HCH3C2H8CH3CHCHSCHCHCHCH3CHCH4C2HNH3CH2CHCH2CH3C2H3CHC2HCNH2C2H2NHCH2CHCH2C2H9C4H8FeCNCHSFeS2FeSFeHS2C2Fe2CHSHCHC2H2SHCHCHCH3C7H4SC4H4CH3CFeH6CHSH9CH2SHCH2SHC3HSH3CH5C2HCHCH2SHNH2CH3NH3CH4C2H3C3H2SCHCH3CH2CH3CH3CH4CH6C2HC2HCHCH4CHCHCH2SH2NH7FeCSHC5HCHCH2CH2CHCHCH3CH3C2HCH2CNC12H17C3H4C2HCHC3H2CHCHCHCH5C2HFeHSH2SHC3H4NCH3CH4SCHC2H2CH6CH8C2H5FeCH4CH2NH2CH2CH7FeSFeS2H3CSHFeS2HFeS3HFe2HC2HC4H2C6H7CFeHCH2FeH2CHSCFeH4C6H2SC2HCFeH2C2H3SH4C3HCHSH7CHCH2CSH3C2S2HCHC3HSHC2HS2C2HSFe2CHCHS3FeHFeC2HCH2CH2CH4CHSCHSNHCHCHC2HCHCH3CH3CHSH4NHC3HCFeH6CH2FeHCSHCH3C3HCH8CHCHCH2C2H2C4H2CFeH4C2H5SHC2H2CSCHS2CH6CH2CH4SC2HSH2CH4CH3C2SC2H2CH2CH4C2HC6H2SCH2CH3C7H5C2H2CHSH3C2H4CH2FeHC2H5NCNHNHCH5FeC2FeHFeH5CH2CH2C2SHNHSC2H4C2H2FeS2H2CHFeH3FeSH2CFeCH2FeS2FeSHFeSFeS3C6H11SHC7H6SH2CH3NH2FeH2CHC2SCH2C6H4FeHCHCH5CFeH4CHC2HCHSH5CH2CHCH2CHSCSH4C2HCH3CH2C3HSHC2FeC2H2NC8H18CHCH4C2HCH2C2HCSH4CH2CHFeHC3FeCHSHCHC3HCHNHSC3HSHCHSH14SH4SC2HC2H2S2HCH3SC2HFeHC2HC3H2FeH3CH2CHFeCH8NC2H3SH3C2HCFeHC4H7SCH2CHCHNHCHCH3SH2SH4CH3SCH11CH3CH3CH2C4H8C2HC2HC2HC2H5C2H4CFeH3C2H2NHCH2C3HCHSHSH3NH2C4H4C3HCHC2H2SH3CH3FeCHCH5CH3C4H
_chemical_formula_sum              "H3328 Fe208 S416 C1872 N104"
_cell_length_a       59.4467
_cell_length_b       60.2911
_cell_length_c       64.5948
_cell_angle_alpha    76.4639
_cell_angle_beta     76.5717
_cell_angle_gamma    79.7614

_space_group_name_H-M_alt    "P 1"
_space_group_IT_number       1

loop_
  _space_group_symop_operation_xyz
  'x, y, z'

loop_
  _atom_site_type_symbol
  _atom_site_label
  _atom_site_symmetry_multiplicity
  _atom_site_fract_x
  _atom_site_fract_y
  _atom_site_fract_z
  _atom_site_occupancy
  H   H1        1.0  0.00421  0.36204  0.15820  1.0000
  Fe  Fe1       1.0  0.10550  0.31993  0.17969  1.0000
  S   S1        1.0  0.08342  0.34310  0.20118  1.0000
  S   S2        1.0  0.11989  0.33846  0.14587  1.0000
  H   H2        1.0  0.19715  0.36793  0.05586  1.0000
  S   S3        1.0  0.07989  0.29443  0.18784  1.0000
  Fe  Fe2       1.0  0.22885  0.46648  0.18651  1.0000
  H   H3        1.0  0.11269  0.26516  0.00772  1.0000
  C   C1        1.0  0.01455  0.30669  0.16286  1.0000
  C   C2        1.0  0.13238  0.44993  0.19136  1.0000
  H   H4        1.0  0.11356  0.46789  0.15429  1.0000
  S   S4        1.0  0.00868  0.13333  0.21252  1.0000
  N   N1        1.0  0.16181  0.38416  0.05531  1.0000
  S   S5        1.0  0.20883  0.44805  0.08501  1.0000
  H   H5        1.0  0.06373  0.17159  0.23128  1.0000
  C   C3        1.0  0.14561  0.40494  0.06143  1.0000
  C   C4        1.0  0.23368  0.47739  0.13335  1.0000
  H   H6        1.0  0.00051  0.29421  0.05063  1.0000
  H   H7        1.0  0.99557  0.39756  0.09386  1.0000
  H   H8        1.0  0.07242  0.46253  0.15886  1.0000
  C   C5        1.0  0.09957  0.46541  0.04778  1.0000
  Fe  Fe3       1.0  0.05808  0.34691  0.05367  1.0000
  S   S6        1.0  0.04881  0.38454  0.05446  1.0000
  S   S7        1.0  0.07069  0.31668  0.07776  1.0000
  Fe  Fe4       1.0  0.04689  0.35206  0.00927  1.0000
  C   C6        1.0  0.14439  0.43364  0.17559  1.0000
  Fe  Fe5       1.0  0.06770  0.39001  0.01979  1.0000
  S   S8        1.0  0.09223  0.41657  0.00578  1.0000
  C   C7        1.0  0.03993  0.22776  0.22387  1.0000
  C   C8        1.0  0.03744  0.36699  0.13784  1.0000
  S   S9        1.0  0.07988  0.35249  0.02027  1.0000
  H   H9        1.0  0.03517  0.44260  0.01324  1.0000
  C   C9        1.0  0.02116  0.43369  0.08800  1.0000
  C   C10       1.0  0.00204  0.02904  0.20374  1.0000
  C   C11       1.0  0.11500  0.44542  0.01789  1.0000
  C   C12       1.0  0.09506  0.43435  0.02290  1.0000
  C   C13       1.0  0.07730  0.43879  0.04047  1.0000
  C   C14       1.0  0.07960  0.45427  0.05292  1.0000
  H   H10       1.0  0.43264  0.00745  0.14000  1.0000
  Fe  Fe6       1.0  0.18785  0.47666  0.06592  1.0000
  H   H11       1.0  0.06159  0.43079  0.04414  1.0000
  H   H12       1.0  0.22005  0.33896  0.20990  1.0000
  H   H13       1.0  0.02196  0.31956  0.08543  1.0000
  C   C15       1.0  0.23510  0.45357  0.13553  1.0000
  C   C16       1.0  0.22906  0.44452  0.11976  1.0000
  C   C17       1.0  0.22041  0.45930  0.10239  1.0000
  H   H14       1.0  0.10806  0.42875  0.08487  1.0000
  H   H15       1.0  0.17008  0.39344  0.24010  1.0000
  H   H16       1.0  0.24091  0.44209  0.14932  1.0000
  H   H17       1.0  0.23027  0.42610  0.12148  1.0000
  C   C18       1.0  0.18486  0.38224  0.06201  1.0000
  S   S10       1.0  0.23259  0.47387  0.21789  1.0000
  C   C19       1.0  0.00841  0.31964  0.19669  1.0000
  H   H18       1.0  0.04940  0.38658  0.15674  1.0000
  H   H19       1.0  0.15194  0.42114  0.05128  1.0000
  H   H20       1.0  0.13244  0.36475  0.06384  1.0000
  H   H21       1.0  0.01773  0.43920  0.99506  1.0000
  S   S11       1.0  0.02565  0.34458  0.04278  1.0000
  C   C20       1.0  0.25546  0.38349  0.15961  1.0000
  C   C21       1.0  0.05956  0.23803  0.22293  1.0000
  Fe  Fe7       1.0  0.01841  0.38260  0.04012  1.0000
  H   H22       1.0  0.14914  0.27306  0.99393  1.0000
  S   S12       1.0  0.19764  0.39459  0.19619  1.0000
  C   C22       1.0  0.10571  0.33268  0.12717  1.0000
  C   C23       1.0  0.10012  0.31060  0.12933  1.0000
  C   C24       1.0  0.08922  0.30589  0.11410  1.0000
  C   C25       1.0  0.08367  0.32332  0.09683  1.0000
  C   C26       1.0  0.08894  0.34553  0.09477  1.0000
  C   C27       1.0  0.10008  0.35017  0.10991  1.0000
  H   H23       1.0  0.10476  0.29701  0.14243  1.0000
  H   H24       1.0  0.08524  0.28870  0.11562  1.0000
  H   H25       1.0  0.08467  0.35901  0.08144  1.0000
  H   H26       1.0  0.10400  0.36734  0.10848  1.0000
  H   H27       1.0  0.00881  0.39114  0.15064  1.0000
  C   C28       1.0  0.11704  0.46114  0.03002  1.0000
  S   S13       1.0  0.07595  0.29671  0.23912  1.0000
  H   H28       1.0  0.02646  0.30204  0.14868  1.0000
  H   H29       1.0  0.04133  0.31632  0.17465  1.0000
  S   S14       1.0  0.04058  0.07054  0.23219  1.0000
  C   C29       1.0  0.15459  0.42395  0.13952  1.0000
  H   H30       1.0  0.14178  0.36530  0.02656  1.0000
  H   H31       1.0  0.46618  0.47795  0.22668  1.0000
  H   H32       1.0  0.23280  0.38543  0.05205  1.0000
  H   H33       1.0  0.03612  0.25830  0.07521  1.0000
  C   C30       1.0  0.02723  0.45144  0.99900  1.0000
  C   C31       1.0  0.22633  0.34167  0.22391  1.0000
  H   H34       1.0  0.29656  0.47237  0.15783  1.0000
  H   H35       1.0  0.25605  0.31565  0.20134  1.0000
  H   H36       1.0  0.23365  0.35819  0.17813  1.0000
  C   C32       1.0  0.16511  0.36645  0.20096  1.0000
  C   C33       1.0  0.16133  0.46162  0.14315  1.0000
  H   H37       1.0  0.99961  0.21054  0.15055  1.0000
  H   H38       1.0  0.40683  0.99767  0.13700  1.0000
  C   C34       1.0  0.05001  0.36839  0.15555  1.0000
  C   C35       1.0  0.14646  0.35436  0.21228  1.0000
  C   C36       1.0  0.08084  0.22449  0.22494  1.0000
  Fe  Fe8       1.0  0.09845  0.27665  0.21484  1.0000
  H   H39       1.0  0.02944  0.00139  0.21017  1.0000
  C   C37       1.0  0.29891  0.47253  0.17436  1.0000
  C   C38       1.0  0.17363  0.38060  0.21090  1.0000
  H   H40       1.0  0.99896  0.08278  0.21354  1.0000
  H   H41       1.0  0.10784  0.28584  0.03850  1.0000
  Fe  Fe9       1.0  0.05922  0.31633  0.21134  1.0000
  H   H42       1.0  0.11434  0.45696  0.18924  1.0000
  C   C39       1.0  0.25166  0.36162  0.17694  1.0000
  H   H43       1.0  0.28230  0.32741  0.19839  1.0000
  H   H44       1.0  0.18280  0.37742  0.08002  1.0000
  H   H45       1.0  0.20009  0.40957  0.03598  1.0000
  H   H46       1.0  0.17092  0.40418  0.02272  1.0000
  S   S15       1.0  0.03683  0.39021  0.00524  1.0000
  N   N2        1.0  0.99693  0.37897  0.12655  1.0000
  C   C40       1.0  0.18889  0.39529  0.12671  1.0000
  C   C41       1.0  0.07865  0.44789  0.15036  1.0000
  H   H47       1.0  0.10006  0.42932  0.17299  1.0000
  H   H48       1.0  0.26323  0.48007  0.01200  1.0000
  H   H49       1.0  0.27113  0.27476  0.21344  1.0000
  H   H50       1.0  0.40793  0.00519  0.16232  1.0000
  C   C42       1.0  0.41818  0.99721  0.14859  1.0000
  H   H51       1.0  0.26394  0.34735  0.17086  1.0000
  H   H52       1.0  0.27328  0.38796  0.15763  1.0000
  H   H53       1.0  0.29225  0.45708  0.18568  1.0000
  H   H54       1.0  0.10684  0.42092  0.14706  1.0000
  H   H55       1.0  0.13998  0.34359  0.20439  1.0000
  H   H56       1.0  0.99337  0.32176  0.10208  1.0000
  C   C43       1.0  0.14571  0.38330  0.02143  1.0000
  H   H57       1.0  0.14418  0.31839  0.08945  1.0000
  H   H58       1.0  0.00711  0.24628  0.13290  1.0000
  S   S16       1.0  0.16872  0.47017  0.04250  1.0000
  H   H59       1.0  0.31775  0.47152  0.17434  1.0000
  H   H60       1.0  0.17303  0.36462  0.18449  1.0000
  H   H61       1.0  0.18007  0.33539  0.06835  1.0000
  H   H62       1.0  0.01042  0.24835  0.09370  1.0000
  H   H63       1.0  0.14270  0.46424  0.18893  1.0000
  H   H64       1.0  0.01812  0.41912  0.12197  1.0000
  H   H65       1.0  0.07989  0.45433  0.13258  1.0000
  H   H66       1.0  0.22485  0.30511  0.23777  1.0000
  H   H67       1.0  0.19145  0.42360  0.14072  1.0000
  H   H68       1.0  0.29186  0.26750  0.23114  1.0000
  H   H69       1.0  0.12816  0.40527  0.05773  1.0000
  H   H70       1.0  0.13330  0.39196  0.09654  1.0000
  H   H71       1.0  0.14822  0.36074  0.08475  1.0000
  H   H72       1.0  0.08736  0.26547  0.04381  1.0000
  C   C44       1.0  0.02610  0.05493  0.22051  1.0000
  H   H73       1.0  0.03759  0.20040  0.16900  1.0000
  H   H74       1.0  0.15778  0.40762  0.09057  1.0000
  H   H75       1.0  0.07782  0.29574  0.03606  1.0000
  S   S17       1.0  0.02017  0.32630  0.21665  1.0000
  H   H76       1.0  0.17767  0.40058  0.15921  1.0000
  H   H77       1.0  0.22017  0.39448  0.07762  1.0000
  H   H78       1.0  0.15922  0.30372  0.06784  1.0000
  C   C45       1.0  0.00562  0.06501  0.21299  1.0000
  C   C46       1.0  0.02272  0.01908  0.21091  1.0000
  H   H79       1.0  0.03229  0.34776  0.10514  1.0000
  C   C47       1.0  0.14915  0.32019  0.07150  1.0000
  C   C48       1.0  0.15046  0.36291  0.06684  1.0000
  H   H80       1.0  0.02002  0.20526  0.12672  1.0000
  H   H81       1.0  0.08289  0.27571  0.00561  1.0000
  H   H82       1.0  0.20628  0.38645  0.12957  1.0000
  H   H83       1.0  0.16908  0.34040  0.04377  1.0000
  H   H84       1.0  0.12092  0.42874  0.10738  1.0000
  H   H85       1.0  0.14885  0.43101  0.21828  1.0000
  H   H86       1.0  0.12975  0.39458  0.02700  1.0000
  Fe  Fe10      1.0  0.20861  0.42229  0.20816  1.0000
  N   N3        1.0  0.03543  0.23545  0.15074  1.0000
  C   C49       1.0  0.02494  0.24998  0.13203  1.0000
  C   C50       1.0  0.02159  0.24195  0.17169  1.0000
  C   C51       1.0  0.05981  0.24155  0.14752  1.0000
  C   C52       1.0  0.03684  0.20988  0.15207  1.0000
  C   C53       1.0  0.13104  0.43734  0.21499  1.0000
  C   C54       1.0  0.03949  0.24837  0.10902  1.0000
  C   C55       1.0  0.07248  0.23185  0.16682  1.0000
  H   H87       1.0  0.13298  0.44399  0.08077  1.0000
  C   C56       1.0  0.22166  0.39936  0.05972  1.0000
  H   H88       1.0  0.99476  0.34251  0.13559  1.0000
  H   H89       1.0  0.02266  0.26845  0.13304  1.0000
  C   C57       1.0  0.09835  0.23476  0.16027  1.0000
  H   H90       1.0  0.18752  0.41854  0.06126  1.0000
  C   C58       1.0  0.16625  0.38671  0.03091  1.0000
  H   H91       1.0  0.02914  0.23150  0.18556  1.0000
  H   H92       1.0  0.02293  0.26017  0.17149  1.0000
  H   H93       1.0  0.05949  0.26063  0.14398  1.0000
  H   H94       1.0  0.07127  0.23550  0.13311  1.0000
  H   H95       1.0  0.05346  0.20321  0.14205  1.0000
  C   C59       1.0  0.14134  0.40679  0.08567  1.0000
  H   H96       1.0  0.23029  0.41521  0.05374  1.0000
  H   H97       1.0  0.19101  0.40520  0.10974  1.0000
  H   H98       1.0  0.05446  0.25838  0.10532  1.0000
  H   H99       1.0  0.04653  0.23031  0.10779  1.0000
  H   H100      1.0  0.07089  0.21333  0.17339  1.0000
  H   H101      1.0  0.06483  0.24163  0.17988  1.0000
  H   H102      1.0  0.13303  0.32340  0.06473  1.0000
  C   C60       1.0  0.17899  0.41135  0.14269  1.0000
  S   S18       1.0  0.24509  0.43003  0.19341  1.0000
  C   C61       1.0  0.10604  0.30264  0.99454  1.0000
  C   C62       1.0  0.12481  0.42842  0.08983  1.0000
  C   C63       1.0  0.26087  0.34855  0.23639  1.0000
  C   C64       1.0  0.02320  0.31427  0.17789  1.0000
  H   H103      1.0  0.25325  0.38085  0.14379  1.0000
  N   N4        1.0  0.25205  0.34394  0.21785  1.0000
  C   C65       1.0  0.16397  0.33979  0.06149  1.0000
  S   S19       1.0  0.19214  0.45859  0.19886  1.0000
  H   H104      1.0  0.10659  0.22848  0.17473  1.0000
  H   H105      1.0  0.10740  0.22469  0.14767  1.0000
  H   H106      1.0  0.10057  0.25321  0.15400  1.0000
  H   H107      1.0  0.17720  0.38207  0.12897  1.0000
  C   C66       1.0  0.10231  0.43584  0.15518  1.0000
  H   H108      1.0  0.13616  0.41746  0.18085  1.0000
  C   C67       1.0  0.00651  0.39550  0.10627  1.0000
  H   H109      1.0  0.27992  0.34988  0.23134  1.0000
  C   C68       1.0  0.01448  0.34789  0.10268  1.0000
  C   C69       1.0  0.12103  0.45262  0.14700  1.0000
  H   H110      1.0  0.12230  0.45886  0.12913  1.0000
  H   H111      1.0  0.24244  0.39812  0.16406  1.0000
  H   H112      1.0  0.17599  0.45778  0.15208  1.0000
  N   N5        1.0  0.14504  0.44327  0.15171  1.0000
  H   H113      1.0  0.15533  0.43055  0.12177  1.0000
  H   H114      1.0  0.14317  0.41014  0.14459  1.0000
  H   H115      1.0  0.17002  0.46152  0.12588  1.0000
  H   H116      1.0  0.16243  0.42837  0.17864  1.0000
  C   C70       1.0  0.01709  0.20173  0.14472  1.0000
  C   C71       1.0  0.09263  0.28190  0.03339  1.0000
  H   H117      1.0  0.09018  0.31537  0.99710  1.0000
  S   S20       1.0  0.12646  0.30000  0.20447  1.0000
  H   H118      1.0  0.25262  0.38624  0.23249  1.0000
  C   C72       1.0  0.19755  0.40400  0.05387  1.0000
  C   C73       1.0  0.00835  0.41991  0.10908  1.0000
  H   H119      1.0  0.99430  0.32655  0.01983  1.0000
  H   H120      1.0  0.05088  0.02429  0.22439  1.0000
  H   H121      1.0  0.04194  0.35861  0.17159  1.0000
  C   C74       1.0  0.09875  0.27982  0.00952  1.0000
  H   H122      1.0  0.06856  0.36091  0.15163  1.0000
  S   S21       1.0  0.01662  0.19257  0.22481  1.0000
  H   H123      1.0  0.02163  0.45137  0.09006  1.0000
  C   C75       1.0  0.01187  0.32362  0.10103  1.0000
  C   C76       1.0  0.03483  0.03206  0.21907  1.0000
  H   H124      1.0  0.06564  0.43552  0.15612  1.0000
  H   H125      1.0  0.23800  0.47872  0.00167  1.0000
  C   C77       1.0  0.28498  0.28120  0.21851  1.0000
  H   H126      1.0  0.29946  0.28481  0.20432  1.0000
  C   C78       1.0  0.04136  0.20386  0.22650  1.0000
  C   C79       1.0  0.20100  0.45936  0.99113  1.0000
  H   H127      1.0  0.18166  0.37462  0.02513  1.0000
  C   C80       1.0  0.26613  0.32276  0.21028  1.0000
  Fe  Fe11      1.0  0.01013  0.15535  0.23574  1.0000
  H   H128      1.0  0.01761  0.27664  0.09243  1.0000
  C   C81       1.0  0.25559  0.36435  0.19919  1.0000
  H   H129      1.0  0.03940  0.42538  0.08378  1.0000
  C   C82       1.0  0.01103  0.37526  0.14402  1.0000
  H   H130      1.0  0.20318  0.45980  0.00714  1.0000
  H   H131      1.0  0.99781  0.30583  0.99523  1.0000
  H   H132      1.0  0.28937  0.30803  0.23336  1.0000
  C   C83       1.0  0.27510  0.30286  0.22776  1.0000
  H   H133      1.0  0.12873  0.44228  0.00423  1.0000
  H   H134      1.0  0.99374  0.21986  0.18232  1.0000
  H   H135      1.0  0.06587  0.45772  0.06648  1.0000
  H   H136      1.0  0.02418  0.38850  0.09862  1.0000
  C   C84       1.0  0.13660  0.35581  0.23385  1.0000
  H   H137      1.0  0.27359  0.36890  0.19644  1.0000
  H   H138      1.0  0.04016  0.34870  0.13632  1.0000
  H   H139      1.0  0.01283  0.35939  0.08686  1.0000
  H   H140      1.0  0.24366  0.37979  0.20327  1.0000
  H   H141      1.0  0.12227  0.44928  0.22604  1.0000
  Fe  Fe12      1.0  0.24600  0.43644  0.22586  1.0000
  H   H142      1.0  0.04600  0.37744  0.12250  1.0000
  Fe  Fe13      1.0  0.19741  0.46227  0.23113  1.0000
  C   C85       1.0  0.01642  0.17589  0.15291  1.0000
  C   C86       1.0  0.06246  0.19008  0.22922  1.0000
  C   C87       1.0  0.99529  0.35638  0.12095  1.0000
  H   H143      1.0  0.01889  0.31083  0.11406  1.0000
  H   H144      1.0  0.12103  0.42249  0.21867  1.0000
  H   H145      1.0  0.20894  0.42247  0.99570  1.0000
  H   H146      1.0  0.09868  0.18986  0.23008  1.0000
  H   H147      1.0  0.00269  0.17040  0.14686  1.0000
  C   C88       1.0  0.02495  0.25853  0.09156  1.0000
  S   S22       1.0  0.10562  0.23773  0.22278  1.0000
  C   C89       1.0  0.15139  0.38888  0.99658  1.0000
  H   H148      1.0  0.05831  0.25656  0.22018  1.0000
  C   C90       1.0  0.99549  0.23849  0.17811  1.0000
  H   H149      1.0  0.01037  0.27643  0.23255  1.0000
  H   H150      1.0  0.11919  0.30827  0.00133  1.0000
  H   H151      1.0  0.02372  0.23854  0.22181  1.0000
  C   C91       1.0  0.08221  0.20043  0.22845  1.0000
  H   H152      1.0  0.18422  0.32416  0.23540  1.0000
  C   C92       1.0  0.16346  0.38263  0.23230  1.0000
  S   S23       1.0  0.27990  0.42481  0.23721  1.0000
  C   C93       1.0  0.99375  0.05216  0.20447  1.0000
  H   H153      1.0  0.01219  0.17178  0.17097  1.0000
  H   H154      1.0  0.01215  0.43490  0.07441  1.0000
  H   H155      1.0  0.21597  0.35802  0.22759  1.0000
  H   H156      1.0  0.01436  0.46623  0.00335  1.0000
  H   H157      1.0  0.06523  0.47029  0.99881  1.0000
  Fe  Fe14      1.0  0.10236  0.32157  0.22664  1.0000
  H   H158      1.0  0.13177  0.47061  0.02500  1.0000
  H   H159      1.0  0.03347  0.16605  0.14711  1.0000
  Fe  Fe15      1.0  0.01810  0.10341  0.23851  1.0000
  S   S24       1.0  0.04397  0.32575  0.99077  1.0000
  H   H160      1.0  0.44455  0.42350  0.40270  1.0000
  H   H161      1.0  0.08822  0.02805  0.34872  1.0000
  C   C94       1.0  0.30852  0.44506  0.25285  1.0000
  H   H162      1.0  0.48042  0.44770  0.46399  1.0000
  C   C95       1.0  0.28555  0.44406  0.25146  1.0000
  C   C96       1.0  0.99581  0.27602  0.24692  1.0000
  C   C97       1.0  0.01747  0.18116  0.28867  1.0000
  H   H163      1.0  0.00301  0.06837  0.39484  1.0000
  S   S25       1.0  0.02342  0.12567  0.26024  1.0000
  C   C98       1.0  0.01680  0.01610  0.31167  1.0000
  H   H164      1.0  0.00767  0.20046  0.31400  1.0000
  H   H165      1.0  0.45848  0.41843  0.34436  1.0000
  H   H166      1.0  0.29914  0.46364  0.36805  1.0000
  H   H167      1.0  0.01311  0.99737  0.25568  1.0000
  H   H168      1.0  0.24985  0.38843  0.27035  1.0000
  C   C99       1.0  0.24901  0.37058  0.24507  1.0000
  H   H169      1.0  0.02153  0.18387  0.27068  1.0000
  H   H170      1.0  0.24943  0.45755  0.26075  1.0000
  H   H171      1.0  0.33096  0.46139  0.26491  1.0000
  C   C100      1.0  0.48519  0.46731  0.32941  1.0000
  C   C101      1.0  0.46254  0.43513  0.34612  1.0000
  H   H172      1.0  0.02428  0.27690  0.27321  1.0000
  S   S26       1.0  0.36945  0.47084  0.28705  1.0000
  C   C102      1.0  0.27184  0.47352  0.27311  1.0000
  C   C103      1.0  0.99615  0.03992  0.47863  1.0000
  H   H173      1.0  0.99650  0.99196  0.28324  1.0000
  H   H174      1.0  0.01214  0.04051  0.42533  1.0000
  H   H175      1.0  0.25916  0.33405  0.25057  1.0000
  C   C104      1.0  0.03490  0.07840  0.39738  1.0000
  H   H176      1.0  0.01869  0.01230  0.32884  1.0000
  H   H177      1.0  0.05580  0.00685  0.33032  1.0000
  H   H178      1.0  0.04169  0.21659  0.27102  1.0000
  H   H179      1.0  0.06895  0.98873  0.40639  1.0000
  C   C105      1.0  0.02459  0.25882  0.27174  1.0000
  C   C106      1.0  0.31319  0.46055  0.26406  1.0000
  C   C107      1.0  0.08653  0.98597  0.41046  1.0000
  S   S27       1.0  0.39394  0.47299  0.33997  1.0000
  C   C108      1.0  0.29482  0.47473  0.27429  1.0000
  C   C109      1.0  0.01312  0.06142  0.35065  1.0000
  H   H180      1.0  0.07879  0.06264  0.29934  1.0000
  C   C110      1.0  0.07590  0.24054  0.27765  1.0000
  H   H181      1.0  0.34805  0.47207  0.36945  1.0000
  C   C111      1.0  0.03415  0.21740  0.28838  1.0000
  H   H182      1.0  0.07397  0.24924  0.26101  1.0000
  C   C112      1.0  0.05386  0.24709  0.29456  1.0000
  H   H183      1.0  0.13734  0.37133  0.26050  1.0000
  H   H184      1.0  0.48020  0.42207  0.37417  1.0000
  H   H185      1.0  0.44164  0.46421  0.27162  1.0000
  H   H186      1.0  0.08414  0.99801  0.35484  1.0000
  H   H187      1.0  0.11299  0.24298  0.26930  1.0000
  H   H188      1.0  0.04569  0.06151  0.39622  1.0000
  H   H189      1.0  0.99540  0.25723  0.35221  1.0000
  H   H190      1.0  0.09839  0.99632  0.31576  1.0000
  C   C113      1.0  0.01297  0.24494  0.31179  1.0000
  H   H191      1.0  0.18699  0.30862  0.26232  1.0000
  H   H192      1.0  0.01471  0.04103  0.47086  1.0000
  H   H193      1.0  0.22988  0.37064  0.25034  1.0000
  H   H194      1.0  0.44315  0.40549  0.38445  1.0000
  N   N6        1.0  0.48329  0.44275  0.32909  1.0000
  H   H195      1.0  0.10238  0.02628  0.30952  1.0000
  C   C114      1.0  0.99232  0.09471  0.45379  1.0000
  C   C115      1.0  0.47983  0.44061  0.30729  1.0000
  H   H196      1.0  0.05322  0.26580  0.29397  1.0000
  H   H197      1.0  0.99456  0.12343  0.46783  1.0000
  C   C116      1.0  0.26722  0.45841  0.26152  1.0000
  H   H198      1.0  0.45788  0.47397  0.29926  1.0000
  S   S28       1.0  0.16929  0.47969  0.25409  1.0000
  C   C117      1.0  0.00841  0.26917  0.31755  1.0000
  S   S29       1.0  0.21097  0.42493  0.24165  1.0000
  H   H199      1.0  0.99706  0.21411  0.28974  1.0000
  H   H200      1.0  0.03048  0.04816  0.30397  1.0000
  C   C118      1.0  0.03457  0.03221  0.29730  1.0000
  H   H201      1.0  0.00208  0.28245  0.30437  1.0000
  H   H202      1.0  0.10102  0.23871  0.29807  1.0000
  C   C119      1.0  0.09147  0.01328  0.32018  1.0000
  H   H203      1.0  0.09455  0.00211  0.40381  1.0000
  H   H204      1.0  0.05915  0.03629  0.32457  1.0000
  H   H205      1.0  0.01910  0.06070  0.43783  1.0000
  C   C120      1.0  0.09764  0.24767  0.28178  1.0000
  H   H206      1.0  0.03831  0.25694  0.25721  1.0000
  H   H207      1.0  0.00316  0.10237  0.43820  1.0000
  H   H208      1.0  0.46467  0.45070  0.37293  1.0000
  N   N7        1.0  0.06003  0.02274  0.29621  1.0000
  H   H209      1.0  0.07252  0.00725  0.25432  1.0000
  C   C121      1.0  0.07292  0.06350  0.28406  1.0000
  H   H210      1.0  0.03655  0.08927  0.38077  1.0000
  C   C122      1.0  0.02419  0.07688  0.33312  1.0000
  H   H211      1.0  0.22538  0.32188  0.25754  1.0000
  H   H212      1.0  0.08251  0.08052  0.25012  1.0000
  C   C123      1.0  0.48242  0.46412  0.45201  1.0000
  H   H213      1.0  0.08433  0.99312  0.28851  1.0000
  H   H214      1.0  0.07501  0.99425  0.44205  1.0000
  C   C124      1.0  0.45719  0.45311  0.27683  1.0000
  C   C125      1.0  0.09431  0.01131  0.34351  1.0000
  S   S30       1.0  0.11449  0.33909  0.24852  1.0000
  C   C126      1.0  0.05973  0.99872  0.26794  1.0000
  H   H215      1.0  0.03043  0.03788  0.28075  1.0000
  C   C127      1.0  0.00932  0.07520  0.40665  1.0000
  H   H216      1.0  0.02441  0.27395  0.32049  1.0000
  C   C128      1.0  0.99622  0.99301  0.26594  1.0000
  H   H217      1.0  0.06902  0.04192  0.26338  1.0000
  H   H218      1.0  0.05480  0.07246  0.28534  1.0000
  H   H219      1.0  0.04214  0.00760  0.26635  1.0000
  C   C129      1.0  0.00160  0.25660  0.26558  1.0000
  H   H220      1.0  0.04712  0.20649  0.29775  1.0000
  H   H221      1.0  0.42678  0.43399  0.38243  1.0000
  C   C130      1.0  0.07447  0.03916  0.27926  1.0000
  C   C131      1.0  0.14498  0.37013  0.24381  1.0000
  C   C132      1.0  0.33005  0.45215  0.34665  1.0000
  H   H222      1.0  0.09563  0.26658  0.28058  1.0000
  H   H223      1.0  0.29142  0.47818  0.40745  1.0000
  H   H224      1.0  0.04161  0.08697  0.40774  1.0000
  H   H225      1.0  0.18501  0.33949  0.25616  1.0000
  C   C133      1.0  0.45799  0.45550  0.29962  1.0000
  H   H226      1.0  0.45584  0.43505  0.27656  1.0000
  H   H227      1.0  0.26134  0.29823  0.24219  1.0000
  H   H228      1.0  0.04301  0.07542  0.32907  1.0000
  C   C134      1.0  0.32923  0.47257  0.37729  1.0000
  N   N8        1.0  0.03093  0.24202  0.29149  1.0000
  Fe  Fe16      1.0  0.01140  0.00839  0.38201  1.0000
  C   C135      1.0  0.08823  0.07849  0.26575  1.0000
  C   C136      1.0  0.06548  0.02015  0.31838  1.0000
  H   H229      1.0  0.34713  0.45770  0.33772  1.0000
  C   C137      1.0  0.44337  0.42348  0.38580  1.0000
  H   H230      1.0  0.44658  0.44738  0.34365  1.0000
  H   H231      1.0  0.00361  0.24031  0.25985  1.0000
  H   H232      1.0  0.01822  0.23228  0.32601  1.0000
  C   C138      1.0  0.01246  0.20422  0.29596  1.0000
  H   H233      1.0  0.48144  0.46161  0.43577  1.0000
  H   H234      1.0  0.32019  0.45057  0.33451  1.0000
  H   H235      1.0  0.42732  0.47399  0.36581  1.0000
  H   H236      1.0  0.09314  0.03162  0.27620  1.0000
  H   H237      1.0  0.01956  0.10560  0.30672  1.0000
  C   C139      1.0  0.46434  0.43336  0.37003  1.0000
  H   H238      1.0  0.07934  0.22174  0.27815  1.0000
  H   H239      1.0  0.32804  0.45676  0.39033  1.0000
  S   S31       1.0  0.03000  0.03910  0.36542  1.0000
  C   C140      1.0  0.21869  0.32184  0.24292  1.0000
  H   H240      1.0  0.33308  0.43503  0.35735  1.0000
  H   H241      1.0  0.46783  0.47803  0.33026  1.0000
  C   C141      1.0  0.31619  0.46979  0.35996  1.0000
  H   H242      1.0  0.99911  0.09231  0.40770  1.0000
  H   H243      1.0  0.36550  0.46803  0.39888  1.0000
  H   H244      1.0  0.25445  0.35751  0.27832  1.0000
  H   H245      1.0  0.08668  0.09585  0.26946  1.0000
  H   H246      1.0  0.08696  0.98758  0.47333  1.0000
  H   H247      1.0  0.03239  0.17017  0.29513  1.0000
  H   H248      1.0  0.10681  0.07075  0.26398  1.0000
  H   H249      1.0  0.11298  0.00625  0.34457  1.0000
  H   H250      1.0  0.05724  0.23798  0.31090  1.0000
  H   H251      1.0  0.32694  0.47737  0.41906  1.0000
  C   C142      1.0  0.00628  0.05811  0.42890  1.0000
  C   C143      1.0  0.01093  0.09395  0.32043  1.0000
  H   H252      1.0  0.00190  0.17189  0.29472  1.0000
  H   H253      1.0  0.44168  0.44999  0.31046  1.0000
  H   H254      1.0  0.00438  0.08318  0.46352  1.0000
  H   H255      1.0  0.47305  0.45861  0.26513  1.0000
  H   H256      1.0  0.47799  0.42251  0.30751  1.0000
  H   H257      1.0  0.04948  0.00870  0.48871  1.0000
  H   H258      1.0  0.46774  0.47728  0.45692  1.0000
  C   C144      1.0  0.25832  0.37232  0.26472  1.0000
  S   S32       1.0  0.01454  0.99026  0.41587  1.0000
  H   H259      1.0  0.05660  0.98636  0.30302  1.0000
  H   H260      1.0  0.48894  0.33601  0.31407  1.0000
  H   H261      1.0  0.27745  0.37292  0.26029  1.0000
  C   C145      1.0  0.06542  0.99947  0.28998  1.0000
  H   H262      1.0  0.32274  0.43400  0.24508  1.0000
  H   H263      1.0  0.01905  0.99968  0.30607  1.0000
  H   H264      1.0  0.99255  0.29291  0.25194  1.0000
  H   H265      1.0  0.99579  0.24095  0.31085  1.0000
  C   C146      1.0  0.19212  0.32370  0.24952  1.0000
  C   C147      1.0  0.99180  0.02740  0.31112  1.0000
  H   H266      1.0  0.49103  0.39525  0.34856  1.0000
  H   H267      1.0  0.49074  0.46805  0.34453  1.0000
  H   H268      1.0  0.00173  0.00253  0.48933  1.0000
  N   N9        1.0  0.14672  0.99002  0.71062  1.0000
  S   S33       1.0  0.02528  0.39882  0.71006  1.0000
  S   S34       1.0  0.06151  0.05059  0.66230  1.0000
  Fe  Fe17      1.0  0.00753  0.38287  0.69115  1.0000
  H   H269      1.0  0.03483  0.07998  0.69046  1.0000
  S   S35       1.0  0.07174  0.99812  0.69156  1.0000
  H   H270      1.0  0.99322  0.01295  0.66620  1.0000
  S   S36       1.0  0.02611  0.35055  0.67954  1.0000
  C   C148      1.0  0.01137  0.32608  0.68925  1.0000
  C   C149      1.0  0.04734  0.09236  0.73491  1.0000
  H   H271      1.0  0.00674  0.01868  0.50774  1.0000
  C   C150      1.0  0.99544  0.01818  0.49640  1.0000
  H   H272      1.0  0.01595  0.31522  0.73514  1.0000
  H   H273      1.0  0.99319  0.24606  0.67499  1.0000
  H   H274      1.0  0.15888  0.03156  0.64827  1.0000
  Fe  Fe18      1.0  0.03763  0.99202  0.68585  1.0000
  H   H275      1.0  0.17496  0.00754  0.71254  1.0000
  H   H276      1.0  0.15868  0.01227  0.61350  1.0000
  H   H277      1.0  0.09880  0.31252  0.70757  1.0000
  Fe  Fe19      1.0  0.02774  0.04008  0.66037  1.0000
  H   H278      1.0  0.11855  0.38461  0.70443  1.0000
  C   C151      1.0  0.03070  0.11393  0.69718  1.0000
  H   H279      1.0  0.13983  0.35403  0.71679  1.0000
  C   C152      1.0  0.12903  0.99967  0.72839  1.0000
  C   C153      1.0  0.05419  0.45429  0.73632  1.0000
  H   H280      1.0  0.19503  0.98804  0.62143  1.0000
  H   H281      1.0  0.07063  0.24765  0.70188  1.0000
  S   S37       1.0  0.99605  0.06152  0.64953  1.0000
  H   H282      1.0  0.16256  0.03199  0.68558  1.0000
  H   H283      1.0  0.12504  0.00237  0.68648  1.0000
  C   C154      1.0  0.16636  0.42344  0.71019  1.0000
  C   C155      1.0  0.05698  0.00221  0.59360  1.0000
  C   C156      1.0  0.04572  0.07910  0.72020  1.0000
  H   H284      1.0  0.05392  0.31368  0.71073  1.0000
  H   H285      1.0  0.07956  0.42960  0.67692  1.0000
  C   C157      1.0  0.17834  0.98281  0.63018  1.0000
  Fe  Fe20      1.0  0.01925  0.18078  0.72877  1.0000
  H   H286      1.0  0.06870  0.35936  0.69783  1.0000
  C   C158      1.0  0.15772  0.99656  0.62571  1.0000
  H   H287      1.0  0.17775  0.42597  0.69377  1.0000
  H   H288      1.0  0.99757  0.21517  0.67902  1.0000
  H   H289      1.0  0.09926  0.35262  0.68650  1.0000
  S   S38       1.0  0.01870  0.02460  0.69563  1.0000
  Fe  Fe21      1.0  0.05324  0.03283  0.69730  1.0000
  H   H290      1.0  0.13110  0.03842  0.69322  1.0000
  S   S39       1.0  0.03536  0.46130  0.67856  1.0000
  S   S40       1.0  0.03312  0.21483  0.72202  1.0000
  H   H291      1.0  0.10165  0.24039  0.70018  1.0000
  H   H292      1.0  0.99829  0.40992  0.59826  1.0000
  H   H293      1.0  0.00407  0.06185  0.58644  1.0000
  H   H294      1.0  0.09124  0.33334  0.72471  1.0000
  C   C159      1.0  0.14725  0.40922  0.71076  1.0000
  C   C160      1.0  0.06277  0.27420  0.73363  1.0000
  C   C161      1.0  0.14427  0.03966  0.65940  1.0000
  C   C162      1.0  0.04918  0.46453  0.69889  1.0000
  H   H295      1.0  0.42030  0.98524  0.73302  1.0000
  H   H296      1.0  0.10083  0.26392  0.72671  1.0000
  H   H297      1.0  0.07793  0.33860  0.68039  1.0000
  H   H298      1.0  0.03941  0.00152  0.60428  1.0000
  C   C163      1.0  0.06858  0.47664  0.69343  1.0000
  C   C164      1.0  0.06061  0.99728  0.49958  1.0000
  C   C165      1.0  0.08114  0.47705  0.70936  1.0000
  H   H299      1.0  0.15857  0.36151  0.73188  1.0000
  Fe  Fe22      1.0  0.01268  0.43274  0.69083  1.0000
  C   C166      1.0  0.03681  0.08996  0.70162  1.0000
  S   S41       1.0  0.04486  0.00706  0.65030  1.0000
  H   H300      1.0  0.09785  0.42758  0.70790  1.0000
  C   C167      1.0  0.07423  0.46539  0.73077  1.0000
  C   C168      1.0  0.02394  0.30407  0.68903  1.0000
  H   H301      1.0  0.16261  0.31956  0.73329  1.0000
  H   H302      1.0  0.08204  0.23068  0.72521  1.0000
  H   H303      1.0  0.13756  0.41861  0.69787  1.0000
  H   H304      1.0  0.15571  0.39265  0.70637  1.0000
  H   H305      1.0  0.04236  0.30228  0.68190  1.0000
  Fe  Fe23      1.0  0.99591  0.22965  0.73270  1.0000
  C   C169      1.0  0.13056  0.40608  0.73332  1.0000
  H   H306      1.0  0.02270  0.26739  0.69858  1.0000
  C   C170      1.0  0.03281  0.12730  0.71153  1.0000
  Fe  Fe24      1.0  0.07776  0.01524  0.65630  1.0000
  C   C171      1.0  0.08255  0.34536  0.69324  1.0000
  H   H307      1.0  0.08053  0.39886  0.68244  1.0000
  H   H308      1.0  0.10732  0.41192  0.67351  1.0000
  S   S42       1.0  0.11079  0.00935  0.63144  1.0000
  H   H309      1.0  0.02441  0.12216  0.68244  1.0000
  C   C172      1.0  0.09019  0.41235  0.70725  1.0000
  C   C173      1.0  0.21517  0.98083  0.70122  1.0000
  H   H310      1.0  0.12742  0.03748  0.65595  1.0000
  H   H311      1.0  0.21771  0.99904  0.69944  1.0000
  C   C174      1.0  0.08944  0.41309  0.68359  1.0000
  H   H312      1.0  0.19080  0.98859  0.68000  1.0000
  H   H313      1.0  0.14551  0.05836  0.65615  1.0000
  C   C175      1.0  0.14561  0.02903  0.68306  1.0000
  C   C176      1.0  0.14293  0.00314  0.68848  1.0000
  C   C177      1.0  0.04175  0.45383  0.72049  1.0000
  H   H314      1.0  0.15853  0.44065  0.71377  1.0000
  S   S43       1.0  0.99854  0.41665  0.66921  1.0000
  H   H315      1.0  0.17728  0.41452  0.72226  1.0000
  H   H316      1.0  0.06729  0.01200  0.59978  1.0000
  H   H317      1.0  0.11207  0.00605  0.72302  1.0000
  H   H318      1.0  0.01407  0.98582  0.73066  1.0000
  C   C178      1.0  0.10394  0.38960  0.71730  1.0000
  H   H319      1.0  0.02673  0.44463  0.72494  1.0000
  H   H320      1.0  0.15464  0.99493  0.67552  1.0000
  C   C179      1.0  0.08509  0.32611  0.71301  1.0000
  C   C180      1.0  0.13595  0.99058  0.63735  1.0000
  S   S44       1.0  0.05479  0.04905  0.72513  1.0000
  H   H321      1.0  0.14327  0.03264  0.72403  1.0000
  S   S45       1.0  0.02534  0.15745  0.70467  1.0000
  C   C181      1.0  0.01285  0.28432  0.69845  1.0000
  C   C182      1.0  0.06148  0.31677  0.72382  1.0000
  H   H322      1.0  0.05476  0.01142  0.57703  1.0000
  H   H323      1.0  0.07192  0.41370  0.71649  1.0000
  H   H324      1.0  0.09214  0.37614  0.72092  1.0000
  H   H325      1.0  0.08891  0.28074  0.70358  1.0000
  C   C183      1.0  0.08489  0.24513  0.71102  1.0000
  C   C184      1.0  0.04078  0.11641  0.73065  1.0000
  C   C185      1.0  0.99478  0.41875  0.61218  1.0000
  C   C186      1.0  0.08584  0.26717  0.71842  1.0000
  H   H326      1.0  0.12200  0.42377  0.73493  1.0000
  H   H327      1.0  0.23469  0.47812  0.71874  1.0000
  H   H328      1.0  0.01158  0.42280  0.61416  1.0000
  C   C187      1.0  0.13579  0.01898  0.73714  1.0000
  H   H329      1.0  0.07168  0.00786  0.50386  1.0000
  H   H330      1.0  0.04962  0.33167  0.72935  1.0000
  C   C188      1.0  0.17128  0.98993  0.71344  1.0000
  C   C189      1.0  0.14273  0.35350  0.73323  1.0000
  H   H331      1.0  0.04882  0.27614  0.72424  1.0000
  H   H332      1.0  0.04936  0.98931  0.51481  1.0000
  H   H333      1.0  0.25434  0.46735  0.69631  1.0000
  N   N10       1.0  0.11245  0.39001  0.73747  1.0000
  Fe  Fe25      1.0  0.19491  0.41101  0.88094  1.0000
  S   S46       1.0  0.18000  0.43759  0.90133  1.0000
  S   S47       1.0  0.21964  0.41966  0.84935  1.0000
  Fe  Fe26      1.0  0.17201  0.37316  0.91347  1.0000
  S   S48       1.0  0.15477  0.39604  0.93686  1.0000
  S   S49       1.0  0.17348  0.33491  0.92241  1.0000
  Fe  Fe27      1.0  0.14706  0.42191  0.90723  1.0000
  S   S50       1.0  0.09177  0.46105  0.75035  1.0000
  Fe  Fe28      1.0  0.18907  0.40964  0.92901  1.0000
  S   S51       1.0  0.20623  0.41076  0.95623  1.0000
  S   S52       1.0  0.16118  0.39755  0.88442  1.0000
  S   S53       1.0  0.20699  0.38465  0.90788  1.0000
  Fe  Fe29      1.0  0.09786  0.29567  0.86203  1.0000
  S   S54       1.0  0.08689  0.33332  0.85143  1.0000
  S   S55       1.0  0.13354  0.28189  0.86878  1.0000
  Fe  Fe30      1.0  0.05286  0.28221  0.85711  1.0000
  S   S56       1.0  0.03770  0.31882  0.84683  1.0000
  S   S57       1.0  0.03268  0.25441  0.85615  1.0000
  Fe  Fe31      1.0  0.07327  0.32263  0.82644  1.0000
  S   S58       1.0  0.07932  0.33984  0.79155  1.0000
  Fe  Fe32      1.0  0.05256  0.32598  0.87317  1.0000
  S   S59       1.0  0.03472  0.35326  0.89241  1.0000
  S   S60       1.0  0.08741  0.28560  0.83475  1.0000
  S   S61       1.0  0.06452  0.28864  0.88572  1.0000
  C   C190      1.0  0.17806  0.27037  0.96740  1.0000
  C   C191      1.0  0.12156  0.36571  0.74720  1.0000
  H   H334      1.0  0.25709  0.44988  0.95985  1.0000
  H   H335      1.0  0.19653  0.45735  0.93269  1.0000
  C   C192      1.0  0.30313  0.41382  0.85137  1.0000
  C   C193      1.0  0.08133  0.29434  0.75374  1.0000
  C   C194      1.0  0.05816  0.47817  0.98384  1.0000
  H   H336      1.0  0.09312  0.45467  0.95801  1.0000
  H   H337      1.0  0.12712  0.36502  0.76262  1.0000
  H   H338      1.0  0.28270  0.45086  0.77967  1.0000
  C   C195      1.0  0.07670  0.46380  0.80942  1.0000
  H   H339      1.0  0.34767  0.40800  0.85865  1.0000
  H   H340      1.0  0.00709  0.06489  0.75472  1.0000
  H   H341      1.0  0.07978  0.31038  0.75996  1.0000
  C   C196      1.0  0.24571  0.45958  0.87760  1.0000
  N   N11       1.0  0.32298  0.42707  0.83846  1.0000
  Fe  Fe33      1.0  0.03372  0.20631  0.75782  1.0000
  H   H342      1.0  0.32912  0.41488  0.80824  1.0000
  S   S62       1.0  0.06337  0.21092  0.77209  1.0000
  C   C197      1.0  0.12069  0.47452  0.84350  1.0000
  H   H343      1.0  0.06416  0.44022  0.89282  1.0000
  H   H344      1.0  0.10226  0.46135  0.97953  1.0000
  H   H345      1.0  0.08838  0.44841  0.80488  1.0000
  H   H346      1.0  0.31191  0.40856  0.88403  1.0000
  H   H347      1.0  0.13467  0.34795  0.95724  1.0000
  S   S63       1.0  0.02291  0.17110  0.76365  1.0000
  C   C198      1.0  0.04522  0.41733  0.88249  1.0000
  H   H348      1.0  0.12122  0.26889  0.76862  1.0000
  S   S64       1.0  0.11271  0.44488  0.90763  1.0000
  H   H349      1.0  0.02065  0.01186  0.76893  1.0000
  H   H350      1.0  0.09845  0.29330  0.74243  1.0000
  H   H351      1.0  0.28653  0.42555  0.81438  1.0000
  H   H352      1.0  0.36791  0.44119  0.83477  1.0000
  H   H353      1.0  0.17932  0.45655  0.83696  1.0000
  H   H354      1.0  0.13182  0.47167  0.82835  1.0000
  H   H355      1.0  0.36896  0.42940  0.81134  1.0000
  H   H356      1.0  0.01013  0.98821  0.79991  1.0000
  H   H357      1.0  0.15406  0.40723  0.99044  1.0000
  C   C199      1.0  0.06635  0.42249  0.89010  1.0000
  H   H358      1.0  0.13287  0.34729  0.90244  1.0000
  H   H359      1.0  0.30933  0.43140  0.77593  1.0000
  C   C200      1.0  0.28262  0.39111  0.88701  1.0000
  C   C201      1.0  0.02987  0.47126  0.87653  1.0000
  H   H360      1.0  0.30042  0.40119  0.84231  1.0000
  H   H361      1.0  0.00030  0.39686  0.97573  1.0000
  H   H362      1.0  0.10134  0.03915  0.74136  1.0000
  H   H363      1.0  0.28920  0.45434  0.81538  1.0000
  H   H364      1.0  0.34447  0.47833  0.85793  1.0000
  H   H365      1.0  0.03025  0.41675  0.89656  1.0000
  C   C202      1.0  0.29803  0.43931  0.80836  1.0000
  H   H366      1.0  0.31015  0.46102  0.77697  1.0000
  C   C203      1.0  0.32229  0.43100  0.81456  1.0000
  H   H367      1.0  0.22837  0.39181  0.77845  1.0000
  H   H368      1.0  0.06968  0.44937  0.85264  1.0000
  H   H369      1.0  0.08381  0.29030  0.96829  1.0000
  C   C204      1.0  0.00229  0.05536  0.77170  1.0000
  H   H370      1.0  0.07806  0.27053  0.93907  1.0000
  C   C205      1.0  0.00548  0.01702  0.76083  1.0000
  H   H371      1.0  0.47371  0.98276  0.76582  1.0000
  H   H372      1.0  0.00135  0.38266  0.80838  1.0000
  H   H373      1.0  0.02754  0.17521  0.83610  1.0000
  C   C206      1.0  0.30577  0.39916  0.87410  1.0000
  H   H374      1.0  0.23028  0.42817  0.88768  1.0000
  H   H375      1.0  0.12007  0.04355  0.75789  1.0000
  C   C207      1.0  0.04278  0.24405  0.83188  1.0000
  C   C208      1.0  0.03019  0.25126  0.81515  1.0000
  C   C209      1.0  0.03586  0.24053  0.79718  1.0000
  C   C210      1.0  0.05511  0.22351  0.79518  1.0000
  C   C211      1.0  0.06858  0.21725  0.81130  1.0000
  C   C212      1.0  0.06219  0.22719  0.82981  1.0000
  H   H376      1.0  0.00732  0.21322  0.84151  1.0000
  H   H377      1.0  0.02584  0.24599  0.78452  1.0000
  H   H378      1.0  0.08366  0.20429  0.80973  1.0000
  H   H379      1.0  0.07210  0.22161  0.84262  1.0000
  C   C213      1.0  0.05236  0.35369  0.78593  1.0000
  H   H380      1.0  0.05514  0.40849  0.92468  1.0000
  C   C214      1.0  0.01415  0.37465  0.79655  1.0000
  C   C215      1.0  0.03541  0.36303  0.80169  1.0000
  H   H381      1.0  0.24177  0.46364  0.78002  1.0000
  S   S65       1.0  0.20083  0.46678  0.76255  1.0000
  H   H382      1.0  0.03907  0.36228  0.81747  1.0000
  C   C216      1.0  0.03664  0.34573  0.91994  1.0000
  C   C217      1.0  0.03352  0.36292  0.93207  1.0000
  C   C218      1.0  0.03629  0.35714  0.95378  1.0000
  C   C219      1.0  0.04104  0.33405  0.96361  1.0000
  C   C220      1.0  0.04312  0.31686  0.95176  1.0000
  C   C221      1.0  0.04125  0.32270  0.92991  1.0000
  H   H383      1.0  0.02927  0.38069  0.92457  1.0000
  H   H384      1.0  0.03458  0.37045  0.96293  1.0000
  H   H385      1.0  0.04609  0.29893  0.95950  1.0000
  H   H386      1.0  0.04282  0.30931  0.92096  1.0000
  C   C222      1.0  0.23382  0.44095  0.85317  1.0000
  H   H387      1.0  0.10726  0.35476  0.75143  1.0000
  N   N12       1.0  0.99451  0.99651  0.76015  1.0000
  C   C223      1.0  0.39053  0.40951  0.83316  1.0000
  C   C224      1.0  0.21472  0.40511  0.78472  1.0000
  H   H388      1.0  0.14904  0.01150  0.74737  1.0000
  C   C225      1.0  0.36806  0.42511  0.82915  1.0000
  H   H389      1.0  0.05925  0.39960  0.79182  1.0000
  H   H390      1.0  0.01029  0.10633  0.77385  1.0000
  H   H391      1.0  0.01032  0.37790  0.85290  1.0000
  H   H392      1.0  0.04649  0.99202  0.74249  1.0000
  C   C226      1.0  0.10577  0.27266  0.78135  1.0000
  H   H393      1.0  0.03254  0.46428  0.89338  1.0000
  H   H394      1.0  0.27492  0.46824  0.97645  1.0000
  C   C227      1.0  0.07423  0.40881  0.79049  1.0000
  C   C228      1.0  0.12360  0.45916  0.86306  1.0000
  H   H395      1.0  0.33261  0.46134  0.83255  1.0000
  H   H396      1.0  0.14894  0.31083  0.96977  1.0000
  H   H397      1.0  0.13702  0.44448  0.86293  1.0000
  C   C229      1.0  0.20229  0.43747  0.96371  1.0000
  H   H398      1.0  0.14425  0.25987  0.97315  1.0000
  C   C230      1.0  0.14024  0.45715  0.94881  1.0000
  C   C231      1.0  0.00457  0.40844  0.86710  1.0000
  H   H399      1.0  0.10667  0.01747  0.76498  1.0000
  H   H400      1.0  0.14711  0.29975  0.94743  1.0000
  C   C232      1.0  0.04784  0.35544  0.76536  1.0000
  H   H401      1.0  0.31858  0.38356  0.87215  1.0000
  H   H402      1.0  0.03822  0.31307  0.76617  1.0000
  H   H403      1.0  0.01238  0.46213  0.85419  1.0000
  C   C233      1.0  0.16297  0.32192  0.90571  1.0000
  C   C234      1.0  0.17461  0.30079  0.90125  1.0000
  C   C235      1.0  0.16564  0.28895  0.88947  1.0000
  C   C236      1.0  0.14461  0.29784  0.88264  1.0000
  C   C237      1.0  0.13282  0.31898  0.88718  1.0000
  C   C238      1.0  0.14219  0.33121  0.89849  1.0000
  H   H404      1.0  0.19055  0.29348  0.90705  1.0000
  H   H405      1.0  0.17471  0.27256  0.88608  1.0000
  H   H406      1.0  0.11629  0.32565  0.88243  1.0000
  H   H407      1.0  0.08854  0.33008  0.95973  1.0000
  H   H408      1.0  0.10743  0.26841  0.97194  1.0000
  C   C239      1.0  0.32287  0.45045  0.86767  1.0000
  H   H409      1.0  0.01832  0.19127  0.81163  1.0000
  H   H410      1.0  0.16736  0.37785  0.99022  1.0000
  C   C240      1.0  0.11591  0.34701  0.96438  1.0000
  H   H411      1.0  0.34789  0.39655  0.83600  1.0000
  C   C241      1.0  0.26865  0.45165  0.94350  1.0000
  H   H412      1.0  0.26966  0.47496  0.91210  1.0000
  C   C242      1.0  0.09735  0.26746  0.93402  1.0000
  H   H413      1.0  0.03903  0.40478  0.84653  1.0000
  C   C243      1.0  0.23602  0.44159  0.87411  1.0000
  C   C244      1.0  0.34623  0.41316  0.84135  1.0000
  H   H414      1.0  0.06955  0.42720  0.78346  1.0000
  C   C245      1.0  0.01206  0.18268  0.82872  1.0000
  H   H415      1.0  0.08602  0.40885  0.91585  1.0000
  H   H416      1.0  0.24719  0.45999  0.89383  1.0000
  H   H417      1.0  0.00829  0.39840  0.88291  1.0000
  C   C246      1.0  0.05412  0.45695  0.82450  1.0000
  H   H418      1.0  0.99517  0.32266  0.77155  1.0000
  H   H419      1.0  0.01990  0.42972  0.83777  1.0000
  H   H420      1.0  0.00587  0.44712  0.88133  1.0000
  H   H421      1.0  0.04637  0.47660  0.86608  1.0000
  H   H422      1.0  0.10551  0.37352  0.93781  1.0000
  H   H423      1.0  0.30275  0.45995  0.84267  1.0000
  H   H424      1.0  0.99389  0.32636  0.97059  1.0000
  H   H425      1.0  0.07274  0.38774  0.90914  1.0000
  H   H426      1.0  0.06700  0.47970  0.93854  1.0000
  N   N13       1.0  0.17325  0.36475  0.82714  1.0000
  C   C247      1.0  0.18918  0.37445  0.80636  1.0000
  C   C248      1.0  0.16707  0.34225  0.82502  1.0000
  C   C249      1.0  0.15183  0.38213  0.83078  1.0000
  C   C250      1.0  0.18489  0.36039  0.84637  1.0000
  C   C251      1.0  0.20787  0.34350  0.84520  1.0000
  C   C252      1.0  0.20104  0.39518  0.80710  1.0000
  C   C253      1.0  0.13178  0.37389  0.84965  1.0000
  C   C254      1.0  0.15131  0.34404  0.80842  1.0000
  C   C255      1.0  0.14478  0.32049  0.80891  1.0000
  C   C256      1.0  0.21985  0.34332  0.86379  1.0000
  C   C257      1.0  0.10977  0.39122  0.84933  1.0000
  H   H427      1.0  0.17937  0.38019  0.79290  1.0000
  H   H428      1.0  0.20321  0.36090  0.80099  1.0000
  H   H429      1.0  0.18316  0.33056  0.82003  1.0000
  H   H430      1.0  0.15866  0.33269  0.84112  1.0000
  H   H431      1.0  0.14472  0.38853  0.81564  1.0000
  H   H432      1.0  0.15637  0.39774  0.83445  1.0000
  H   H433      1.0  0.18838  0.37686  0.84919  1.0000
  H   H434      1.0  0.17303  0.35309  0.86150  1.0000
  H   H435      1.0  0.22040  0.34824  0.82978  1.0000
  H   H436      1.0  0.20415  0.32572  0.84664  1.0000
  H   H437      1.0  0.39193  0.39330  0.82730  1.0000
  H   H438      1.0  0.21358  0.38981  0.81824  1.0000
  H   H439      1.0  0.13678  0.37191  0.86551  1.0000
  H   H440      1.0  0.12711  0.35725  0.84877  1.0000
  H   H441      1.0  0.13472  0.35548  0.81199  1.0000
  H   H442      1.0  0.16047  0.35081  0.79168  1.0000
  H   H443      1.0  0.13574  0.31296  0.82548  1.0000
  H   H444      1.0  0.13262  0.32230  0.79773  1.0000
  H   H445      1.0  0.16056  0.30850  0.80392  1.0000
  H   H446      1.0  0.22465  0.36062  0.86266  1.0000
  H   H447      1.0  0.20819  0.33821  0.87974  1.0000
  H   H448      1.0  0.23597  0.33076  0.86295  1.0000
  H   H449      1.0  0.11336  0.40834  0.85042  1.0000
  H   H450      1.0  0.10334  0.39275  0.83417  1.0000
  H   H451      1.0  0.09596  0.38517  0.86336  1.0000
  C   C258      1.0  0.08324  0.27401  0.77330  1.0000
  C   C259      1.0  0.18451  0.46459  0.81953  1.0000
  H   H452      1.0  0.01281  0.02567  0.74395  1.0000
  C   C260      1.0  0.24145  0.45826  0.83572  1.0000
  H   H453      1.0  0.10399  0.25018  0.94261  1.0000
  H   H454      1.0  0.08339  0.25732  0.76885  1.0000
  C   C261      1.0  0.32023  0.45035  0.84438  1.0000
  H   H455      1.0  0.07732  0.40743  0.80705  1.0000
  C   C262      1.0  0.26546  0.43216  0.93339  1.0000
  C   C263      1.0  0.32812  0.47376  0.86943  1.0000
  C   C264      1.0  0.19741  0.45791  0.94906  1.0000
  C   C265      1.0  0.11463  0.03040  0.75122  1.0000
  C   C266      1.0  0.03901  0.29822  0.75843  1.0000
  H   H456      1.0  0.24732  0.43403  0.93084  1.0000
  H   H457      1.0  0.04250  0.12658  0.74181  1.0000
  H   H458      1.0  0.27531  0.38184  0.87763  1.0000
  H   H459      1.0  0.99301  0.35426  0.98730  1.0000
  H   H460      1.0  0.03803  0.28304  0.77192  1.0000
  H   H461      1.0  0.24263  0.47634  0.93101  1.0000
  H   H462      1.0  0.11375  0.34522  0.98211  1.0000
  C   C267      1.0  0.10218  0.36998  0.95585  1.0000
  H   H463      1.0  0.06858  0.27628  0.78715  1.0000
  H   H464      1.0  0.15524  0.46211  0.93576  1.0000
  C   C268      1.0  0.25306  0.47708  0.86020  1.0000
  H   H465      1.0  0.39110  0.40535  0.85073  1.0000
  H   H466      1.0  0.33396  0.44391  0.80481  1.0000
  C   C269      1.0  0.09613  0.39845  0.77641  1.0000
  H   H467      1.0  0.14559  0.45379  0.96475  1.0000
  N   N14       1.0  0.03796  0.43299  0.86243  1.0000
  C   C270      1.0  0.02619  0.36585  0.76066  1.0000
  H   H468      1.0  0.26888  0.41534  0.94444  1.0000
  H   H469      1.0  0.33031  0.47307  0.88617  1.0000
  H   H470      1.0  0.28707  0.44905  0.94525  1.0000
  C   C271      1.0  0.00972  0.37637  0.77584  1.0000
  H   H471      1.0  0.28645  0.42573  0.85330  1.0000
  H   H472      1.0  0.12760  0.28278  0.93248  1.0000
  H   H473      1.0  0.10673  0.28909  0.78589  1.0000
  C   C272      1.0  0.99634  0.39230  0.85615  1.0000
  H   H474      1.0  0.08318  0.36978  0.96237  1.0000
  S   S66       1.0  0.13219  0.47155  0.78196  1.0000
  H   H475      1.0  0.06101  0.34857  0.75314  1.0000
  H   H476      1.0  0.10152  0.30276  0.92932  1.0000
  H   H477      1.0  0.10175  0.26771  0.91629  1.0000
  C   C273      1.0  0.14769  0.32811  0.74380  1.0000
  C   C274      1.0  0.07017  0.40586  0.91122  1.0000
  H   H478      1.0  0.04861  0.44532  0.75283  1.0000
  H   H479      1.0  0.20035  0.45404  0.81229  1.0000
  H   H480      1.0  0.05406  0.08410  0.74941  1.0000
  H   H481      1.0  0.30628  0.44690  0.87925  1.0000
  H   H482      1.0  0.07088  0.42514  0.84134  1.0000
  C   C275      1.0  0.02060  0.45317  0.86828  1.0000
  H   H483      1.0  0.18807  0.40930  0.81266  1.0000
  H   H484      1.0  0.08259  0.42019  0.87788  1.0000
  H   H485      1.0  0.10618  0.25858  0.79591  1.0000
  C   C276      1.0  0.01629  0.30101  0.74954  1.0000
  H   H486      1.0  0.10095  0.38090  0.78550  1.0000
  H   H487      1.0  0.02212  0.36550  0.74539  1.0000
  H   H488      1.0  0.23947  0.45797  0.81957  1.0000
  H   H489      1.0  0.01611  0.26520  0.81613  1.0000
  H   H490      1.0  0.11503  0.32830  0.94043  1.0000
  H   H491      1.0  0.05002  0.39926  0.87997  1.0000
  N   N15       1.0  0.06162  0.29573  0.74214  1.0000
  H   H492      1.0  0.18663  0.28406  0.97019  1.0000
  H   H493      1.0  0.40580  0.41846  0.82417  1.0000
  C   C277      1.0  0.10923  0.46302  0.88273  1.0000
  H   H494      1.0  0.20283  0.41198  0.77306  1.0000
  C   C278      1.0  0.05908  0.44053  0.84584  1.0000
  H   H495      1.0  0.10763  0.38410  0.96116  1.0000
  H   H496      1.0  0.33726  0.43766  0.87295  1.0000
  H   H497      1.0  0.17052  0.46458  0.81079  1.0000
  H   H498      1.0  0.28532  0.37931  0.90250  1.0000
  H   H499      1.0  0.27771  0.43212  0.91754  1.0000
  H   H500      1.0  0.26979  0.40604  0.89101  1.0000
  N   N16       1.0  0.11468  0.30289  0.97049  1.0000
  C   C279      1.0  0.10309  0.28635  0.96341  1.0000
  H   H501      1.0  0.04557  0.44871  0.81529  1.0000
  C   C280      1.0  0.10781  0.32677  0.95808  1.0000
  C   C281      1.0  0.14086  0.29785  0.96519  1.0000
  H   H502      1.0  0.22336  0.41953  0.78596  1.0000
  C   C282      1.0  0.10858  0.28617  0.93873  1.0000
  H   H503      1.0  0.08587  0.47288  0.81734  1.0000
  H   H504      1.0  0.41219  0.47223  0.78491  1.0000
  C   C283      1.0  0.30030  0.44604  0.78370  1.0000
  H   H505      1.0  0.11026  0.40890  0.77479  1.0000
  C   C284      1.0  0.02622  0.41908  0.85233  1.0000
  H   H506      1.0  0.13224  0.31914  0.74600  1.0000
  H   H507      1.0  0.07745  0.38718  0.75634  1.0000
  H   H508      1.0  0.08406  0.41563  0.74731  1.0000
  H   H509      1.0  0.03760  0.46596  0.96524  1.0000
  H   H510      1.0  0.01842  0.04903  0.77837  1.0000
  H   H511      1.0  0.00063  0.28704  0.96458  1.0000
  H   H512      1.0  0.00233  0.16853  0.82877  1.0000
  C   C285      1.0  0.09770  0.46918  0.96352  1.0000
  H   H513      1.0  0.05894  0.25932  0.74723  1.0000
  C   C286      1.0  0.19527  0.47980  0.97680  1.0000
  C   C287      1.0  0.25043  0.47668  0.83934  1.0000
  H   H514      1.0  0.00025  0.12795  0.79021  1.0000
  H   H515      1.0  0.30117  0.48023  0.94317  1.0000
  H   H516      1.0  0.18170  0.27057  0.94968  1.0000
  H   H517      1.0  0.04296  0.47302  0.82790  1.0000
  H   H518      1.0  0.07273  0.47560  0.79433  1.0000
  H   H519      1.0  0.18572  0.25344  0.97580  1.0000
  H   H520      1.0  0.15230  0.32639  0.75984  1.0000
  C   C288      1.0  0.15177  0.27407  0.97618  1.0000
  H   H521      1.0  0.13521  0.44117  0.94653  1.0000
  C   C289      1.0  0.99655  0.19998  0.84159  1.0000
  C   C290      1.0  0.12012  0.47663  0.94752  1.0000
  S   S67       1.0  0.99763  0.22374  0.76780  1.0000
  C   C291      1.0  0.99455  0.11603  0.78228  1.0000
  C   C292      1.0  0.09161  0.39790  0.75376  1.0000
  C   C293      1.0  0.26175  0.47539  0.92947  1.0000
  H   H522      1.0  0.99386  0.29204  0.78133  1.0000
  H   H523      1.0  0.14133  0.40073  0.74608  1.0000
  H   H524      1.0  0.12516  0.98584  0.74308  1.0000
  C   C294      1.0  0.99476  0.30620  0.76677  1.0000
  H   H525      1.0  0.48751  0.99240  0.79561  1.0000
  C   C295      1.0  0.19380  0.47909  0.95563  1.0000
  H   H526      1.0  0.44095  0.48052  0.75045  1.0000
  C   C296      1.0  0.20455  0.43825  0.98457  1.0000
  H   H527      1.0  0.13667  0.38575  0.99019  1.0000
  H   H528      1.0  0.01453  0.28487  0.74493  1.0000
  H   H529      1.0  0.05889  0.44413  0.97632  1.0000
  C   C297      1.0  0.04613  0.45941  0.97942  1.0000
  H   H530      1.0  0.11389  0.78846  0.20143  1.0000
  H   H531      1.0  0.13667  0.82743  0.16772  1.0000
  H   H532      1.0  0.22364  0.53642  0.14318  1.0000
  H   H533      1.0  0.43896  0.96563  0.14277  1.0000
  H   H534      1.0  0.35427  0.58021  0.19214  1.0000
  C   C298      1.0  0.47605  0.81730  0.14031  1.0000
  Fe  Fe34      1.0  0.16840  0.65264  0.18316  1.0000
  S   S68       1.0  0.19481  0.63224  0.20223  1.0000
  S   S69       1.0  0.16459  0.69145  0.17644  1.0000
  Fe  Fe35      1.0  0.15963  0.61027  0.16918  1.0000
  S   S70       1.0  0.18608  0.58661  0.18632  1.0000
  S   S71       1.0  0.13611  0.59644  0.15361  1.0000
  Fe  Fe36      1.0  0.17061  0.60540  0.21345  1.0000
  C   C299      1.0  0.41400  0.85748  0.22678  1.0000
  Fe  Fe37      1.0  0.20821  0.61517  0.17375  1.0000
  S   S72       1.0  0.24710  0.60939  0.16331  1.0000
  S   S73       1.0  0.14237  0.62751  0.19724  1.0000
  S   S74       1.0  0.18346  0.63720  0.15362  1.0000
  C   C300      1.0  0.11357  0.57131  0.22851  1.0000
  S   S75       1.0  0.31262  0.72648  0.19897  1.0000
  H   H535      1.0  0.47904  0.84072  0.07170  1.0000
  Fe  Fe38      1.0  0.35228  0.66878  0.19704  1.0000
  S   S76       1.0  0.34736  0.69426  0.16642  1.0000
  S   S77       1.0  0.37413  0.63448  0.19698  1.0000
  Fe  Fe39      1.0  0.35074  0.72034  0.18485  1.0000
  S   S78       1.0  0.37046  0.75069  0.17140  1.0000
  Fe  Fe40      1.0  0.30973  0.69812  0.18308  1.0000
  S   S79       1.0  0.27947  0.70256  0.16664  1.0000
  S   S80       1.0  0.35938  0.69447  0.21399  1.0000
  S   S81       1.0  0.31427  0.67033  0.21210  1.0000
  H   H536      1.0  0.44258  0.83917  0.14710  1.0000
  C   C301      1.0  0.14533  0.74174  0.21141  1.0000
  C   C302      1.0  0.12890  0.73246  0.22915  1.0000
  H   H537      1.0  0.16233  0.61744  0.09141  1.0000
  N   N17       1.0  0.48458  0.82393  0.11595  1.0000
  H   H538      1.0  0.31114  0.56802  0.18078  1.0000
  H   H539      1.0  0.19421  0.69267  0.07557  1.0000
  H   H540      1.0  0.44555  0.84931  0.01104  1.0000
  H   H541      1.0  0.13844  0.49286  0.13164  1.0000
  H   H542      1.0  0.17754  0.50389  0.11923  1.0000
  H   H543      1.0  0.39180  0.58795  0.21309  1.0000
  C   C303      1.0  0.25603  0.53055  0.21111  1.0000
  H   H544      1.0  0.08430  0.49484  0.00614  1.0000
  H   H545      1.0  0.39560  0.96649  0.18004  1.0000
  C   C304      1.0  0.41934  0.95088  0.21220  1.0000
  C   C305      1.0  0.47613  0.85409  0.08159  1.0000
  H   H546      1.0  0.19290  0.53480  0.18772  1.0000
  H   H547      1.0  0.24120  0.62759  0.10893  1.0000
  H   H548      1.0  0.16084  0.52106  0.13801  1.0000
  H   H549      1.0  0.12859  0.62503  0.04796  1.0000
  C   C306      1.0  0.40873  0.95729  0.16852  1.0000
  H   H550      1.0  0.10211  0.51156  0.16000  1.0000
  N   N18       1.0  0.44690  0.65218  0.17017  1.0000
  H   H551      1.0  0.05364  0.74362  0.21212  1.0000
  C   C307      1.0  0.44452  0.60805  0.17943  1.0000
  H   H552      1.0  0.19593  0.55523  0.22299  1.0000
  H   H553      1.0  0.23317  0.55624  0.11852  1.0000
  C   C308      1.0  0.04534  0.84634  0.17567  1.0000
  C   C309      1.0  0.48714  0.80363  0.10532  1.0000
  H   H554      1.0  0.06109  0.85231  0.16417  1.0000
  H   H555      1.0  0.22946  0.63244  0.07379  1.0000
  H   H556      1.0  0.13215  0.67942  0.21736  1.0000
  H   H557      1.0  0.19965  0.74222  0.22552  1.0000
  C   C310      1.0  0.10840  0.52751  0.19478  1.0000
  C   C311      1.0  0.20611  0.68019  0.06654  1.0000
  H   H558      1.0  0.45375  0.88680  0.08296  1.0000
  H   H559      1.0  0.47217  0.89265  0.14768  1.0000
  S   S82       1.0  0.02566  0.95348  0.21459  1.0000
  H   H560      1.0  0.20639  0.89158  0.22493  1.0000
  H   H561      1.0  0.13808  0.65085  0.06835  1.0000
  C   C312      1.0  0.39836  0.74208  0.15728  1.0000
  C   C313      1.0  0.41792  0.74868  0.16162  1.0000
  C   C314      1.0  0.44037  0.74070  0.15137  1.0000
  C   C315      1.0  0.44324  0.72673  0.13622  1.0000
  C   C316      1.0  0.42366  0.72112  0.13101  1.0000
  C   C317      1.0  0.40121  0.72833  0.14193  1.0000
  H   H562      1.0  0.41583  0.75925  0.17346  1.0000
  H   H563      1.0  0.45545  0.74524  0.15531  1.0000
  H   H564      1.0  0.42588  0.71044  0.11917  1.0000
  H   H565      1.0  0.38612  0.72341  0.13835  1.0000
  H   H566      1.0  0.46859  0.63687  0.14371  1.0000
  H   H567      1.0  0.21991  0.67182  0.07587  1.0000
  C   C318      1.0  0.16898  0.50332  0.13648  1.0000
  H   H568      1.0  0.26666  0.53230  0.13348  1.0000
  H   H569      1.0  0.13655  0.79868  0.16361  1.0000
  C   C319      1.0  0.25720  0.63526  0.16265  1.0000
  C   C320      1.0  0.27930  0.63514  0.16692  1.0000
  C   C321      1.0  0.28647  0.65581  0.16797  1.0000
  C   C322      1.0  0.27167  0.67659  0.16439  1.0000
  C   C323      1.0  0.24987  0.67668  0.15960  1.0000
  C   C324      1.0  0.24256  0.65606  0.15897  1.0000
  H   H570      1.0  0.29059  0.61908  0.16997  1.0000
  H   H571      1.0  0.30336  0.65568  0.17161  1.0000
  H   H572      1.0  0.23831  0.69267  0.15698  1.0000
  H   H573      1.0  0.22544  0.65633  0.15581  1.0000
  C   C325      1.0  0.14892  0.58247  0.13183  1.0000
  C   C326      1.0  0.13452  0.57521  0.12101  1.0000
  C   C327      1.0  0.14413  0.56584  0.10239  1.0000
  C   C328      1.0  0.16815  0.56429  0.09419  1.0000
  C   C329      1.0  0.18262  0.57080  0.10547  1.0000
  C   C330      1.0  0.17307  0.57953  0.12446  1.0000
  H   H574      1.0  0.11580  0.57760  0.12657  1.0000
  H   H575      1.0  0.13283  0.56118  0.09361  1.0000
  H   H576      1.0  0.20119  0.56956  0.09915  1.0000
  H   H577      1.0  0.18429  0.58477  0.13293  1.0000
  H   H578      1.0  0.33767  0.57168  0.13349  1.0000
  C   C331      1.0  0.40198  0.65485  0.13330  1.0000
  S   S83       1.0  0.23929  0.48897  0.15384  1.0000
  C   C332      1.0  0.45723  0.86282  0.00725  1.0000
  H   H579      1.0  0.37179  0.82766  0.17990  1.0000
  H   H580      1.0  0.45341  0.76621  0.09633  1.0000
  H   H581      1.0  0.08708  0.55848  0.21785  1.0000
  C   C333      1.0  0.15042  0.48704  0.14331  1.0000
  C   C334      1.0  0.21967  0.48309  0.09984  1.0000
  C   C335      1.0  0.10987  0.87616  0.17593  1.0000
  S   S84       1.0  0.48720  0.76573  0.20041  1.0000
  S   S85       1.0  0.17988  0.55853  0.06805  1.0000
  H   H582      1.0  0.29371  0.53192  0.20149  1.0000
  H   H583      1.0  0.18234  0.49774  0.14677  1.0000
  H   H584      1.0  0.45390  0.81590  0.18240  1.0000
  H   H585      1.0  0.22237  0.56637  0.14368  1.0000
  H   H586      1.0  0.44110  0.86563  0.07496  1.0000
  H   H587      1.0  0.16866  0.73633  0.18149  1.0000
  H   H588      1.0  0.39081  0.90766  0.16376  1.0000
  S   S86       1.0  0.10253  0.48448  0.06368  1.0000
  C   C336      1.0  0.49079  0.93074  0.08793  1.0000
  H   H589      1.0  0.24690  0.50626  0.00020  1.0000
  N   N19       1.0  0.29765  0.80554  0.18422  1.0000
  C   C337      1.0  0.31380  0.82351  0.17992  1.0000
  C   C338      1.0  0.27338  0.81701  0.18157  1.0000
  C   C339      1.0  0.29635  0.79279  0.20756  1.0000
  C   C340      1.0  0.30669  0.78795  0.17003  1.0000
  C   C341      1.0  0.31051  0.79701  0.14521  1.0000
  C   C342      1.0  0.33928  0.81446  0.18239  1.0000
  C   C343      1.0  0.27573  0.77833  0.21725  1.0000
  C   C344      1.0  0.27121  0.83911  0.16372  1.0000
  H   H590      1.0  0.42444  0.92317  0.14852  1.0000
  C   C345      1.0  0.32316  0.77797  0.13306  1.0000
  C   C346      1.0  0.35345  0.83443  0.17857  1.0000
  H   H591      1.0  0.39947  0.95657  0.15565  1.0000
  H   H592      1.0  0.30659  0.83585  0.19103  1.0000
  H   H593      1.0  0.31489  0.83408  0.16328  1.0000
  H   H594      1.0  0.26309  0.80440  0.17914  1.0000
  H   H595      1.0  0.26387  0.82286  0.19675  1.0000
  H   H596      1.0  0.29489  0.80508  0.21844  1.0000
  H   H597      1.0  0.31270  0.78087  0.20947  1.0000
  H   H598      1.0  0.32334  0.77793  0.17392  1.0000
  H   H599      1.0  0.29457  0.77487  0.17363  1.0000
  H   H600      1.0  0.32117  0.81140  0.13994  1.0000
  H   H601      1.0  0.29340  0.80266  0.14025  1.0000
  H   H602      1.0  0.33985  0.80432  0.19895  1.0000
  H   H603      1.0  0.34797  0.80349  0.17044  1.0000
  H   H604      1.0  0.27404  0.76744  0.20624  1.0000
  H   H605      1.0  0.25902  0.78977  0.22015  1.0000
  H   H606      1.0  0.48362  0.76087  0.09853  1.0000
  H   H607      1.0  0.28221  0.83705  0.14779  1.0000
  H   H608      1.0  0.24075  0.64285  0.23334  1.0000
  H   H609      1.0  0.35224  0.64589  0.23877  1.0000
  H   H610      1.0  0.26584  0.56281  0.13148  1.0000
  H   H611      1.0  0.34089  0.77216  0.13673  1.0000
  H   H612      1.0  0.31322  0.76298  0.13773  1.0000
  H   H613      1.0  0.32499  0.78454  0.11527  1.0000
  H   H614      1.0  0.35348  0.84522  0.16208  1.0000
  H   H615      1.0  0.34612  0.84528  0.19092  1.0000
  H   H616      1.0  0.32825  0.54465  0.16907  1.0000
  H   H617      1.0  0.45844  0.62735  0.19691  1.0000
  H   H618      1.0  0.07895  0.73313  0.19373  1.0000
  H   H619      1.0  0.43503  0.71278  0.19613  1.0000
  H   H620      1.0  0.44008  0.97302  0.16781  1.0000
  H   H621      1.0  0.33193  0.60169  0.21946  1.0000
  H   H622      1.0  0.46881  0.96262  0.07975  1.0000
  Fe  Fe41      1.0  0.18072  0.50262  0.02106  1.0000
  H   H623      1.0  0.45201  0.94940  0.22286  1.0000
  Fe  Fe42      1.0  0.13785  0.82814  0.23449  1.0000
  H   H624      1.0  0.13135  0.57625  0.22194  1.0000
  H   H625      1.0  0.37216  0.93387  0.16796  1.0000
  C   C347      1.0  0.47862  0.95202  0.09151  1.0000
  C   C348      1.0  0.09215  0.87726  0.21341  1.0000
  C   C349      1.0  0.46175  0.49484  0.23069  1.0000
  H   H626      1.0  0.16448  0.50694  0.20675  1.0000
  H   H627      1.0  0.47439  0.78225  0.07627  1.0000
  C   C350      1.0  0.36085  0.90342  0.18945  1.0000
  C   C351      1.0  0.38219  0.59540  0.22679  1.0000
  C   C352      1.0  0.45621  0.88399  0.15320  1.0000
  H   H628      1.0  0.48311  0.82773  0.14891  1.0000
  H   H629      1.0  0.34956  0.91252  0.20201  1.0000
  H   H630      1.0  0.46149  0.86555  0.15979  1.0000
  C   C353      1.0  0.46879  0.65010  0.15299  1.0000
  H   H631      1.0  0.27871  0.57522  0.22768  1.0000
  C   C354      1.0  0.23315  0.59190  0.23129  1.0000
  H   H632      1.0  0.18817  0.86953  0.22747  1.0000
  H   H633      1.0  0.20151  0.64891  0.10566  1.0000
  H   H634      1.0  0.38396  0.93134  0.20280  1.0000
  H   H635      1.0  0.46961  0.66648  0.14067  1.0000
  H   H636      1.0  0.29027  0.74671  0.23632  1.0000
  Fe  Fe43      1.0  0.32082  0.69834  0.22661  1.0000
  C   C355      1.0  0.38541  0.78309  0.20764  1.0000
  C   C356      1.0  0.18461  0.54526  0.23593  1.0000
  H   H637      1.0  0.42364  0.88529  0.17588  1.0000
  H   H638      1.0  0.20532  0.82545  0.23369  1.0000
  C   C357      1.0  0.42831  0.97248  0.15696  1.0000
  H   H639      1.0  0.13121  0.61007  0.07508  1.0000
  C   C358      1.0  0.14099  0.61841  0.05914  1.0000
  H   H640      1.0  0.23574  0.60844  0.21976  1.0000
  H   H641      1.0  0.20492  0.70330  0.03516  1.0000
  H   H642      1.0  0.19792  0.51336  0.22504  1.0000
  C   C359      1.0  0.12433  0.70989  0.23131  1.0000
  C   C360      1.0  0.43846  0.50510  0.23360  1.0000
  H   H643      1.0  0.45072  0.83960  0.10865  1.0000
  H   H644      1.0  0.47712  0.60134  0.23150  1.0000
  C   C361      1.0  0.25743  0.54737  0.14047  1.0000
  H   H645      1.0  0.40127  0.94781  0.22036  1.0000
  H   H646      1.0  0.10957  0.52076  0.01022  1.0000
  H   H647      1.0  0.23336  0.85412  0.21912  1.0000
  H   H648      1.0  0.48361  0.97317  0.00583  1.0000
  C   C362      1.0  0.23260  0.55189  0.13629  1.0000
  H   H649      1.0  0.15124  0.80290  0.18353  1.0000
  N   N20       1.0  0.28085  0.53893  0.17160  1.0000
  H   H650      1.0  0.18769  0.62391  0.11198  1.0000
  C   C363      1.0  0.13578  0.80913  0.17588  1.0000
  H   H651      1.0  0.30098  0.55481  0.14088  1.0000
  H   H652      1.0  0.29559  0.51511  0.15001  1.0000
  H   H653      1.0  0.43378  0.58842  0.21233  1.0000
  H   H654      1.0  0.41888  0.96897  0.20319  1.0000
  H   H655      1.0  0.33926  0.55535  0.20484  1.0000
  H   H656      1.0  0.15446  0.60534  0.05226  1.0000
  C   C364      1.0  0.48274  0.85233  0.00203  1.0000
  H   H657      1.0  0.42670  0.78554  0.21902  1.0000
  C   C365      1.0  0.13597  0.69671  0.21573  1.0000
  H   H658      1.0  0.44794  0.88545  0.13912  1.0000
  C   C366      1.0  0.09157  0.81586  0.18300  1.0000
  C   C367      1.0  0.39576  0.92134  0.19119  1.0000
  H   H659      1.0  0.08237  0.74020  0.21828  1.0000
  C   C368      1.0  0.11348  0.80680  0.19323  1.0000
  H   H660      1.0  0.07848  0.78153  0.22116  1.0000
  C   C369      1.0  0.22097  0.82341  0.24015  1.0000
  C   C370      1.0  0.29483  0.55775  0.15781  1.0000
  C   C371      1.0  0.14451  0.54094  0.19809  1.0000
  H   H661      1.0  0.21444  0.59240  0.23928  1.0000
  H   H662      1.0  0.11396  0.81690  0.20539  1.0000
  H   H663      1.0  0.43963  0.81275  0.14048  1.0000
  S   S87       1.0  0.48777  0.70886  0.18082  1.0000
  C   C372      1.0  0.06762  0.78699  0.20844  1.0000
  H   H664      1.0  0.09357  0.80829  0.16842  1.0000
  C   C373      1.0  0.25732  0.54308  0.16516  1.0000
  C   C374      1.0  0.29435  0.51622  0.16718  1.0000
  C   C375      1.0  0.27854  0.76263  0.23900  1.0000
  C   C376      1.0  0.31659  0.56101  0.16571  1.0000
  H   H665      1.0  0.42465  0.81530  0.17977  1.0000
  H   H666      1.0  0.06840  0.84358  0.20858  1.0000
  C   C377      1.0  0.07158  0.88960  0.20690  1.0000
  H   H667      1.0  0.36814  0.88618  0.19751  1.0000
  H   H668      1.0  0.12896  0.50292  0.22693  1.0000
  H   H669      1.0  0.09652  0.60558  0.21659  1.0000
  H   H670      1.0  0.41154  0.68726  0.18755  1.0000
  H   H671      1.0  0.24676  0.55841  0.17111  1.0000
  H   H672      1.0  0.24718  0.52850  0.17301  1.0000
  H   H673      1.0  0.02286  0.87133  0.15701  1.0000
  H   H674      1.0  0.31241  0.59131  0.20769  1.0000
  N   N21       1.0  0.06841  0.81209  0.19800  1.0000
  C   C378      1.0  0.44928  0.82055  0.14906  1.0000
  H   H675      1.0  0.09238  0.83455  0.17652  1.0000
  H   H676      1.0  0.06474  0.77410  0.17995  1.0000
  H   H677      1.0  0.04076  0.85638  0.18875  1.0000
  H   H678      1.0  0.47205  0.86094  0.21758  1.0000
  H   H679      1.0  0.47291  0.70978  0.23001  1.0000
  C   C379      1.0  0.15175  0.70633  0.19758  1.0000
  C   C380      1.0  0.04943  0.82004  0.18491  1.0000
  H   H680      1.0  0.09989  0.53875  0.14125  1.0000
  H   H681      1.0  0.45886  0.60559  0.16545  1.0000
  H   H682      1.0  0.15371  0.51082  0.18222  1.0000
  H   H683      1.0  0.02913  0.84356  0.14948  1.0000
  H   H684      1.0  0.05335  0.81152  0.17073  1.0000
  H   H685      1.0  0.09394  0.76994  0.18482  1.0000
  C   C381      1.0  0.09674  0.53033  0.15873  1.0000
  H   H686      1.0  0.28363  0.57469  0.15652  1.0000
  C   C382      1.0  0.24423  0.65538  0.21777  1.0000
  H   H687      1.0  0.20254  0.71914  0.21218  1.0000
  C   C383      1.0  0.46858  0.84404  0.10621  1.0000
  H   H688      1.0  0.44756  0.89170  0.18503  1.0000
  H   H689      1.0  0.41903  0.66482  0.20957  1.0000
  H   H690      1.0  0.41297  0.70277  0.21902  1.0000
  H   H691      1.0  0.42349  0.67821  0.15363  1.0000
  C   C384      1.0  0.43911  0.89465  0.17096  1.0000
  C   C385      1.0  0.38047  0.91727  0.17627  1.0000
  H   H692      1.0  0.40099  0.90447  0.20151  1.0000
  H   H693      1.0  0.21327  0.76387  0.18615  1.0000
  C   C386      1.0  0.11063  0.54032  0.17073  1.0000
  H   H694      1.0  0.12476  0.87147  0.16380  1.0000
  H   H695      1.0  0.35858  0.56384  0.21835  1.0000
  C   C387      1.0  0.46940  0.77445  0.09379  1.0000
  Fe  Fe44      1.0  0.17126  0.52739  0.05903  1.0000
  H   H696      1.0  0.23071  0.68212  0.03551  1.0000
  C   C388      1.0  0.33081  0.57821  0.14878  1.0000
  S   S88       1.0  0.39438  0.84475  0.21802  1.0000
  H   H697      1.0  0.40981  0.65565  0.17178  1.0000
  H   H698      1.0  0.31268  0.51489  0.16898  1.0000
  H   H699      1.0  0.44911  0.92825  0.15672  1.0000
  H   H700      1.0  0.27531  0.55863  0.19680  1.0000
  C   C389      1.0  0.43240  0.92077  0.16302  1.0000
  H   H701      1.0  0.22219  0.73759  0.17562  1.0000
  H   H702      1.0  0.24323  0.75663  0.17315  1.0000
  N   N22       1.0  0.41684  0.93334  0.17982  1.0000
  H   H703      1.0  0.04962  0.78415  0.21733  1.0000
  C   C390      1.0  0.27765  0.54030  0.19522  1.0000
  C   C391      1.0  0.22756  0.74950  0.18383  1.0000
  H   H704      1.0  0.31991  0.59511  0.14522  1.0000
  H   H705      1.0  0.34584  0.58081  0.15504  1.0000
  H   H706      1.0  0.45046  0.80573  0.10235  1.0000
  N   N23       1.0  0.11975  0.53711  0.20880  1.0000
  C   C392      1.0  0.43051  0.93394  0.19668  1.0000
  S   S89       1.0  0.15008  0.52625  0.03462  1.0000
  H   H707      1.0  0.09350  0.87337  0.23027  1.0000
  H   H708      1.0  0.25165  0.69375  0.23054  1.0000
  H   H709      1.0  0.24805  0.72283  0.20238  1.0000
  H   H710      1.0  0.43867  0.65709  0.12535  1.0000
  H   H711      1.0  0.23768  0.57795  0.22194  1.0000
  H   H712      1.0  0.23960  0.74885  0.21281  1.0000
  H   H713      1.0  0.20993  0.67408  0.22319  1.0000
  C   C393      1.0  0.23683  0.83955  0.23188  1.0000
  H   H714      1.0  0.25207  0.51502  0.20734  1.0000
  C   C394      1.0  0.23346  0.73658  0.20564  1.0000
  H   H715      1.0  0.05691  0.89513  0.21884  1.0000
  H   H716      1.0  0.24026  0.54345  0.21001  1.0000
  H   H717      1.0  0.25057  0.60172  0.09809  1.0000
  H   H718      1.0  0.24088  0.64799  0.20479  1.0000
  C   C395      1.0  0.21182  0.72692  0.22129  1.0000
  H   H719      1.0  0.40770  0.75215  0.21709  1.0000
  H   H720      1.0  0.22565  0.51055  0.11329  1.0000
  H   H721      1.0  0.43328  0.91656  0.20709  1.0000
  C   C396      1.0  0.02528  0.85245  0.16339  1.0000
  H   H722      1.0  0.27658  0.85359  0.16860  1.0000
  S   S90       1.0  0.27789  0.85594  0.22843  1.0000
  H   H723      1.0  0.44577  0.57118  0.19209  1.0000
  H   H724      1.0  0.12908  0.53882  0.16207  1.0000
  C   C397      1.0  0.18447  0.52631  0.17858  1.0000
  H   H725      1.0  0.42788  0.63225  0.19924  1.0000
  H   H726      1.0  0.44410  0.74621  0.22658  1.0000
  H   H727      1.0  0.22764  0.70651  0.04806  1.0000
  H   H728      1.0  0.18454  0.61824  0.06793  1.0000
  H   H729      1.0  0.45349  0.68662  0.16906  1.0000
  H   H730      1.0  0.45910  0.78408  0.12475  1.0000
  H   H731      1.0  0.44846  0.93813  0.18889  1.0000
  H   H732      1.0  0.34991  0.90101  0.17855  1.0000
  H   H733      1.0  0.45265  0.87629  0.99333  1.0000
  C   C398      1.0  0.44330  0.80994  0.17324  1.0000
  C   C399      1.0  0.08918  0.88763  0.16953  1.0000
  Fe  Fe45      1.0  0.01745  0.92727  0.19893  1.0000
  H   H734      1.0  0.45432  0.87087  0.02162  1.0000
  C   C400      1.0  0.07528  0.76983  0.19277  1.0000
  H   H735      1.0  0.44661  0.79086  0.17585  1.0000
  S   S91       1.0  0.13798  0.85672  0.20496  1.0000
  H   H736      1.0  0.15280  0.54719  0.20900  1.0000
  H   H737      1.0  0.14490  0.55491  0.18339  1.0000
  C   C401      1.0  0.41313  0.77894  0.23317  1.0000
  H   H738      1.0  0.08940  0.52765  0.20166  1.0000
  S   S92       1.0  0.47117  0.71503  0.12481  1.0000
  C   C402      1.0  0.45375  0.86416  0.22418  1.0000
  C   C403      1.0  0.22817  0.67795  0.21915  1.0000
  C   C404      1.0  0.44833  0.67113  0.18139  1.0000
  Fe  Fe46      1.0  0.13908  0.49384  0.05719  1.0000
  H   H739      1.0  0.15094  0.67524  0.08343  1.0000
  C   C405      1.0  0.04085  0.82597  0.23133  1.0000
  C   C406      1.0  0.07232  0.74523  0.20503  1.0000
  H   H740      1.0  0.11532  0.50907  0.19491  1.0000
  C   C407      1.0  0.15649  0.72881  0.19554  1.0000
  H   H741      1.0  0.16091  0.64652  0.04533  1.0000
  C   C408      1.0  0.15225  0.63821  0.06178  1.0000
  H   H742      1.0  0.08815  0.89156  0.15253  1.0000
  C   C409      1.0  0.17033  0.62936  0.07671  1.0000
  S   S93       1.0  0.20309  0.50673  0.04305  1.0000
  H   H743      1.0  0.20453  0.65125  0.05223  1.0000
  H   H744      1.0  0.46217  0.66579  0.19126  1.0000
  C   C410      1.0  0.11136  0.87065  0.19787  1.0000
  C   C411      1.0  0.14306  0.65046  0.11348  1.0000
  H   H745      1.0  0.27545  0.60531  0.22560  1.0000
  H   H746      1.0  0.15195  0.63702  0.12476  1.0000
  H   H747      1.0  0.13182  0.64211  0.10690  1.0000
  H   H748      1.0  0.39662  0.67376  0.12991  1.0000
  C   C412      1.0  0.07003  0.89458  0.18490  1.0000
  C   C413      1.0  0.16105  0.51954  0.19192  1.0000
  C   C414      1.0  0.44453  0.63040  0.18727  1.0000
  H   H749      1.0  0.44301  0.69019  0.21816  1.0000
  C   C415      1.0  0.23509  0.61306  0.10483  1.0000
  C   C416      1.0  0.42595  0.64926  0.13953  1.0000
  C   C417      1.0  0.45744  0.87289  0.07352  1.0000
  H   H750      1.0  0.47856  0.81129  0.21011  1.0000
  H   H751      1.0  0.14888  0.75912  0.20948  1.0000
  C   C418      1.0  0.42555  0.67928  0.19678  1.0000
  C   C419      1.0  0.47898  0.50571  0.23460  1.0000
  H   H752      1.0  0.10747  0.57278  0.19681  1.0000
  H   H753      1.0  0.13754  0.67506  0.13474  1.0000
  H   H754      1.0  0.38869  0.64662  0.14664  1.0000
  C   C420      1.0  0.46479  0.79278  0.10762  1.0000
  C   C421      1.0  0.43778  0.85393  0.21775  1.0000
  H   H755      1.0  0.18211  0.53813  0.16300  1.0000
  H   H756      1.0  0.44394  0.84322  0.20578  1.0000
  H   H757      1.0  0.10391  0.55885  0.16951  1.0000
  C   C422      1.0  0.21803  0.69381  0.04493  1.0000
  H   H758      1.0  0.11449  0.65762  0.13976  1.0000
  H   H759      1.0  0.21532  0.60692  0.08332  1.0000
  N   N24       1.0  0.18008  0.64768  0.08307  1.0000
  C   C423      1.0  0.12717  0.66715  0.12680  1.0000
  H   H760      1.0  0.02647  0.83338  0.22247  1.0000
  H   H761      1.0  0.40263  0.64823  0.11849  1.0000
  S   S94       1.0  0.15877  0.79429  0.22899  1.0000
  C   C424      1.0  0.12006  0.52008  0.22995  1.0000
  H   H762      1.0  0.43077  0.63040  0.14231  1.0000
  C   C425      1.0  0.16094  0.66300  0.09489  1.0000
  C   C426      1.0  0.19656  0.63611  0.09814  1.0000
  H   H763      1.0  0.17964  0.67221  0.05281  1.0000
  H   H764      1.0  0.46677  0.85843  0.11485  1.0000
  H   H765      1.0  0.23434  0.84917  0.17636  1.0000
  C   C427      1.0  0.21931  0.62200  0.08821  1.0000
  S   S95       1.0  0.99717  0.90793  0.22933  1.0000
  C   C428      1.0  0.19243  0.66228  0.06281  1.0000
  C   C429      1.0  0.44740  0.58688  0.19754  1.0000
  H   H766      1.0  0.28720  0.49280  0.19886  1.0000
  H   H767      1.0  0.11735  0.68089  0.11634  1.0000
  H   H768      1.0  0.16862  0.67412  0.10224  1.0000
  C   C430      1.0  0.42586  0.65928  0.15959  1.0000
  H   H769      1.0  0.37634  0.79867  0.21381  1.0000
  H   H770      1.0  0.14039  0.48923  0.15951  1.0000
  C   C431      1.0  0.24595  0.84621  0.16080  1.0000
  H   H771      1.0  0.07777  0.53350  0.16553  1.0000
  C   C432      1.0  0.09717  0.59321  0.23223  1.0000
  H   H772      1.0  0.22559  0.60303  0.12000  1.0000
  H   H773      1.0  0.23985  0.83268  0.15517  1.0000
  S   S96       1.0  0.04436  0.90865  0.17591  1.0000
  H   H774      1.0  0.19623  0.51067  0.17496  1.0000
  C   C433      1.0  0.37233  0.61845  0.22348  1.0000
  H   H775      1.0  0.03252  0.81461  0.19464  1.0000
  H   H776      1.0  0.00876  0.84765  0.17442  1.0000
  C   C434      1.0  0.10603  0.55996  0.21240  1.0000
  C   C435      1.0  0.34553  0.57037  0.20784  1.0000
  H   H777      1.0  0.26682  0.49410  0.18162  1.0000
  C   C436      1.0  0.06499  0.82556  0.21566  1.0000
  H   H778      1.0  0.23105  0.68932  0.20281  1.0000
  C   C437      1.0  0.42949  0.69735  0.20820  1.0000
  C   C438      1.0  0.32519  0.58599  0.21854  1.0000
  H   H779      1.0  0.42751  0.60837  0.17494  1.0000
  H   H780      1.0  0.07812  0.81845  0.22597  1.0000
  H   H781      1.0  0.26282  0.65829  0.21383  1.0000
  S   S97       1.0  0.15712  0.49726  0.08311  1.0000
  H   H782      1.0  0.37234  0.77452  0.20377  1.0000
  H   H783      1.0  0.21314  0.49466  0.08643  1.0000
  H   H784      1.0  0.24469  0.86244  0.14848  1.0000
  C   C439      1.0  0.39742  0.76650  0.22467  1.0000
  Fe  Fe47      1.0  0.99216  0.97414  0.20717  1.0000
  H   H785      1.0  0.46373  0.88057  0.05618  1.0000
  C   C440      1.0  0.18835  0.88699  0.23027  1.0000
  C   C441      1.0  0.47939  0.95981  0.11006  1.0000
  H   H786      1.0  0.17699  0.89943  0.22023  1.0000
  H   H787      1.0  0.39821  0.78835  0.19256  1.0000
  H   H788      1.0  0.48295  0.79907  0.14648  1.0000
  H   H789      1.0  0.38345  0.75947  0.23788  1.0000
  H   H790      1.0  0.46488  0.58470  0.20174  1.0000
  C   C442      1.0  0.25326  0.48805  0.99895  1.0000
  H   H791      1.0  0.04169  0.85864  0.24002  1.0000
  C   C443      1.0  0.28527  0.49417  0.18189  1.0000
  C   C444      1.0  0.22674  0.49211  0.11509  1.0000
  S   S98       1.0  0.41588  0.48959  0.23435  1.0000
  C   C445      1.0  0.27427  0.58875  0.23765  1.0000
  C   C446      1.0  0.43321  0.94843  0.22993  1.0000
  C   C447      1.0  0.43282  0.52703  0.23843  1.0000
  H   H792      1.0  0.44627  0.61076  0.23706  1.0000
  H   H793      1.0  0.29990  0.62023  0.23903  1.0000
  S   S99       1.0  0.48915  0.92151  0.06463  1.0000
  C   C448      1.0  0.23345  0.68944  0.23628  1.0000
  H   H794      1.0  0.41501  0.53526  0.23997  1.0000
  C   C449      1.0  0.25935  0.52438  0.23461  1.0000
  H   H795      1.0  0.27415  0.51043  0.23642  1.0000
  H   H796      1.0  0.42645  0.96241  0.23918  1.0000
  H   H797      1.0  0.47033  0.97651  0.11250  1.0000
  H   H798      1.0  0.07931  0.58911  0.24019  1.0000
  H   H799      1.0  0.08501  0.53720  0.99934  1.0000
  C   C450      1.0  0.10122  0.52518  0.99580  1.0000
  S   S100      1.0  0.49141  0.95577  0.14902  1.0000
  H   H800      1.0  0.48638  0.83920  0.01646  1.0000
  H   H801      1.0  0.40194  0.79443  0.23812  1.0000
  H   H802      1.0  0.45471  0.78263  0.23997  1.0000
  C   C451      1.0  0.25751  0.83649  0.23967  1.0000
  C   C452      1.0  0.18607  0.52144  0.23733  1.0000
  H   H803      1.0  0.08519  0.50926  0.23624  1.0000
  H   H804      1.0  0.26286  0.53949  0.23974  1.0000
  C   C453      1.0  0.44614  0.87833  0.23935  1.0000
  H   H805      1.0  0.13073  0.52523  0.23956  1.0000
  H   H806      1.0  0.03778  0.80834  0.24030  1.0000
  C   C454      1.0  0.09571  0.50319  0.99125  1.0000
  H   H807      1.0  0.41632  0.89210  0.26094  1.0000
  C   C455      1.0  0.45888  0.73096  0.25433  1.0000
  Fe  Fe48      1.0  0.12476  0.81101  0.28321  1.0000
  S   S101      1.0  0.10928  0.82000  0.31587  1.0000
  S   S102      1.0  0.20770  0.78262  0.26521  1.0000
  S   S103      1.0  0.30507  0.69895  0.26159  1.0000
  S   S104      1.0  0.30145  0.83825  0.28281  1.0000
  H   H808      1.0  0.10820  0.50509  0.27521  1.0000
  H   H809      1.0  0.42030  0.72979  0.29249  1.0000
  S   S105      1.0  0.35856  0.83364  0.27709  1.0000
  H   H810      1.0  0.32803  0.57152  0.25146  1.0000
  H   H811      1.0  0.10504  0.77231  0.43608  1.0000
  C   C456      1.0  0.05249  0.84145  0.35072  1.0000
  Fe  Fe49      1.0  0.32806  0.86152  0.27934  1.0000
  S   S106      1.0  0.32535  0.88655  0.30094  1.0000
  S   S107      1.0  0.48510  0.53066  0.35810  1.0000
  H   H812      1.0  0.19702  0.68735  0.26800  1.0000
  H   H813      1.0  0.12981  0.90036  0.40330  1.0000
  H   H814      1.0  0.08313  0.91559  0.34770  1.0000
  S   S108      1.0  0.35813  0.57290  0.29055  1.0000
  H   H815      1.0  0.30713  0.83473  0.35899  1.0000
  H   H816      1.0  0.36710  0.49695  0.38403  1.0000
  H   H817      1.0  0.48364  0.69977  0.25486  1.0000
  H   H818      1.0  0.03633  0.87667  0.28879  1.0000
  H   H819      1.0  0.31264  0.75987  0.34539  1.0000
  Fe  Fe50      1.0  0.18818  0.83985  0.37947  1.0000
  S   S109      1.0  0.20356  0.87155  0.36005  1.0000
  S   S110      1.0  0.19162  0.80848  0.36557  1.0000
  Fe  Fe51      1.0  0.17133  0.85941  0.42022  1.0000
  S   S111      1.0  0.18574  0.89258  0.40489  1.0000
  Fe  Fe52      1.0  0.17101  0.89088  0.37644  1.0000
  S   S112      1.0  0.14983  0.92164  0.35963  1.0000
  Fe  Fe53      1.0  0.21691  0.87025  0.39008  1.0000
  S   S113      1.0  0.25352  0.87412  0.39080  1.0000
  S   S114      1.0  0.15435  0.85912  0.39281  1.0000
  S   S115      1.0  0.20383  0.83715  0.40836  1.0000
  H   H820      1.0  0.10295  0.97638  0.43798  1.0000
  Fe  Fe54      1.0  0.45521  0.54415  0.38210  1.0000
  S   S116      1.0  0.42023  0.55429  0.37265  1.0000
  H   H821      1.0  0.05349  0.80133  0.38267  1.0000
  H   H822      1.0  0.06772  0.91458  0.46142  1.0000
  H   H823      1.0  0.17322  0.78109  0.44851  1.0000
  C   C457      1.0  0.20212  0.85249  0.30516  1.0000
  Fe  Fe55      1.0  0.17168  0.79439  0.25884  1.0000
  H   H824      1.0  0.34643  0.62157  0.27577  1.0000
  S   S117      1.0  0.33168  0.87338  0.24325  1.0000
  H   H825      1.0  0.44526  0.55484  0.24599  1.0000
  S   S118      1.0  0.01817  0.92732  0.27441  1.0000
  C   C458      1.0  0.39514  0.53558  0.35210  1.0000
  C   C459      1.0  0.43439  0.54905  0.29998  1.0000
  H   H826      1.0  0.38569  0.55262  0.34863  1.0000
  H   H827      1.0  0.37741  0.52159  0.33369  1.0000
  C   C460      1.0  0.41081  0.59137  0.31539  1.0000
  H   H828      1.0  0.28240  0.53113  0.39401  1.0000
  H   H829      1.0  0.10367  0.60152  0.24297  1.0000
  H   H830      1.0  0.24498  0.72594  0.24522  1.0000
  H   H831      1.0  0.00847  0.89040  0.31277  1.0000
  H   H832      1.0  0.34400  0.55331  0.34258  1.0000
  C   C461      1.0  0.33062  0.53646  0.37601  1.0000
  H   H833      1.0  0.03148  0.81399  0.35230  1.0000
  H   H834      1.0  0.07440  0.86124  0.26826  1.0000
  H   H835      1.0  0.16094  0.88372  0.25835  1.0000
  H   H836      1.0  0.07899  0.85079  0.38781  1.0000
  H   H837      1.0  0.33234  0.77265  0.35444  1.0000
  S   S119      1.0  0.16360  0.58620  0.24813  1.0000
  C   C462      1.0  0.32621  0.51479  0.36917  1.0000
  C   C463      1.0  0.30683  0.72056  0.29369  1.0000
  C   C464      1.0  0.31288  0.73764  0.30204  1.0000
  H   H838      1.0  0.42383  0.59965  0.27486  1.0000
  H   H839      1.0  0.47549  0.62894  0.32758  1.0000
  H   H840      1.0  0.30748  0.73772  0.31919  1.0000
  C   C465      1.0  0.25716  0.51183  0.41674  1.0000
  C   C466      1.0  0.30477  0.88289  0.32550  1.0000
  C   C467      1.0  0.28442  0.87311  0.32774  1.0000
  C   C468      1.0  0.26839  0.87047  0.34769  1.0000
  C   C469      1.0  0.27280  0.87749  0.36543  1.0000
  C   C470      1.0  0.29324  0.88700  0.36317  1.0000
  C   C471      1.0  0.30902  0.88994  0.34323  1.0000
  H   H841      1.0  0.28089  0.86789  0.31404  1.0000
  H   H842      1.0  0.25291  0.86270  0.34937  1.0000
  H   H843      1.0  0.29678  0.89240  0.37681  1.0000
  H   H844      1.0  0.32470  0.89752  0.34158  1.0000
  C   C472      1.0  0.16813  0.80967  0.35306  1.0000
  C   C473      1.0  0.17229  0.80282  0.33315  1.0000
  C   C474      1.0  0.15421  0.80599  0.32178  1.0000
  C   C475      1.0  0.13170  0.81529  0.33058  1.0000
  C   C476      1.0  0.12729  0.82127  0.35097  1.0000
  C   C477      1.0  0.14553  0.81853  0.36217  1.0000
  H   H845      1.0  0.18968  0.79583  0.32608  1.0000
  H   H846      1.0  0.15793  0.80139  0.30609  1.0000
  H   H847      1.0  0.10998  0.82845  0.35790  1.0000
  H   H848      1.0  0.14212  0.82329  0.37780  1.0000
  H   H849      1.0  0.24261  0.69207  0.27592  1.0000
  N   N25       1.0  0.32093  0.49394  0.38689  1.0000
  H   H850      1.0  0.00927  0.95172  0.34260  1.0000
  H   H851      1.0  0.31209  0.52004  0.35961  1.0000
  C   C478      1.0  0.22585  0.80424  0.25621  1.0000
  H   H852      1.0  0.19052  0.85286  0.26873  1.0000
  Fe  Fe56      1.0  0.00293  0.93580  0.24444  1.0000
  C   C479      1.0  0.12163  0.92545  0.37543  1.0000
  C   C480      1.0  0.24813  0.58773  0.24844  1.0000
  H   H853      1.0  0.12429  0.89931  0.32352  1.0000
  H   H854      1.0  0.16896  0.73392  0.25107  1.0000
  H   H855      1.0  0.03171  0.93683  0.31033  1.0000
  H   H856      1.0  0.05300  0.83349  0.25803  1.0000
  H   H857      1.0  0.16814  0.81039  0.43439  1.0000
  C   C481      1.0  0.03941  0.84056  0.24814  1.0000
  H   H858      1.0  0.34777  0.53344  0.38092  1.0000
  H   H859      1.0  0.05857  0.81290  0.33297  1.0000
  C   C482      1.0  0.37843  0.58154  0.24762  1.0000
  H   H860      1.0  0.19566  0.83672  0.30381  1.0000
  S   S120      1.0  0.47507  0.56808  0.39056  1.0000
  H   H861      1.0  0.04399  0.84365  0.36755  1.0000
  C   C483      1.0  0.15631  0.87563  0.32583  1.0000
  C   C484      1.0  0.13762  0.91464  0.46038  1.0000
  H   H862      1.0  0.12810  0.82806  0.43066  1.0000
  C   C485      1.0  0.40630  0.87095  0.24267  1.0000
  H   H863      1.0  0.34222  0.51039  0.35725  1.0000
  C   C486      1.0  0.39741  0.61587  0.31601  1.0000
  C   C487      1.0  0.37113  0.61516  0.32326  1.0000
  H   H864      1.0  0.40844  0.58154  0.33243  1.0000
  H   H865      1.0  0.40141  0.58323  0.30669  1.0000
  H   H866      1.0  0.00951  0.84963  0.35138  1.0000
  H   H867      1.0  0.40276  0.62347  0.32790  1.0000
  H   H868      1.0  0.36435  0.60906  0.31125  1.0000
  H   H869      1.0  0.36711  0.60353  0.33938  1.0000
  H   H870      1.0  0.36205  0.63270  0.32451  1.0000
  C   C488      1.0  0.47456  0.60223  0.31012  1.0000
  H   H871      1.0  0.08055  0.79978  0.36278  1.0000
  C   C489      1.0  0.23064  0.70827  0.27719  1.0000
  C   C490      1.0  0.33246  0.75448  0.26602  1.0000
  H   H872      1.0  0.20182  0.89327  0.31053  1.0000
  H   H873      1.0  0.46527  0.56272  0.30054  1.0000
  S   S121      1.0  0.14342  0.77568  0.28149  1.0000
  N   N26       1.0  0.42440  0.76471  0.25155  1.0000
  C   C491      1.0  0.24124  0.72214  0.28865  1.0000
  H   H874      1.0  0.23529  0.91525  0.29926  1.0000
  H   H875      1.0  0.46021  0.57609  0.26362  1.0000
  H   H876      1.0  0.23063  0.78146  0.33842  1.0000
  C   C492      1.0  0.20612  0.88163  0.47183  1.0000
  H   H877      1.0  0.26953  0.65267  0.28288  1.0000
  H   H878      1.0  0.44097  0.51443  0.29340  1.0000
  Fe  Fe57      1.0  0.33763  0.49743  0.28618  1.0000
  C   C493      1.0  0.09867  0.49848  0.26552  1.0000
  S   S122      1.0  0.33231  0.77615  0.29928  1.0000
  H   H879      1.0  0.14839  0.90522  0.44784  1.0000
  H   H880      1.0  0.06770  0.95528  0.37248  1.0000
  H   H881      1.0  0.12198  0.80488  0.42152  1.0000
  C   C494      1.0  0.21950  0.90371  0.27700  1.0000
  C   C495      1.0  0.28820  0.55181  0.31260  1.0000
  H   H882      1.0  0.47849  0.61399  0.29410  1.0000
  H   H883      1.0  0.25874  0.72604  0.27926  1.0000
  H   H884      1.0  0.22980  0.73853  0.29063  1.0000
  H   H885      1.0  0.24328  0.71204  0.30499  1.0000
  H   H886      1.0  0.46293  0.81720  0.25123  1.0000
  C   C496      1.0  0.41274  0.53144  0.36413  1.0000
  C   C497      1.0  0.48414  0.61131  0.32609  1.0000
  H   H887      1.0  0.24137  0.60067  0.25875  1.0000
  C   C498      1.0  0.17142  0.50839  0.25413  1.0000
  H   H888      1.0  0.23414  0.67593  0.25125  1.0000
  H   H889      1.0  0.10831  0.95224  0.35111  1.0000
  H   H890      1.0  0.27686  0.75524  0.34926  1.0000
  H   H891      1.0  0.24327  0.79998  0.43986  1.0000
  H   H892      1.0  0.31221  0.60633  0.26176  1.0000
  H   H893      1.0  0.33640  0.73814  0.38418  1.0000
  H   H894      1.0  0.26527  0.77662  0.41231  1.0000
  H   H895      1.0  0.28753  0.75703  0.38562  1.0000
  H   H896      1.0  0.24545  0.57049  0.25873  1.0000
  H   H897      1.0  0.26336  0.82311  0.37937  1.0000
  H   H898      1.0  0.36785  0.51002  0.41746  1.0000
  C   C499      1.0  0.01300  0.94116  0.31240  1.0000
  H   H899      1.0  0.15437  0.88948  0.29250  1.0000
  H   H900      1.0  0.07726  0.87573  0.35117  1.0000
  H   H901      1.0  0.31660  0.72505  0.37456  1.0000
  H   H902      1.0  0.25034  0.82594  0.42061  1.0000
  H   H903      1.0  0.18235  0.72923  0.27424  1.0000
  N   N27       1.0  0.29160  0.58549  0.25243  1.0000
  H   H904      1.0  0.03472  0.89797  0.33068  1.0000
  H   H905      1.0  0.00544  0.90990  0.48172  1.0000
  H   H906      1.0  0.28055  0.55319  0.27122  1.0000
  C   C500      1.0  0.43065  0.80162  0.26252  1.0000
  H   H907      1.0  0.07797  0.89174  0.32378  1.0000
  C   C501      1.0  0.12037  0.81167  0.43649  1.0000
  H   H908      1.0  0.41689  0.54680  0.31013  1.0000
  H   H909      1.0  0.01817  0.84507  0.32424  1.0000
  H   H910      1.0  0.41755  0.79875  0.27789  1.0000
  C   C502      1.0  0.01807  0.85749  0.33463  1.0000
  H   H911      1.0  0.43190  0.55621  0.28315  1.0000
  H   H912      1.0  0.45790  0.80302  0.27960  1.0000
  H   H913      1.0  0.40058  0.62741  0.29979  1.0000
  C   C503      1.0  0.06107  0.92542  0.47389  1.0000
  C   C504      1.0  0.09334  0.91330  0.40805  1.0000
  H   H914      1.0  0.32400  0.80726  0.36505  1.0000
  H   H915      1.0  0.14635  0.92955  0.46013  1.0000
  H   H916      1.0  0.11160  0.70263  0.24498  1.0000
  H   H917      1.0  0.32402  0.83642  0.31923  1.0000
  N   N28       1.0  0.43648  0.59004  0.30511  1.0000
  H   H918      1.0  0.16453  0.88884  0.32974  1.0000
  H   H919      1.0  0.34423  0.73132  0.35746  1.0000
  H   H920      1.0  0.06697  0.89184  0.25931  1.0000
  H   H921      1.0  0.30662  0.77448  0.38931  1.0000
  C   C505      1.0  0.09839  0.93832  0.47092  1.0000
  H   H922      1.0  0.38795  0.87363  0.24992  1.0000
  C   C506      1.0  0.07303  0.86190  0.40005  1.0000
  C   C507      1.0  0.18302  0.82658  0.47244  1.0000
  H   H923      1.0  0.48661  0.67674  0.48348  1.0000
  C   C508      1.0  0.16414  0.87420  0.30144  1.0000
  H   H924      1.0  0.24371  0.92859  0.27110  1.0000
  H   H925      1.0  0.10834  0.95291  0.46853  1.0000
  C   C509      1.0  0.15488  0.54274  0.26873  1.0000
  H   H926      1.0  0.23406  0.88978  0.27445  1.0000
  S   S123      1.0  0.14823  0.85460  0.45323  1.0000
  H   H927      1.0  0.09165  0.74599  0.47114  1.0000
  H   H928      1.0  0.05644  0.92619  0.33799  1.0000
  H   H929      1.0  0.45515  0.72830  0.27224  1.0000
  C   C510      1.0  0.08492  0.97937  0.43507  1.0000
  C   C511      1.0  0.42458  0.50920  0.36878  1.0000
  H   H930      1.0  0.48357  0.63814  0.47898  1.0000
  H   H931      1.0  0.29990  0.64103  0.27760  1.0000
  H   H932      1.0  0.14541  0.50888  0.28348  1.0000
  C   C512      1.0  0.43721  0.74278  0.24450  1.0000
  H   H933      1.0  0.12472  0.88103  0.34985  1.0000
  C   C513      1.0  0.16194  0.79333  0.43827  1.0000
  C   C514      1.0  0.44655  0.56495  0.30835  1.0000
  C   C515      1.0  0.08712  0.77611  0.44538  1.0000
  H   H934      1.0  0.15757  0.85881  0.29927  1.0000
  H   H935      1.0  0.39324  0.77574  0.27373  1.0000
  C   C516      1.0  0.19802  0.89523  0.29404  1.0000
  C   C517      1.0  0.10417  0.94151  0.36708  1.0000
  N   N29       1.0  0.04283  0.86083  0.33426  1.0000
  C   C518      1.0  0.35659  0.61429  0.26215  1.0000
  H   H936      1.0  0.06671  0.79780  0.46667  1.0000
  H   H937      1.0  0.31728  0.54119  0.38986  1.0000
  C   C519      1.0  0.05824  0.85967  0.31230  1.0000
  C   C520      1.0  0.15427  0.70971  0.27868  1.0000
  C   C521      1.0  0.06749  0.88925  0.34059  1.0000
  C   C522      1.0  0.06894  0.83900  0.47588  1.0000
  C   C523      1.0  0.28342  0.57000  0.27396  1.0000
  C   C524      1.0  0.39025  0.51788  0.34378  1.0000
  C   C525      1.0  0.07565  0.92858  0.39939  1.0000
  C   C526      1.0  0.40171  0.49554  0.34877  1.0000
  H   H938      1.0  0.30516  0.58030  0.29280  1.0000
  C   C527      1.0  0.29610  0.60842  0.25513  1.0000
  H   H939      1.0  0.34220  0.80951  0.32619  1.0000
  H   H940      1.0  0.21378  0.70398  0.28774  1.0000
  H   H941      1.0  0.13619  0.80103  0.46571  1.0000
  H   H942      1.0  0.03242  0.88288  0.35779  1.0000
  H   H943      1.0  0.07144  0.84177  0.34928  1.0000
  H   H944      1.0  0.07679  0.85936  0.31303  1.0000
  H   H945      1.0  0.05766  0.84331  0.30745  1.0000
  C   C528      1.0  0.32710  0.73686  0.25775  1.0000
  C   C529      1.0  0.12987  0.88164  0.33207  1.0000
  H   H946      1.0  0.34230  0.76758  0.25530  1.0000
  H   H947      1.0  0.24704  0.75734  0.32731  1.0000
  S   S124      1.0  0.39723  0.51389  0.28626  1.0000
  H   H948      1.0  0.13168  0.77742  0.45528  1.0000
  H   H949      1.0  0.09760  0.97220  0.40249  1.0000
  H   H950      1.0  0.31587  0.55307  0.28472  1.0000
  H   H951      1.0  0.24026  0.79531  0.40428  1.0000
  H   H952      1.0  0.14089  0.72330  0.28480  1.0000
  H   H953      1.0  0.26047  0.62600  0.26276  1.0000
  H   H954      1.0  0.44609  0.55766  0.32596  1.0000
  H   H955      1.0  0.07935  0.86476  0.43059  1.0000
  H   H956      1.0  0.34551  0.83472  0.33522  1.0000
  H   H957      1.0  0.28846  0.81154  0.39067  1.0000
  C   C530      1.0  0.46791  0.70762  0.24798  1.0000
  H   H958      1.0  0.39387  0.74816  0.26866  1.0000
  H   H959      1.0  0.38369  0.76511  0.31355  1.0000
  S   S125      1.0  0.02093  0.97638  0.36825  1.0000
  H   H960      1.0  0.05929  0.78120  0.36473  1.0000
  C   C531      1.0  0.46096  0.59361  0.26554  1.0000
  H   H961      1.0  0.08863  0.88135  0.27596  1.0000
  C   C532      1.0  0.06154  0.79872  0.36595  1.0000
  H   H962      1.0  0.07863  0.94539  0.43427  1.0000
  C   C533      1.0  0.22888  0.92233  0.28385  1.0000
  H   H963      1.0  0.02923  0.93919  0.46043  1.0000
  C   C534      1.0  0.36530  0.59088  0.26520  1.0000
  H   H964      1.0  0.48235  0.61063  0.46051  1.0000
  H   H965      1.0  0.27478  0.78163  0.32902  1.0000
  C   C535      1.0  0.07211  0.95800  0.44500  1.0000
  N   N30       1.0  0.07351  0.94652  0.46813  1.0000
  C   C536      1.0  0.00036  0.94992  0.33052  1.0000
  C   C537      1.0  0.05006  0.81664  0.34919  1.0000
  H   H966      1.0  0.23529  0.75392  0.35610  1.0000
  H   H967      1.0  0.33597  0.57203  0.36184  1.0000
  H   H968      1.0  0.27330  0.80514  0.43040  1.0000
  H   H969      1.0  0.04563  0.97275  0.47792  1.0000
  C   C538      1.0  0.41864  0.49118  0.36158  1.0000
  Fe  Fe58      1.0  0.48436  0.53803  0.41639  1.0000
  N   N31       1.0  0.28244  0.79237  0.36834  1.0000
  C   C539      1.0  0.29491  0.80762  0.34860  1.0000
  C   C540      1.0  0.26136  0.78583  0.36299  1.0000
  C   C541      1.0  0.27361  0.80653  0.38578  1.0000
  C   C542      1.0  0.29813  0.77114  0.37686  1.0000
  C   C543      1.0  0.31840  0.76133  0.36001  1.0000
  C   C544      1.0  0.31471  0.81878  0.35274  1.0000
  C   C545      1.0  0.25815  0.79483  0.40698  1.0000
  C   C546      1.0  0.26606  0.77188  0.34476  1.0000
  C   C547      1.0  0.24336  0.76585  0.34148  1.0000
  C   C548      1.0  0.32953  0.73749  0.36977  1.0000
  C   C549      1.0  0.33272  0.82518  0.33205  1.0000
  C   C550      1.0  0.25617  0.80726  0.42557  1.0000
  H   H970      1.0  0.28232  0.82194  0.34180  1.0000
  H   H971      1.0  0.30217  0.79828  0.33512  1.0000
  H   H972      1.0  0.25146  0.77515  0.37751  1.0000
  H   H973      1.0  0.24903  0.80157  0.35856  1.0000
  H   H974      1.0  0.05385  0.86254  0.40589  1.0000
  H   H975      1.0  0.05101  0.89620  0.29699  1.0000
  C   C551      1.0  0.11628  0.91192  0.39624  1.0000
  C   C552      1.0  0.44851  0.52516  0.30105  1.0000
  C   C553      1.0  0.33104  0.55725  0.35712  1.0000
  H   H976      1.0  0.45142  0.76870  0.26757  1.0000
  H   H977      1.0  0.39726  0.73826  0.32725  1.0000
  H   H978      1.0  0.10452  0.85387  0.41251  1.0000
  H   H979      1.0  0.48426  0.58492  0.30916  1.0000
  C   C554      1.0  0.06540  0.91166  0.34845  1.0000
  H   H980      1.0  0.44403  0.59405  0.33506  1.0000
  H   H981      1.0  0.44845  0.51657  0.31824  1.0000
  H   H982      1.0  0.29667  0.70765  0.30440  1.0000
  C   C555      1.0  0.39168  0.74734  0.31185  1.0000
  H   H983      1.0  0.28570  0.65603  0.25540  1.0000
  Fe  Fe59      1.0  0.33220  0.81119  0.27745  1.0000
  C   C556      1.0  0.28260  0.51493  0.40645  1.0000
  H   H984      1.0  0.26625  0.57744  0.28236  1.0000
  H   H985      1.0  0.08449  0.81796  0.41733  1.0000
  C   C557      1.0  0.16837  0.55607  0.25118  1.0000
  C   C558      1.0  0.44785  0.60194  0.31735  1.0000
  C   C559      1.0  0.43890  0.60182  0.28146  1.0000
  H   H986      1.0  0.07530  0.78238  0.43362  1.0000
  H   H987      1.0  0.42496  0.72986  0.24749  1.0000
  C   C560      1.0  0.31385  0.72013  0.27155  1.0000
  C   C561      1.0  0.44944  0.81370  0.26629  1.0000
  H   H988      1.0  0.30055  0.54780  0.32388  1.0000
  C   C562      1.0  0.08117  0.94317  0.37913  1.0000
  H   H989      1.0  0.08932  0.90256  0.42401  1.0000
  H   H990      1.0  0.44041  0.62036  0.31590  1.0000
  C   C563      1.0  0.02429  0.90676  0.48191  1.0000
  H   H991      1.0  0.23263  0.82484  0.32962  1.0000
  H   H992      1.0  0.05561  0.91008  0.36552  1.0000
  H   H993      1.0  0.27241  0.56266  0.31953  1.0000
  H   H994      1.0  0.42553  0.75698  0.29664  1.0000
  H   H995      1.0  0.31358  0.56239  0.35278  1.0000
  H   H996      1.0  0.43815  0.62073  0.27979  1.0000
  Fe  Fe60      1.0  0.36330  0.53642  0.28616  1.0000
  C   C564      1.0  0.40519  0.75967  0.27125  1.0000
  H   H997      1.0  0.44141  0.83041  0.27090  1.0000
  H   H998      1.0  0.07695  0.87958  0.39206  1.0000
  C   C565      1.0  0.44138  0.77864  0.25518  1.0000
  H   H999      1.0  0.43812  0.50576  0.37817  1.0000
  H   H1000     1.0  0.43123  0.93179  0.24150  1.0000
  H   H1001     1.0  0.28565  0.49537  0.38232  1.0000
  H   H1002     1.0  0.09407  0.78615  0.47353  1.0000
  C   C566      1.0  0.08569  0.85294  0.41903  1.0000
  C   C567      1.0  0.29993  0.56446  0.29041  1.0000
  C   C568      1.0  0.13668  0.79505  0.45063  1.0000
  H   H1003     1.0  0.11530  0.93191  0.43829  1.0000
  C   C569      1.0  0.09373  0.83122  0.46363  1.0000
  H   H1004     1.0  0.46670  0.52635  0.29208  1.0000
  H   H1005     1.0  0.15945  0.69708  0.29285  1.0000
  H   H1006     1.0  0.18527  0.69523  0.24419  1.0000
  H   H1007     1.0  0.05366  0.96366  0.44335  1.0000
  C   C570      1.0  0.41274  0.74789  0.29297  1.0000
  H   H1008     1.0  0.06202  0.82850  0.43727  1.0000
  Fe  Fe61      1.0  0.02064  0.95798  0.40273  1.0000
  H   H1009     1.0  0.24269  0.87341  0.45696  1.0000
  H   H1010     1.0  0.23224  0.81144  0.30737  1.0000
  C   C571      1.0  0.23849  0.82560  0.31189  1.0000
  H   H1011     1.0  0.23626  0.86221  0.30408  1.0000
  C   C572      1.0  0.15953  0.83614  0.47475  1.0000
  S   S126      1.0  0.34362  0.51228  0.31279  1.0000
  S   S127      1.0  0.35496  0.52357  0.25925  1.0000
  C   C573      1.0  0.04311  0.88308  0.34110  1.0000
  S   S128      1.0  0.46135  0.51568  0.41018  1.0000
  H   H1012     1.0  0.19460  0.82990  0.45680  1.0000
  H   H1013     1.0  0.48150  0.59972  0.34235  1.0000
  C   C574      1.0  0.42237  0.88139  0.24893  1.0000
  H   H1014     1.0  0.25781  0.82316  0.30799  1.0000
  S   S129      1.0  0.46613  0.89292  0.24564  1.0000
  C   C575      1.0  0.22906  0.84876  0.29935  1.0000
  H   H1015     1.0  0.23562  0.84893  0.28184  1.0000
  H   H1016     1.0  0.14260  0.55092  0.28079  1.0000
  H   H1017     1.0  0.46637  0.62645  0.24334  1.0000
  H   H1018     1.0  0.16106  0.85886  0.33628  1.0000
  S   S130      1.0  0.04698  0.92889  0.41447  1.0000
  C   C576      1.0  0.07191  0.87821  0.27297  1.0000
  H   H1019     1.0  0.19792  0.85298  0.32270  1.0000
  C   C577      1.0  0.05264  0.87898  0.29315  1.0000
  H   H1020     1.0  0.24759  0.51049  0.40430  1.0000
  C   C578      1.0  0.17915  0.88786  0.25424  1.0000
  C   C579      1.0  0.19412  0.87029  0.26901  1.0000
  H   H1021     1.0  0.28325  0.53538  0.31117  1.0000
  Fe  Fe62      1.0  0.30743  0.84765  0.24646  1.0000
  H   H1022     1.0  0.05730  0.84801  0.46452  1.0000
  H   H1023     1.0  0.27228  0.61130  0.28644  1.0000
  H   H1024     1.0  0.10223  0.84690  0.45558  1.0000
  H   H1025     1.0  0.18897  0.88042  0.46829  1.0000
  N   N32       1.0  0.19004  0.87343  0.29217  1.0000
  C   C580      1.0  0.46270  0.60911  0.24300  1.0000
  H   H1026     1.0  0.18372  0.90992  0.29286  1.0000
  C   C581      1.0  0.15644  0.51897  0.27023  1.0000
  H   H1027     1.0  0.14630  0.70096  0.26938  1.0000
  H   H1028     1.0  0.37827  0.73817  0.30916  1.0000
  H   H1029     1.0  0.05734  0.97410  0.24906  1.0000
  H   H1030     1.0  0.12082  0.86917  0.32789  1.0000
  C   C582      1.0  0.08106  0.82805  0.43039  1.0000
  C   C583      1.0  0.27638  0.62155  0.26970  1.0000
  C   C584      1.0  0.07977  0.75345  0.45955  1.0000
  C   C585      1.0  0.28339  0.64413  0.27146  1.0000
  H   H1031     1.0  0.21272  0.87052  0.26095  1.0000
  C   C586      1.0  0.32535  0.75485  0.28821  1.0000
  H   H1032     1.0  0.47722  0.59291  0.27120  1.0000
  N   N33       1.0  0.09513  0.81626  0.44751  1.0000
  H   H1033     1.0  0.20794  0.90014  0.46913  1.0000
  S   S131      1.0  0.10657  0.81285  0.25590  1.0000
  C   C587      1.0  0.09593  0.51605  0.24466  1.0000
  H   H1034     1.0  0.10378  0.82215  0.47637  1.0000
  Fe  Fe63      1.0  0.38733  0.49828  0.26198  1.0000
  H   H1035     1.0  0.02203  0.84057  0.25918  1.0000
  H   H1036     1.0  0.25757  0.48439  0.28106  1.0000
  H   H1037     1.0  0.22440  0.85212  0.45781  1.0000
  H   H1038     1.0  0.17870  0.90567  0.25637  1.0000
  C   C588      1.0  0.08555  0.79421  0.45943  1.0000
  H   H1039     1.0  0.03293  0.89574  0.46997  1.0000
  S   S132      1.0  0.30001  0.49411  0.28864  1.0000
  H   H1040     1.0  0.06159  0.75619  0.46880  1.0000
  H   H1041     1.0  0.25612  0.49611  0.42979  1.0000
  H   H1042     1.0  0.21455  0.91120  0.26102  1.0000
  H   H1043     1.0  0.07843  0.96431  0.26640  1.0000
  C   C589      1.0  0.06089  0.97401  0.26524  1.0000
  C   C590      1.0  0.22518  0.87082  0.45539  1.0000
  C   C591      1.0  0.00157  0.93827  0.29679  1.0000
  H   H1044     1.0  0.08065  0.74093  0.44913  1.0000
  C   C592      1.0  0.26214  0.81749  0.25595  1.0000
  H   H1045     1.0  0.11348  0.55973  0.24461  1.0000
  H   H1046     1.0  0.38520  0.56349  0.25001  1.0000
  H   H1047     1.0  0.27824  0.81472  0.26175  1.0000
  H   H1048     1.0  0.21509  0.93712  0.28613  1.0000
  H   H1049     1.0  0.16361  0.78726  0.42293  1.0000
  S   S133      1.0  0.15395  0.82965  0.26217  1.0000
  H   H1050     1.0  0.25007  0.78660  0.27669  1.0000
  C   C593      1.0  0.11319  0.92254  0.45546  1.0000
  C   C594      1.0  0.24624  0.80149  0.26431  1.0000
  H   H1051     1.0  0.24849  0.52691  0.42402  1.0000
  C   C595      1.0  0.44997  0.53803  0.24197  1.0000
  C   C596      1.0  0.17535  0.72058  0.26418  1.0000
  H   H1052     1.0  0.04749  0.96511  0.27782  1.0000
  H   H1053     1.0  0.07701  0.87129  0.48040  1.0000
  H   H1054     1.0  0.21711  0.73898  0.25600  1.0000
  Fe  Fe64      1.0  0.35985  0.84342  0.24132  1.0000
  H   H1055     1.0  0.13664  0.90273  0.47643  1.0000
  C   C597      1.0  0.03416  0.92967  0.47596  1.0000
  H   H1056     1.0  0.22278  0.87906  0.43861  1.0000
  C   C598      1.0  0.19387  0.70210  0.25451  1.0000
  H   H1057     1.0  0.23867  0.90097  0.48539  1.0000
  C   C599      1.0  0.22735  0.72199  0.25432  1.0000
  H   H1058     1.0  0.42213  0.81355  0.24998  1.0000
  H   H1059     1.0  0.10523  0.90677  0.45709  1.0000
  H   H1060     1.0  0.08630  0.53218  0.24944  1.0000
  C   C600      1.0  0.06134  0.96232  0.48358  1.0000
  C   C601      1.0  0.00091  0.87930  0.32802  1.0000
  H   H1061     1.0  0.45443  0.69578  0.25430  1.0000
  H   H1062     1.0  0.08123  0.49524  0.27552  1.0000
  H   H1063     1.0  0.47330  0.74175  0.24794  1.0000
  S   S134      1.0  0.48342  0.54083  0.45068  1.0000
  Fe  Fe65      1.0  0.37715  0.48856  0.31111  1.0000
  H   H1064     1.0  0.26132  0.75782  0.24821  1.0000
  H   H1065     1.0  0.24332  0.51817  0.24550  1.0000
  Fe  Fe66      1.0  0.12846  0.77897  0.25200  1.0000
  H   H1066     1.0  0.28570  0.77124  0.24903  1.0000
  S   S135      1.0  0.11283  0.74906  0.24814  1.0000
  H   H1067     1.0  0.29104  0.51673  0.41945  1.0000
  H   H1068     1.0  0.32860  0.50717  0.41269  1.0000
  H   H1069     1.0  0.99410  0.97600  0.26357  1.0000
  H   H1070     1.0  0.99628  0.88967  0.34093  1.0000
  H   H1071     1.0  0.46767  0.56755  0.48795  1.0000
  H   H1072     1.0  0.06093  0.82402  0.48666  1.0000
  C   C602      1.0  0.37152  0.49141  0.41691  1.0000
  H   H1073     1.0  0.31283  0.48627  0.34854  1.0000
  C   C603      1.0  0.33311  0.49156  0.40553  1.0000
  C   C604      1.0  0.29501  0.49450  0.39560  1.0000
  H   H1074     1.0  0.09847  0.92901  0.48801  1.0000
  C   C605      1.0  0.36010  0.48643  0.39988  1.0000
  N   N34       1.0  0.21661  0.71016  0.24160  1.0000
  H   H1075     1.0  0.49056  0.51316  0.31896  1.0000
  H   H1076     1.0  0.36510  0.48108  0.43321  1.0000
  H   H1077     1.0  0.39074  0.48688  0.41249  1.0000
  H   H1078     1.0  0.10842  0.48191  0.26174  1.0000
  H   H1079     1.0  0.02544  0.93951  0.48883  1.0000
  C   C606      1.0  0.07609  0.97877  0.48822  1.0000
  H   H1080     1.0  0.06470  0.91441  0.48952  1.0000
  H   H1081     1.0  0.21004  0.80701  0.48922  1.0000
  C   C607      1.0  0.47288  0.52705  0.24089  1.0000
  S   S136      1.0  0.33590  0.81849  0.24131  1.0000
  C   C608      1.0  0.31437  0.57355  0.24170  1.0000
  C   C609      1.0  0.06995  0.85542  0.49032  1.0000
  H   H1082     1.0  0.31218  0.55577  0.24093  1.0000
  C   C610      1.0  0.35985  0.62804  0.24121  1.0000
  H   H1083     1.0  0.33272  0.73653  0.24063  1.0000
  C   C611      1.0  0.48742  0.77208  0.72563  1.0000
  Fe  Fe67      1.0  0.15894  0.80638  0.56256  1.0000
  S   S137      1.0  0.12589  0.79010  0.57372  1.0000
  S   S138      1.0  0.18759  0.79760  0.53496  1.0000
  Fe  Fe68      1.0  0.14116  0.84295  0.59034  1.0000
  S   S139      1.0  0.10656  0.83008  0.60357  1.0000
  S   S140      1.0  0.15045  0.87550  0.59537  1.0000
  Fe  Fe69      1.0  0.12770  0.79522  0.60664  1.0000
  S   S141      1.0  0.11969  0.77033  0.63829  1.0000
  Fe  Fe70      1.0  0.10815  0.82649  0.56956  1.0000
  S   S142      1.0  0.16263  0.80827  0.59593  1.0000
  S   S143      1.0  0.14101  0.84230  0.55613  1.0000
  S   S144      1.0  0.24426  0.83037  0.67095  1.0000
  Fe  Fe71      1.0  0.21721  0.68228  0.67044  1.0000
  S   S145      1.0  0.19992  0.68681  0.70424  1.0000
  S   S146      1.0  0.20141  0.68869  0.64096  1.0000
  Fe  Fe72      1.0  0.26338  0.66259  0.68267  1.0000
  H   H1084     1.0  0.11815  0.96478  0.66133  1.0000
  S   S147      1.0  0.29909  0.64687  0.66905  1.0000
  Fe  Fe73      1.0  0.21882  0.65187  0.71491  1.0000
  H   H1085     1.0  0.46295  0.97996  0.73439  1.0000
  Fe  Fe74      1.0  0.23286  0.70018  0.70412  1.0000
  H   H1086     1.0  0.23700  0.51837  0.69728  1.0000
  S   S148      1.0  0.23318  0.64617  0.68106  1.0000
  S   S149      1.0  0.24869  0.69863  0.66927  1.0000
  H   H1087     1.0  0.08349  0.90034  0.68008  1.0000
  H   H1088     1.0  0.25768  0.50714  0.67572  1.0000
  S   S150      1.0  0.14815  0.56021  0.71566  1.0000
  H   H1089     1.0  0.34629  0.50700  0.72370  1.0000
  Fe  Fe75      1.0  0.38281  0.69718  0.71207  1.0000
  S   S151      1.0  0.37637  0.70062  0.67859  1.0000
  C   C612      1.0  0.24109  0.48179  0.70088  1.0000
  H   H1090     1.0  0.99305  0.90052  0.67395  1.0000
  C   C613      1.0  0.00080  0.95422  0.64471  1.0000
  C   C614      1.0  0.46628  0.78313  0.65651  1.0000
  C   C615      1.0  0.46264  0.72316  0.69372  1.0000
  H   H1091     1.0  0.21193  0.71665  0.54431  1.0000
  C   C616      1.0  0.45604  0.71168  0.66230  1.0000
  C   C617      1.0  0.44737  0.71888  0.68204  1.0000
  H   H1092     1.0  0.26588  0.70233  0.58484  1.0000
  H   H1093     1.0  0.44419  0.70759  0.65373  1.0000
  H   H1094     1.0  0.42886  0.72041  0.68852  1.0000
  C   C618      1.0  0.25556  0.79307  0.53670  1.0000
  H   H1095     1.0  0.43627  0.83086  0.65879  1.0000
  H   H1096     1.0  0.09804  0.91130  0.56587  1.0000
  C   C619      1.0  0.42966  0.91385  0.70770  1.0000
  C   C620      1.0  0.20770  0.90325  0.51165  1.0000
  H   H1097     1.0  0.99861  0.96529  0.62938  1.0000
  C   C621      1.0  0.43976  0.56186  0.73197  1.0000
  H   H1098     1.0  0.10079  0.63735  0.72523  1.0000
  H   H1099     1.0  0.10536  0.96760  0.72663  1.0000
  H   H1100     1.0  0.08509  0.79585  0.69207  1.0000
  C   C622      1.0  0.18837  0.60640  0.73624  1.0000
  C   C623      1.0  0.18252  0.58713  0.70920  1.0000
  H   H1101     1.0  0.19040  0.96088  0.69816  1.0000
  H   H1102     1.0  0.26857  0.79241  0.52136  1.0000
  C   C624      1.0  0.46311  0.79812  0.69942  1.0000
  H   H1103     1.0  0.20771  0.61052  0.70335  1.0000
  H   H1104     1.0  0.18676  0.58434  0.69271  1.0000
  H   H1105     1.0  0.15929  0.95799  0.58131  1.0000
  H   H1106     1.0  0.42837  0.80658  0.67889  1.0000
  C   C625      1.0  0.32016  0.66198  0.67214  1.0000
  C   C626      1.0  0.31770  0.67056  0.69101  1.0000
  C   C627      1.0  0.33529  0.68193  0.69347  1.0000
  C   C628      1.0  0.35467  0.68559  0.67662  1.0000
  C   C629      1.0  0.35664  0.67767  0.65751  1.0000
  C   C630      1.0  0.33969  0.66539  0.65549  1.0000
  H   H1107     1.0  0.30262  0.66785  0.70394  1.0000
  H   H1108     1.0  0.33376  0.68799  0.70828  1.0000
  H   H1109     1.0  0.37146  0.68078  0.64434  1.0000
  H   H1110     1.0  0.34149  0.65891  0.64084  1.0000
  C   C631      1.0  0.23902  0.80244  0.68500  1.0000
  C   C632      1.0  0.24412  0.78437  0.67365  1.0000
  C   C633      1.0  0.24083  0.76178  0.68471  1.0000
  C   C634      1.0  0.23326  0.75707  0.70727  1.0000
  C   C635      1.0  0.22816  0.77514  0.71860  1.0000
  C   C636      1.0  0.23075  0.79780  0.70746  1.0000
  H   H1111     1.0  0.25047  0.78791  0.65625  1.0000
  H   H1112     1.0  0.24456  0.74797  0.67586  1.0000
  N   N35       1.0  0.08360  0.93961  0.61702  1.0000
  H   H1113     1.0  0.22703  0.81158  0.71632  1.0000
  C   C637      1.0  0.14116  0.74658  0.63940  1.0000
  C   C638      1.0  0.15195  0.73826  0.62059  1.0000
  C   C639      1.0  0.16957  0.71950  0.62155  1.0000
  C   C640      1.0  0.17726  0.70994  0.64101  1.0000
  C   C641      1.0  0.16634  0.71817  0.65986  1.0000
  C   C642      1.0  0.14792  0.73619  0.65915  1.0000
  H   H1114     1.0  0.14650  0.74612  0.60537  1.0000
  H   H1115     1.0  0.17773  0.71283  0.60710  1.0000
  H   H1116     1.0  0.17202  0.71074  0.67493  1.0000
  H   H1117     1.0  0.13930  0.74247  0.67372  1.0000
  C   C643      1.0  0.14118  0.87894  0.62240  1.0000
  C   C644      1.0  0.15083  0.89454  0.62962  1.0000
  C   C645      1.0  0.12488  0.86578  0.63704  1.0000
  H   H1118     1.0  0.16297  0.90526  0.61833  1.0000
  H   H1119     1.0  0.11664  0.85433  0.63154  1.0000
  C   C646      1.0  0.43732  0.82212  0.67582  1.0000
  H   H1120     1.0  0.12360  0.92922  0.53077  1.0000
  C   C647      1.0  0.15295  0.81783  0.51282  1.0000
  C   C648      1.0  0.17670  0.80982  0.51113  1.0000
  C   C649      1.0  0.16004  0.64281  0.67477  1.0000
  H   H1121     1.0  0.30408  0.48730  0.67347  1.0000
  H   H1122     1.0  0.47404  0.76016  0.73111  1.0000
  H   H1123     1.0  0.14097  0.81400  0.52812  1.0000
  H   H1124     1.0  0.02029  0.51780  0.58443  1.0000
  H   H1125     1.0  0.09957  0.91293  0.63996  1.0000
  H   H1126     1.0  0.43733  0.94293  0.68184  1.0000
  H   H1127     1.0  0.15443  0.95815  0.69885  1.0000
  H   H1128     1.0  0.29156  0.71721  0.73637  1.0000
  H   H1129     1.0  0.45599  0.59519  0.49515  1.0000
  H   H1130     1.0  0.26764  0.85428  0.70737  1.0000
  H   H1131     1.0  0.28560  0.52933  0.66258  1.0000
  H   H1132     1.0  0.04564  0.92072  0.52757  1.0000
  H   H1133     1.0  0.22610  0.48286  0.69298  1.0000
  H   H1134     1.0  0.28236  0.48742  0.70561  1.0000
  H   H1135     1.0  0.32869  0.49858  0.67753  1.0000
  H   H1136     1.0  0.13918  0.95564  0.56508  1.0000
  C   C650      1.0  0.41851  0.57138  0.72160  1.0000
  H   H1137     1.0  0.17329  0.98027  0.73003  1.0000
  C   C651      1.0  0.19168  0.81345  0.49072  1.0000
  H   H1138     1.0  0.47843  0.62288  0.63293  1.0000
  N   N36       1.0  0.23499  0.74646  0.58780  1.0000
  C   C652      1.0  0.25715  0.73515  0.59590  1.0000
  C   C653      1.0  0.21638  0.75037  0.60740  1.0000
  C   C654      1.0  0.23831  0.76954  0.57308  1.0000
  C   C655      1.0  0.22186  0.76527  0.62179  1.0000
  C   C656      1.0  0.27405  0.71811  0.58292  1.0000
  C   C657      1.0  0.29677  0.71054  0.59137  1.0000
  C   C658      1.0  0.20461  0.76308  0.64351  1.0000
  H   H1139     1.0  0.26730  0.74848  0.59713  1.0000
  H   H1140     1.0  0.25290  0.72480  0.61275  1.0000
  H   H1141     1.0  0.21281  0.73349  0.61798  1.0000
  H   H1142     1.0  0.19960  0.75886  0.60273  1.0000
  H   H1143     1.0  0.22124  0.77890  0.56951  1.0000
  H   H1144     1.0  0.24457  0.78076  0.58140  1.0000
  H   H1145     1.0  0.22027  0.78371  0.61359  1.0000
  H   H1146     1.0  0.23961  0.76013  0.62540  1.0000
  H   H1147     1.0  0.27850  0.72572  0.56538  1.0000
  H   H1148     1.0  0.29320  0.70187  0.60878  1.0000
  H   H1149     1.0  0.30832  0.69813  0.58200  1.0000
  H   H1150     1.0  0.30607  0.72555  0.58943  1.0000
  H   H1151     1.0  0.18645  0.76851  0.64086  1.0000
  H   H1152     1.0  0.20616  0.74503  0.65277  1.0000
  H   H1153     1.0  0.20853  0.77414  0.65334  1.0000
  C   C659      1.0  0.14521  0.94843  0.58062  1.0000
  C   C660      1.0  0.15517  0.90493  0.52694  1.0000
  H   H1154     1.0  0.45630  0.80704  0.71332  1.0000
  H   H1155     1.0  0.47513  0.81725  0.64365  1.0000
  H   H1156     1.0  0.05461  0.95210  0.49991  1.0000
  H   H1157     1.0  0.09696  0.59133  0.71429  1.0000
  H   H1158     1.0  0.26300  0.50411  0.72285  1.0000
  S   S152      1.0  0.13319  0.87449  0.69446  1.0000
  C   C661      1.0  0.21763  0.85701  0.54225  1.0000
  C   C662      1.0  0.21374  0.83939  0.56363  1.0000
  H   H1159     1.0  0.16475  0.91704  0.53094  1.0000
  H   H1160     1.0  0.10212  0.94109  0.64168  1.0000
  H   H1161     1.0  0.48651  0.85047  0.64432  1.0000
  H   H1162     1.0  0.33771  0.78785  0.71662  1.0000
  H   H1163     1.0  0.12890  0.81389  0.66148  1.0000
  H   H1164     1.0  0.46543  0.84257  0.69351  1.0000
  H   H1165     1.0  0.31073  0.50798  0.63494  1.0000
  H   H1166     1.0  0.17686  0.80371  0.71744  1.0000
  H   H1167     1.0  0.27474  0.82396  0.70667  1.0000
  C   C663      1.0  0.47758  0.90707  0.70799  1.0000
  H   H1168     1.0  0.46785  0.88348  0.67602  1.0000
  C   C664      1.0  0.19109  0.62468  0.64722  1.0000
  H   H1169     1.0  0.23004  0.84824  0.53009  1.0000
  H   H1170     1.0  0.22556  0.87103  0.54522  1.0000
  H   H1171     1.0  0.20134  0.84729  0.57650  1.0000
  H   H1172     1.0  0.20665  0.82444  0.56142  1.0000
  H   H1173     1.0  0.23054  0.83314  0.56910  1.0000
  H   H1174     1.0  0.00534  0.48289  0.60757  1.0000
  C   C665      1.0  0.46302  0.89181  0.72224  1.0000
  S   S153      1.0  0.41770  0.67879  0.71739  1.0000
  S   S154      1.0  0.00887  0.97214  0.58334  1.0000
  H   H1175     1.0  0.45808  0.59285  0.65060  1.0000
  H   H1176     1.0  0.08387  0.97412  0.62159  1.0000
  H   H1177     1.0  0.13915  0.61508  0.70827  1.0000
  H   H1178     1.0  0.42839  0.85505  0.68718  1.0000
  H   H1179     1.0  0.17077  0.90283  0.49376  1.0000
  H   H1180     1.0  0.05527  0.92130  0.65737  1.0000
  C   C666      1.0  0.48249  0.77201  0.63859  1.0000
  H   H1181     1.0  0.31853  0.53129  0.70187  1.0000
  H   H1182     1.0  0.08107  0.84703  0.50238  1.0000
  H   H1183     1.0  0.12625  0.83846  0.49674  1.0000
  H   H1184     1.0  0.00732  0.91542  0.70062  1.0000
  S   S155      1.0  0.02222  0.95869  0.69883  1.0000
  H   H1185     1.0  0.30976  0.53830  0.66825  1.0000
  C   C667      1.0  0.12509  0.95082  0.59991  1.0000
  S   S156      1.0  0.06709  0.94821  0.54641  1.0000
  H   H1186     1.0  0.35236  0.63259  0.70260  1.0000
  H   H1187     1.0  0.40586  0.95980  0.73992  1.0000
  H   H1188     1.0  0.43753  0.55787  0.66400  1.0000
  S   S157      1.0  0.23070  0.72879  0.72196  1.0000
  C   C668      1.0  0.31401  0.50223  0.66882  1.0000
  C   C669      1.0  0.48006  0.70868  0.65420  1.0000
  H   H1189     1.0  0.38637  0.85401  0.69879  1.0000
  C   C670      1.0  0.08805  0.90438  0.55745  1.0000
  N   N37       1.0  0.32595  0.76529  0.67153  1.0000
  C   C671      1.0  0.31993  0.78935  0.65913  1.0000
  C   C672      1.0  0.32498  0.74835  0.65800  1.0000
  C   C673      1.0  0.30866  0.76166  0.69285  1.0000
  C   C674      1.0  0.35018  0.76184  0.67623  1.0000
  C   C675      1.0  0.37036  0.76598  0.65621  1.0000
  C   C676      1.0  0.32443  0.80915  0.66866  1.0000
  C   C677      1.0  0.30914  0.73658  0.70612  1.0000
  C   C678      1.0  0.30068  0.74795  0.65324  1.0000
  C   C679      1.0  0.30151  0.72898  0.64091  1.0000
  C   C680      1.0  0.39352  0.76448  0.66326  1.0000
  C   C681      1.0  0.31562  0.83262  0.65605  1.0000
  C   C682      1.0  0.15572  0.95576  0.65690  1.0000
  H   H1190     1.0  0.30110  0.79250  0.65820  1.0000
  H   H1191     1.0  0.32948  0.79151  0.64193  1.0000
  H   H1192     1.0  0.33683  0.75206  0.64189  1.0000
  H   H1193     1.0  0.33172  0.73064  0.66565  1.0000
  H   H1194     1.0  0.29049  0.76784  0.69035  1.0000
  H   H1195     1.0  0.31146  0.77233  0.70366  1.0000
  H   H1196     1.0  0.35118  0.77276  0.68750  1.0000
  H   H1197     1.0  0.35450  0.74403  0.68506  1.0000
  H   H1198     1.0  0.36720  0.78314  0.64571  1.0000
  H   H1199     1.0  0.37253  0.75263  0.64636  1.0000
  H   H1200     1.0  0.31540  0.80782  0.68586  1.0000
  H   H1201     1.0  0.34334  0.80884  0.66780  1.0000
  H   H1202     1.0  0.49134  0.63649  0.68355  1.0000
  H   H1203     1.0  0.30413  0.72513  0.69728  1.0000
  H   H1204     1.0  0.28745  0.74465  0.66838  1.0000
  H   H1205     1.0  0.29473  0.76459  0.64315  1.0000
  H   H1206     1.0  0.28416  0.72959  0.63699  1.0000
  H   H1207     1.0  0.31469  0.73126  0.62553  1.0000
  H   H1208     1.0  0.30593  0.71180  0.65104  1.0000
  H   H1209     1.0  0.39786  0.74714  0.67312  1.0000
  H   H1210     1.0  0.40774  0.76729  0.64872  1.0000
  H   H1211     1.0  0.39263  0.77770  0.67297  1.0000
  H   H1212     1.0  0.32425  0.83492  0.63863  1.0000
  H   H1213     1.0  0.29642  0.83444  0.65746  1.0000
  H   H1214     1.0  0.31959  0.84647  0.66284  1.0000
  C   C683      1.0  0.47803  0.66322  0.71768  1.0000
  S   S158      1.0  0.39972  0.91927  0.70728  1.0000
  C   C684      1.0  0.14073  0.67177  0.73513  1.0000
  Fe  Fe76      1.0  0.47394  0.50202  0.71489  1.0000
  C   C685      1.0  0.14969  0.77241  0.71031  1.0000
  H   H1215     1.0  0.48093  0.60330  0.60608  1.0000
  C   C686      1.0  0.32464  0.50479  0.64458  1.0000
  Fe  Fe77      1.0  0.16973  0.87855  0.69575  1.0000
  H   H1216     1.0  0.11461  0.67035  0.70666  1.0000
  H   H1217     1.0  0.18597  0.75598  0.70393  1.0000
  Fe  Fe78      1.0  0.20443  0.88633  0.72066  1.0000
  H   H1218     1.0  0.24031  0.72493  0.56385  1.0000
  C   C687      1.0  0.16511  0.62767  0.65742  1.0000
  H   H1219     1.0  0.46448  0.76993  0.67170  1.0000
  C   C688      1.0  0.27131  0.50430  0.70551  1.0000
  H   H1220     1.0  0.16455  0.65123  0.71459  1.0000
  H   H1221     1.0  0.45897  0.55799  0.67957  1.0000
  C   C689      1.0  0.11657  0.93502  0.71716  1.0000
  H   H1222     1.0  0.16751  0.65918  0.66731  1.0000
  H   H1223     1.0  0.45637  0.86060  0.65395  1.0000
  H   H1224     1.0  0.22562  0.86266  0.49661  1.0000
  H   H1225     1.0  0.05213  0.86024  0.49938  1.0000
  C   C690      1.0  0.26931  0.54607  0.69768  1.0000
  C   C691      1.0  0.13491  0.96992  0.65279  1.0000
  H   H1226     1.0  0.08796  0.96875  0.49912  1.0000
  C   C692      1.0  0.25142  0.50450  0.69355  1.0000
  H   H1227     1.0  0.11688  0.70503  0.62552  1.0000
  S   S159      1.0  0.34386  0.82843  0.72711  1.0000
  H   H1228     1.0  0.20164  0.61700  0.65989  1.0000
  C   C693      1.0  0.01123  0.94875  0.68000  1.0000
  H   H1229     1.0  0.25198  0.75730  0.54228  1.0000
  H   H1230     1.0  0.16164  0.87659  0.50993  1.0000
  H   H1231     1.0  0.31919  0.48630  0.71267  1.0000
  H   H1232     1.0  0.29288  0.56825  0.70254  1.0000
  C   C694      1.0  0.25592  0.76913  0.55136  1.0000
  H   H1233     1.0  0.05895  0.96912  0.58601  1.0000
  C   C695      1.0  0.17754  0.96242  0.64587  1.0000
  C   C696      1.0  0.28073  0.56858  0.69174  1.0000
  C   C697      1.0  0.42219  0.83796  0.69099  1.0000
  H   H1234     1.0  0.10107  0.94164  0.58337  1.0000
  C   C698      1.0  0.48096  0.87687  0.66282  1.0000
  C   C699      1.0  0.14331  0.96524  0.71274  1.0000
  C   C700      1.0  0.48644  0.72252  0.68454  1.0000
  C   C701      1.0  0.99739  0.91790  0.66999  1.0000
  H   H1235     1.0  0.04833  0.93093  0.62329  1.0000
  C   C702      1.0  0.47356  0.83558  0.67858  1.0000
  C   C703      1.0  0.13316  0.66395  0.70053  1.0000
  H   H1236     1.0  0.27601  0.58740  0.73526  1.0000
  H   H1237     1.0  0.47083  0.95486  0.72284  1.0000
  H   H1238     1.0  0.15249  0.93004  0.58117  1.0000
  Fe  Fe79      1.0  0.41993  0.70863  0.73158  1.0000
  C   C704      1.0  0.20717  0.86909  0.49559  1.0000
  H   H1239     1.0  0.18356  0.87555  0.54797  1.0000
  C   C705      1.0  0.00540  0.92635  0.68509  1.0000
  C   C706      1.0  0.28003  0.83306  0.73580  1.0000
  H   H1240     1.0  0.13236  0.94427  0.61487  1.0000
  C   C707      1.0  0.07239  0.91894  0.54568  1.0000
  Fe  Fe80      1.0  0.02846  0.95289  0.55752  1.0000
  H   H1241     1.0  0.16082  0.72496  0.71868  1.0000
  H   H1242     1.0  0.25995  0.80559  0.54483  1.0000
  H   H1243     1.0  0.27386  0.76376  0.55452  1.0000
  C   C708      1.0  0.11818  0.96073  0.71348  1.0000
  H   H1244     1.0  0.42265  0.83017  0.70822  1.0000
  H   H1245     1.0  0.02652  0.89762  0.49851  1.0000
  H   H1246     1.0  0.23668  0.93767  0.49777  1.0000
  C   C709      1.0  0.46823  0.92557  0.69360  1.0000
  C   C710      1.0  0.39680  0.84208  0.68833  1.0000
  C   C711      1.0  0.47371  0.85557  0.65847  1.0000
  C   C712      1.0  0.07317  0.96450  0.61559  1.0000
  H   H1247     1.0  0.12256  0.92553  0.73227  1.0000
  C   C713      1.0  0.24484  0.92106  0.50630  1.0000
  H   H1248     1.0  0.10103  0.86959  0.56960  1.0000
  S   S160      1.0  0.15027  0.49427  0.73071  1.0000
  H   H1249     1.0  0.05115  0.89414  0.59654  1.0000
  H   H1250     1.0  0.05575  0.96577  0.62660  1.0000
  H   H1251     1.0  0.05006  0.87867  0.52996  1.0000
  H   H1252     1.0  0.25070  0.59176  0.68197  1.0000
  H   H1253     1.0  0.46502  0.53982  0.65974  1.0000
  C   C714      1.0  0.12754  0.68002  0.65273  1.0000
  H   H1254     1.0  0.12255  0.90738  0.51619  1.0000
  H   H1255     1.0  0.11397  0.80424  0.71113  1.0000
  C   C715      1.0  0.07737  0.91887  0.67992  1.0000
  H   H1256     1.0  0.08838  0.63427  0.70329  1.0000
  H   H1257     1.0  0.22906  0.97302  0.68927  1.0000
  N   N38       1.0  0.15143  0.79755  0.70085  1.0000
  H   H1258     1.0  0.19887  0.85321  0.49850  1.0000
  C   C716      1.0  0.12774  0.80894  0.69654  1.0000
  C   C717      1.0  0.16979  0.79967  0.68025  1.0000
  C   C718      1.0  0.19765  0.72271  0.55701  1.0000
  H   H1259     1.0  0.48045  0.60538  0.67076  1.0000
  H   H1260     1.0  0.39551  0.85003  0.67123  1.0000
  C   C719      1.0  0.17342  0.82461  0.66815  1.0000
  C   C720      1.0  0.12041  0.80340  0.67691  1.0000
  C   C721      1.0  0.09398  0.80831  0.67845  1.0000
  N   N39       1.0  0.13483  0.64751  0.68568  1.0000
  C   C722      1.0  0.18940  0.82518  0.64585  1.0000
  H   H1261     1.0  0.14608  0.76386  0.69819  1.0000
  H   H1262     1.0  0.29053  0.57144  0.67470  1.0000
  C   C723      1.0  0.40198  0.77805  0.73753  1.0000
  H   H1263     1.0  0.12646  0.82793  0.69405  1.0000
  H   H1264     1.0  0.16595  0.79031  0.66880  1.0000
  H   H1265     1.0  0.18710  0.79132  0.68381  1.0000
  C   C724      1.0  0.05872  0.90967  0.53570  1.0000
  H   H1266     1.0  0.15686  0.82808  0.71004  1.0000
  C   C725      1.0  0.13383  0.91900  0.51865  1.0000
  H   H1267     1.0  0.15548  0.63544  0.64412  1.0000
  C   C726      1.0  0.41687  0.50559  0.73407  1.0000
  C   C727      1.0  0.31204  0.49855  0.72365  1.0000
  H   H1268     1.0  0.18154  0.83298  0.67762  1.0000
  H   H1269     1.0  0.15673  0.83506  0.66561  1.0000
  C   C728      1.0  0.16497  0.57610  0.72436  1.0000
  H   H1270     1.0  0.29762  0.84169  0.70227  1.0000
  C   C729      1.0  0.05275  0.88845  0.61384  1.0000
  H   H1271     1.0  0.20414  0.90786  0.52795  1.0000
  H   H1272     1.0  0.08710  0.82600  0.68101  1.0000
  H   H1273     1.0  0.43570  0.59455  0.69476  1.0000
  C   C730      1.0  0.44443  0.92870  0.69318  1.0000
  C   C731      1.0  0.07660  0.87122  0.54916  1.0000
  C   C732      1.0  0.27988  0.83854  0.71155  1.0000
  H   H1274     1.0  0.20712  0.81633  0.64754  1.0000
  H   H1275     1.0  0.18208  0.81700  0.63560  1.0000
  H   H1276     1.0  0.19091  0.84336  0.63752  1.0000
  H   H1277     1.0  0.47944  0.93740  0.68259  1.0000
  H   H1278     1.0  0.12561  0.78513  0.67581  1.0000
  H   H1279     1.0  0.08845  0.89401  0.60812  1.0000
  H   H1280     1.0  0.14514  0.67621  0.64282  1.0000
  H   H1281     1.0  0.03564  0.89291  0.62435  1.0000
  H   H1282     1.0  0.48722  0.52172  0.62214  1.0000
  C   C733      1.0  0.12653  0.62501  0.69820  1.0000
  S   S161      1.0  0.17677  0.90972  0.70487  1.0000
  H   H1283     1.0  0.18230  0.73049  0.54949  1.0000
  C   C734      1.0  0.11965  0.65827  0.66925  1.0000
  C   C735      1.0  0.07169  0.89973  0.61839  1.0000
  S   S162      1.0  0.45224  0.72615  0.72077  1.0000
  H   H1284     1.0  0.40286  0.57052  0.73487  1.0000
  H   H1285     1.0  0.18181  0.72328  0.73529  1.0000
  H   H1286     1.0  0.19677  0.64152  0.63837  1.0000
  H   H1287     1.0  0.21696  0.97121  0.71780  1.0000
  H   H1288     1.0  0.19267  0.70777  0.57006  1.0000
  C   C736      1.0  0.46986  0.58029  0.49704  1.0000
  H   H1289     1.0  0.14871  0.89294  0.54225  1.0000
  H   H1290     1.0  0.06364  0.93139  0.59635  1.0000
  C   C737      1.0  0.20520  0.74073  0.56621  1.0000
  H   H1291     1.0  0.44890  0.78813  0.65197  1.0000
  H   H1292     1.0  0.07282  0.89299  0.63568  1.0000
  N   N40       1.0  0.46240  0.81511  0.67819  1.0000
  C   C738      1.0  0.45650  0.55684  0.66336  1.0000
  H   H1293     1.0  0.46187  0.57559  0.63048  1.0000
  C   C739      1.0  0.19430  0.60211  0.71517  1.0000
  H   H1294     1.0  0.38915  0.82565  0.69318  1.0000
  S   S163      1.0  0.19421  0.85433  0.71511  1.0000
  H   H1295     1.0  0.47603  0.64874  0.66161  1.0000
  H   H1296     1.0  0.09664  0.48554  0.70489  1.0000
  H   H1297     1.0  0.08651  0.97963  0.58123  1.0000
  H   H1298     1.0  0.27074  0.60515  0.69068  1.0000
  H   H1299     1.0  0.20036  0.91880  0.50088  1.0000
  H   H1300     1.0  0.17070  0.63389  0.68701  1.0000
  S   S164      1.0  0.43707  0.51160  0.70962  1.0000
  C   C740      1.0  0.30311  0.52269  0.71128  1.0000
  H   H1301     1.0  0.29740  0.74497  0.73819  1.0000
  C   C741      1.0  0.29200  0.73542  0.72784  1.0000
  C   C742      1.0  0.46661  0.57637  0.64592  1.0000
  C   C743      1.0  0.39402  0.51697  0.73586  1.0000
  N   N41       1.0  0.39903  0.60877  0.69978  1.0000
  C   C744      1.0  0.40404  0.63289  0.68869  1.0000
  S   S165      1.0  0.38635  0.72816  0.72386  1.0000
  H   H1302     1.0  0.36633  0.64601  0.71729  1.0000
  C   C745      1.0  0.39428  0.59572  0.68432  1.0000
  C   C746      1.0  0.37401  0.60677  0.67238  1.0000
  C   C747      1.0  0.42442  0.63507  0.66866  1.0000
  H   H1303     1.0  0.38542  0.60964  0.73387  1.0000
  C   C748      1.0  0.15818  0.80916  0.71638  1.0000
  C   C749      1.0  0.37332  0.59381  0.65490  1.0000
  C   C750      1.0  0.42676  0.66028  0.65828  1.0000
  H   H1304     1.0  0.40782  0.64167  0.70063  1.0000
  H   H1305     1.0  0.38857  0.64359  0.68308  1.0000
  H   H1306     1.0  0.29537  0.53256  0.72431  1.0000
  H   H1307     1.0  0.17765  0.76550  0.72941  1.0000
  C   C751      1.0  0.19427  0.86684  0.53485  1.0000
  H   H1308     1.0  0.41032  0.59242  0.67200  1.0000
  H   H1309     1.0  0.38991  0.57833  0.69309  1.0000
  H   H1310     1.0  0.37565  0.62491  0.66425  1.0000
  H   H1311     1.0  0.35708  0.60587  0.68402  1.0000
  H   H1312     1.0  0.44124  0.62724  0.67339  1.0000
  H   H1313     1.0  0.42159  0.62677  0.65602  1.0000
  H   H1314     1.0  0.33608  0.48870  0.64153  1.0000
  C   C752      1.0  0.19131  0.97937  0.69693  1.0000
  H   H1315     1.0  0.11880  0.96941  0.59894  1.0000
  C   C753      1.0  0.10539  0.93702  0.59985  1.0000
  H   H1316     1.0  0.25119  0.58738  0.71053  1.0000
  C   C754      1.0  0.26215  0.58942  0.69389  1.0000
  H   H1317     1.0  0.37126  0.57548  0.66216  1.0000
  H   H1318     1.0  0.35826  0.60176  0.64702  1.0000
  H   H1319     1.0  0.38956  0.59474  0.64223  1.0000
  H   H1320     1.0  0.44172  0.66151  0.64426  1.0000
  H   H1321     1.0  0.41077  0.66902  0.65226  1.0000
  H   H1322     1.0  0.42983  0.66944  0.67022  1.0000
  C   C755      1.0  0.06956  0.97793  0.59273  1.0000
  H   H1323     1.0  0.22236  0.71455  0.58907  1.0000
  C   C756      1.0  0.47562  0.80456  0.65915  1.0000
  H   H1324     1.0  0.14117  0.67962  0.69134  1.0000
  S   S166      1.0  0.23279  0.89114  0.69089  1.0000
  H   H1325     1.0  0.99162  0.50840  0.61813  1.0000
  H   H1326     1.0  0.15425  0.90663  0.65734  1.0000
  S   S167      1.0  0.00420  0.96739  0.53473  1.0000
  C   C757      1.0  0.11084  0.68943  0.63703  1.0000
  N   N42       1.0  0.19557  0.88280  0.51289  1.0000
  S   S168      1.0  0.07934  0.84133  0.55153  1.0000
  C   C758      1.0  0.00862  0.96267  0.65986  1.0000
  C   C759      1.0  0.10197  0.62670  0.71307  1.0000
  C   C760      1.0  0.14608  0.89518  0.65176  1.0000
  C   C761      1.0  0.11986  0.86682  0.65914  1.0000
  H   H1327     1.0  0.06263  0.92026  0.69391  1.0000
  H   H1328     1.0  0.15490  0.93994  0.66884  1.0000
  C   C762      1.0  0.29825  0.52450  0.67367  1.0000
  H   H1329     1.0  0.25707  0.54841  0.68643  1.0000
  H   H1330     1.0  0.18543  0.85194  0.53517  1.0000
  H   H1331     1.0  0.24368  0.88485  0.51124  1.0000
  H   H1332     1.0  0.09298  0.69434  0.64600  1.0000
  H   H1333     1.0  0.23808  0.79913  0.53252  1.0000
  H   H1334     1.0  0.27418  0.74294  0.72536  1.0000
  H   H1335     1.0  0.13446  0.77035  0.72407  1.0000
  S   S169      1.0  0.19609  0.88160  0.66458  1.0000
  H   H1336     1.0  0.11034  0.67644  0.62750  1.0000
  C   C763      1.0  0.13200  0.88006  0.66673  1.0000
  H   H1337     1.0  0.41769  0.55980  0.71083  1.0000
  H   H1338     1.0  0.47811  0.67520  0.70177  1.0000
  H   H1339     1.0  0.32667  0.72952  0.70967  1.0000
  H   H1340     1.0  0.06168  0.94844  0.66011  1.0000
  H   H1341     1.0  0.11331  0.91871  0.60163  1.0000
  C   C764      1.0  0.08990  0.88059  0.55941  1.0000
  H   H1342     1.0  0.19443  0.61308  0.63548  1.0000
  H   H1343     1.0  0.38888  0.52926  0.72211  1.0000
  C   C765      1.0  0.42296  0.96642  0.73358  1.0000
  H   H1344     1.0  0.10156  0.66346  0.67766  1.0000
  Fe  Fe81      1.0  0.22127  0.86008  0.68443  1.0000
  H   H1345     1.0  0.25824  0.54533  0.71423  1.0000
  H   H1346     1.0  0.45126  0.78496  0.70185  1.0000
  C   C766      1.0  0.22654  0.73062  0.57704  1.0000
  S   S170      1.0  0.49076  0.69608  0.63140  1.0000
  S   S171      1.0  0.20426  0.94661  0.65163  1.0000
  Fe  Fe82      1.0  0.37708  0.89607  0.73264  1.0000
  C   C767      1.0  0.06593  0.92637  0.61352  1.0000
  C   C768      1.0  0.06924  0.93052  0.65875  1.0000
  N   N43       1.0  0.28580  0.52394  0.69694  1.0000
  H   H1347     1.0  0.45606  0.56150  0.71940  1.0000
  H   H1348     1.0  0.08972  0.80644  0.66313  1.0000
  H   H1349     1.0  0.05735  0.86946  0.61720  1.0000
  H   H1350     1.0  0.12602  0.61378  0.68692  1.0000
  H   H1351     1.0  0.12781  0.69391  0.66122  1.0000
  S   S172      1.0  0.25062  0.66541  0.71739  1.0000
  H   H1352     1.0  0.48418  0.78456  0.73650  1.0000
  H   H1353     1.0  0.25476  0.88904  0.73064  1.0000
  H   H1354     1.0  0.13912  0.93123  0.50319  1.0000
  C   C769      1.0  0.37894  0.60930  0.71911  1.0000
  H   H1355     1.0  0.20990  0.75499  0.55240  1.0000
  C   C770      1.0  0.08987  0.93056  0.63904  1.0000
  H   H1356     1.0  0.18989  0.74728  0.57763  1.0000
  Fe  Fe83      1.0  0.20395  0.91204  0.67447  1.0000
  H   H1357     1.0  0.10781  0.85625  0.67050  1.0000
  H   H1358     1.0  0.33537  0.51920  0.63900  1.0000
  C   C771      1.0  0.06100  0.88583  0.53725  1.0000
  H   H1359     1.0  0.41840  0.77051  0.72801  1.0000
  H   H1360     1.0  0.14902  0.95439  0.72761  1.0000
  H   H1361     1.0  0.09174  0.92721  0.68191  1.0000
  C   C772      1.0  0.17077  0.89128  0.50992  1.0000
  H   H1362     1.0  0.16016  0.61022  0.66483  1.0000
  H   H1363     1.0  0.11794  0.64548  0.65993  1.0000
  H   H1364     1.0  0.10870  0.59500  0.73652  1.0000
  C   C773      1.0  0.43896  0.89542  0.72234  1.0000
  C   C774      1.0  0.17153  0.75782  0.71806  1.0000
  H   H1365     1.0  0.37063  0.59324  0.72320  1.0000
  C   C775      1.0  0.42048  0.59624  0.70827  1.0000
  C   C776      1.0  0.35939  0.63003  0.71749  1.0000
  S   S173      1.0  0.34183  0.89077  0.72912  1.0000
  C   C777      1.0  0.33109  0.50004  0.73543  1.0000
  H   H1366     1.0  0.47029  0.64787  0.71739  1.0000
  H   H1367     1.0  0.48205  0.89065  0.64795  1.0000
  S   S174      1.0  0.01184  0.92073  0.57197  1.0000
  H   H1368     1.0  0.32525  0.64170  0.73495  1.0000
  H   H1369     1.0  0.09822  0.93235  0.71864  1.0000
  H   H1370     1.0  0.11289  0.96877  0.69787  1.0000
  H   H1371     1.0  0.29756  0.49128  0.73624  1.0000
  H   H1372     1.0  0.42543  0.60637  0.71860  1.0000
  H   H1373     1.0  0.13931  0.63828  0.73025  1.0000
  H   H1374     1.0  0.48583  0.78481  0.62314  1.0000
  H   H1375     1.0  0.12723  0.92774  0.70316  1.0000
  H   H1376     1.0  0.33803  0.74751  0.73716  1.0000
  C   C778      1.0  0.00295  0.51394  0.58367  1.0000
  C   C779      1.0  0.14539  0.65450  0.72022  1.0000
  C   C780      1.0  0.14449  0.83138  0.49486  1.0000
  H   H1377     1.0  0.28989  0.61318  0.72654  1.0000
  H   H1378     1.0  0.47433  0.75809  0.63571  1.0000
  H   H1379     1.0  0.07438  0.48499  0.67674  1.0000
  H   H1380     1.0  0.39157  0.78953  0.72605  1.0000
  C   C781      1.0  0.48749  0.78479  0.70224  1.0000
  H   H1381     1.0  0.14642  0.68848  0.72593  1.0000
  H   H1382     1.0  0.29241  0.81731  0.73911  1.0000
  H   H1383     1.0  0.24211  0.92126  0.52387  1.0000
  C   C782      1.0  0.16611  0.73367  0.72982  1.0000
  H   H1384     1.0  0.28693  0.84745  0.73937  1.0000
  H   H1385     1.0  0.26390  0.91930  0.49955  1.0000
  H   H1386     1.0  0.01221  0.98008  0.65593  1.0000
  C   C783      1.0  0.09619  0.60289  0.72563  1.0000
  C   C784      1.0  0.23452  0.90093  0.50306  1.0000
  C   C785      1.0  0.33869  0.78376  0.73352  1.0000
  H   H1387     1.0  0.00523  0.50495  0.56999  1.0000
  H   H1388     1.0  0.48791  0.62138  0.56667  1.0000
  H   H1389     1.0  0.42948  0.96329  0.71684  1.0000
  H   H1390     1.0  0.46784  0.57201  0.51453  1.0000
  H   H1391     1.0  0.05420  0.95707  0.72700  1.0000
  H   H1392     1.0  0.47017  0.87773  0.73365  1.0000
  H   H1393     1.0  0.07834  0.60437  0.73574  1.0000
  H   H1394     1.0  0.22230  0.77157  0.73606  1.0000
  H   H1395     1.0  0.33188  0.61085  0.73828  1.0000
  C   C786      1.0  0.99281  0.49878  0.60515  1.0000
  C   C787      1.0  0.33918  0.62692  0.73696  1.0000
  H   H1396     1.0  0.46683  0.67163  0.73077  1.0000
  C   C788      1.0  0.46495  0.96083  0.73857  1.0000
  H   H1397     1.0  0.42766  0.88413  0.73387  1.0000
  C   C789      1.0  0.99528  0.93178  0.64969  1.0000
  C   C790      1.0  0.14321  0.80577  0.73971  1.0000
  H   H1398     1.0  0.12455  0.81201  0.73942  1.0000
  H   H1399     1.0  0.34509  0.62626  0.75219  1.0000
  S   S175      1.0  0.29798  0.50068  0.80402  1.0000
  H   H1400     1.0  0.44761  0.56441  0.86167  1.0000
  H   H1401     1.0  0.20518  0.48846  0.82395  1.0000
  C   C791      1.0  0.30321  0.51685  0.93268  1.0000
  H   H1402     1.0  0.22954  0.55848  0.91098  1.0000
  C   C792      1.0  0.34146  0.94757  0.79752  1.0000
  H   H1403     1.0  0.28876  0.96244  0.84966  1.0000
  H   H1404     1.0  0.36634  0.94177  0.85757  1.0000
  H   H1405     1.0  0.12579  0.49164  0.95106  1.0000
  H   H1406     1.0  0.11352  0.53377  0.98174  1.0000
  H   H1407     1.0  0.25129  0.51703  0.95943  1.0000
  C   C793      1.0  0.25143  0.49802  0.77209  1.0000
  Fe  Fe84      1.0  0.37422  0.86564  0.77686  1.0000
  S   S176      1.0  0.36398  0.90337  0.76605  1.0000
  S   S177      1.0  0.39296  0.85179  0.80471  1.0000
  S   S178      1.0  0.34419  0.72729  0.78030  1.0000
  H   H1408     1.0  0.19947  0.51489  0.74218  1.0000
  H   H1409     1.0  0.29173  0.84827  0.80749  1.0000
  H   H1410     1.0  0.21303  0.90324  0.79111  1.0000
  H   H1411     1.0  0.19631  0.48652  0.89794  1.0000
  H   H1412     1.0  0.09505  0.51805  0.95724  1.0000
  S   S179      1.0  0.48947  0.93050  0.86022  1.0000
  H   H1413     1.0  0.38999  0.79802  0.76216  1.0000
  S   S180      1.0  0.33907  0.85644  0.77761  1.0000
  Fe  Fe85      1.0  0.30661  0.56051  0.80986  1.0000
  S   S181      1.0  0.31034  0.59519  0.81448  1.0000
  S   S182      1.0  0.27092  0.55061  0.81475  1.0000
  H   H1414     1.0  0.36028  0.52133  0.75676  1.0000
  H   H1415     1.0  0.46970  0.97148  0.81382  1.0000
  H   H1416     1.0  0.21385  0.69665  0.76610  1.0000
  H   H1417     1.0  0.42967  0.53980  0.84591  1.0000
  H   H1418     1.0  0.40421  0.89682  0.78075  1.0000
  H   H1419     1.0  0.46475  0.74898  0.77685  1.0000
  C   C794      1.0  0.33799  0.60289  0.80165  1.0000
  C   C795      1.0  0.34259  0.62515  0.80040  1.0000
  C   C796      1.0  0.36404  0.63210  0.78882  1.0000
  C   C797      1.0  0.38107  0.61664  0.77881  1.0000
  C   C798      1.0  0.37690  0.59403  0.78084  1.0000
  C   C799      1.0  0.35524  0.58722  0.79211  1.0000
  H   H1420     1.0  0.32949  0.63711  0.80819  1.0000
  H   H1421     1.0  0.36737  0.64947  0.78762  1.0000
  H   H1422     1.0  0.22810  0.50749  0.91249  1.0000
  H   H1423     1.0  0.35186  0.56992  0.79333  1.0000
  C   C800      1.0  0.22718  0.52688  0.75111  1.0000
  C   C801      1.0  0.43565  0.90179  0.81674  1.0000
  H   H1424     1.0  0.26608  0.49320  0.78012  1.0000
  H   H1425     1.0  0.43310  0.95883  0.76436  1.0000
  C   C802      1.0  0.22273  0.66693  0.79091  1.0000
  H   H1426     1.0  0.23565  0.54462  0.88782  1.0000
  C   C803      1.0  0.42404  0.90792  0.79934  1.0000
  C   C804      1.0  0.23274  0.52096  0.91924  1.0000
  C   C805      1.0  0.43563  0.87953  0.82943  1.0000
  H   H1427     1.0  0.47716  0.55432  0.82021  1.0000
  H   H1428     1.0  0.02378  0.52986  0.92179  1.0000
  H   H1429     1.0  0.24711  0.66632  0.76050  1.0000
  Fe  Fe86      1.0  0.12101  0.50728  0.78790  1.0000
  H   H1430     1.0  0.23117  0.67729  0.79826  1.0000
  S   S183      1.0  0.20608  0.88933  0.75434  1.0000
  C   C806      1.0  0.23147  0.89569  0.76017  1.0000
  H   H1431     1.0  0.04993  0.52930  0.94650  1.0000
  C   C807      1.0  0.24610  0.52087  0.76170  1.0000
  H   H1432     1.0  0.41527  0.80677  0.74265  1.0000
  H   H1433     1.0  0.45981  0.95933  0.78209  1.0000
  C   C808      1.0  0.24071  0.65365  0.77521  1.0000
  Fe  Fe87      1.0  0.37033  0.70902  0.75671  1.0000
  C   C809      1.0  0.39475  0.91797  0.86848  1.0000
  C   C810      1.0  0.28404  0.59963  0.74079  1.0000
  H   H1434     1.0  0.29034  0.82466  0.83058  1.0000
  Fe  Fe88      1.0  0.28565  0.51711  0.83307  1.0000
  H   H1435     1.0  0.47423  0.54430  0.86012  1.0000
  S   S184      1.0  0.38935  0.85868  0.74347  1.0000
  H   H1436     1.0  0.44466  0.87453  0.84283  1.0000
  H   H1437     1.0  0.16007  0.49401  0.84287  1.0000
  H   H1438     1.0  0.30341  0.93431  0.82518  1.0000
  H   H1439     1.0  0.18543  0.85574  0.79134  1.0000
  H   H1440     1.0  0.39181  0.93712  0.83671  1.0000
  H   H1441     1.0  0.45980  0.59459  0.79109  1.0000
  H   H1442     1.0  0.44085  0.57264  0.74333  1.0000
  C   C811      1.0  0.46887  0.56085  0.78124  1.0000
  C   C812      1.0  0.41094  0.87035  0.80816  1.0000
  H   H1443     1.0  0.39179  0.76397  0.74711  1.0000
  H   H1444     1.0  0.40856  0.90442  0.86290  1.0000
  H   H1445     1.0  0.42221  0.84708  0.83577  1.0000
  H   H1446     1.0  0.14574  0.57155  0.75739  1.0000
  H   H1447     1.0  0.29375  0.74559  0.77618  1.0000
  C   C813      1.0  0.38432  0.49630  0.77313  1.0000
  H   H1448     1.0  0.20814  0.52048  0.84051  1.0000
  C   C814      1.0  0.42344  0.48964  0.75185  1.0000
  H   H1449     1.0  0.46548  0.84961  0.78762  1.0000
  S   S185      1.0  0.15491  0.51959  0.76996  1.0000
  C   C815      1.0  0.45501  0.54614  0.86165  1.0000
  H   H1450     1.0  0.00631  0.96274  0.75228  1.0000
  C   C816      1.0  0.15958  0.57970  0.74570  1.0000
  H   H1451     1.0  0.31358  0.48734  0.86584  1.0000
  S   S186      1.0  0.26375  0.54190  0.76017  1.0000
  N   N44       1.0  0.25313  0.82141  0.77386  1.0000
  C   C817      1.0  0.27154  0.82946  0.78199  1.0000
  S   S187      1.0  0.36409  0.48969  0.79747  1.0000
  C   C818      1.0  0.22961  0.83136  0.78527  1.0000
  C   C819      1.0  0.25407  0.79554  0.77919  1.0000
  C   C820      1.0  0.27781  0.78130  0.77213  1.0000
  H   H1452     1.0  0.22652  0.82371  0.80294  1.0000
  C   C821      1.0  0.20804  0.82811  0.77707  1.0000
  H   H1453     1.0  0.47332  0.73271  0.81391  1.0000
  C   C822      1.0  0.48167  0.74754  0.80318  1.0000
  C   C823      1.0  0.27666  0.75563  0.78137  1.0000
  H   H1454     1.0  0.23849  0.49206  0.96214  1.0000
  H   H1455     1.0  0.47604  0.77482  0.77632  1.0000
  H   H1456     1.0  0.38136  0.51965  0.81864  1.0000
  H   H1457     1.0  0.28939  0.82338  0.77380  1.0000
  H   H1458     1.0  0.00932  0.50127  0.86053  1.0000
  C   C824      1.0  0.27325  0.89774  0.75220  1.0000
  H   H1459     1.0  0.21283  0.65469  0.80391  1.0000
  H   H1460     1.0  0.29001  0.89623  0.74133  1.0000
  H   H1461     1.0  0.24807  0.78943  0.79696  1.0000
  H   H1462     1.0  0.24162  0.79014  0.77147  1.0000
  H   H1463     1.0  0.29196  0.78612  0.77802  1.0000
  C   C825      1.0  0.18973  0.48909  0.81698  1.0000
  H   H1464     1.0  0.23676  0.61406  0.79982  1.0000
  H   H1465     1.0  0.44929  0.57061  0.82136  1.0000
  H   H1466     1.0  0.20719  0.80972  0.77784  1.0000
  H   H1467     1.0  0.44043  0.58920  0.77577  1.0000
  H   H1468     1.0  0.29833  0.66612  0.75994  1.0000
  H   H1469     1.0  0.08321  0.50313  0.93152  1.0000
  H   H1470     1.0  0.47177  0.59400  0.74229  1.0000
  H   H1471     1.0  0.21471  0.50669  0.87999  1.0000
  H   H1472     1.0  0.29256  0.52481  0.94627  1.0000
  C   C826      1.0  0.10404  0.49410  0.84373  1.0000
  H   H1473     1.0  0.26322  0.74954  0.77540  1.0000
  C   C827      1.0  0.37783  0.51252  0.75546  1.0000
  C   C828      1.0  0.25562  0.49858  0.95811  1.0000
  C   C829      1.0  0.05220  0.95538  0.74479  1.0000
  H   H1474     1.0  0.46943  0.55447  0.76622  1.0000
  H   H1475     1.0  0.41644  0.75997  0.77516  1.0000
  H   H1476     1.0  0.21145  0.59041  0.78783  1.0000
  H   H1477     1.0  0.42390  0.92506  0.78956  1.0000
  N   N45       1.0  0.17425  0.52658  0.83126  1.0000
  H   H1478     1.0  0.45415  0.80472  0.75980  1.0000
  C   C830      1.0  0.15162  0.54161  0.83751  1.0000
  C   C831      1.0  0.18728  0.53891  0.80983  1.0000
  C   C832      1.0  0.18922  0.52257  0.84816  1.0000
  H   H1479     1.0  0.16650  0.59818  0.76791  1.0000
  H   H1480     1.0  0.27014  0.84864  0.77761  1.0000
  C   C833      1.0  0.19168  0.56376  0.80904  1.0000
  C   C834      1.0  0.13592  0.53266  0.85958  1.0000
  C   C835      1.0  0.11249  0.54801  0.86280  1.0000
  H   H1481     1.0  0.99538  0.48894  0.88791  1.0000
  H   H1482     1.0  0.26285  0.53314  0.92318  1.0000
  C   C836      1.0  0.21067  0.57178  0.78961  1.0000
  H   H1483     1.0  0.15557  0.50830  0.81695  1.0000
  H   H1484     1.0  0.25467  0.49081  0.82605  1.0000
  H   H1485     1.0  0.15490  0.55878  0.83874  1.0000
  H   H1486     1.0  0.14115  0.54480  0.82455  1.0000
  H   H1487     1.0  0.17784  0.53993  0.79652  1.0000
  S   S188      1.0  0.47298  0.87882  0.87202  1.0000
  H   H1488     1.0  0.30820  0.82032  0.80485  1.0000
  H   H1489     1.0  0.18663  0.53809  0.85541  1.0000
  H   H1490     1.0  0.45634  0.51970  0.84427  1.0000
  C   C837      1.0  0.03784  0.97686  0.75211  1.0000
  H   H1491     1.0  0.21930  0.60279  0.83865  1.0000
  C   C838      1.0  0.40699  0.79169  0.75273  1.0000
  H   H1492     1.0  0.19712  0.56504  0.82398  1.0000
  H   H1493     1.0  0.17548  0.57588  0.80729  1.0000
  H   H1494     1.0  0.13226  0.51500  0.86083  1.0000
  H   H1495     1.0  0.14444  0.53284  0.87311  1.0000
  H   H1496     1.0  0.10302  0.54835  0.84976  1.0000
  H   H1497     1.0  0.10155  0.54108  0.87866  1.0000
  H   H1498     1.0  0.11507  0.56584  0.86268  1.0000
  C   C839      1.0  0.21890  0.48734  0.76132  1.0000
  C   C840      1.0  0.25921  0.51716  0.91949  1.0000
  C   C841      1.0  0.27082  0.82229  0.80680  1.0000
  Fe  Fe89      1.0  0.28582  0.53515  0.78538  1.0000
  Fe  Fe90      1.0  0.35296  0.85390  0.74293  1.0000
  H   H1499     1.0  0.28158  0.64124  0.75127  1.0000
  H   H1500     1.0  0.20709  0.56903  0.77432  1.0000
  N   N46       1.0  0.26097  0.63881  0.78402  1.0000
  H   H1501     1.0  0.22790  0.56217  0.79202  1.0000
  H   H1502     1.0  0.22210  0.52074  0.93585  1.0000
  C   C842      1.0  0.35369  0.96244  0.77681  1.0000
  H   H1503     1.0  0.27138  0.80339  0.81240  1.0000
  C   C843      1.0  0.22589  0.54403  0.90481  1.0000
  H   H1504     1.0  0.03878  0.97544  0.76923  1.0000
  H   H1505     1.0  0.23582  0.64040  0.82758  1.0000
  C   C844      1.0  0.29159  0.82935  0.81271  1.0000
  C   C845      1.0  0.04692  0.51261  0.94387  1.0000
  Fe  Fe91      1.0  0.33125  0.51468  0.80043  1.0000
  H   H1506     1.0  0.44490  0.85426  0.77011  1.0000
  C   C846      1.0  0.08927  0.49748  0.86334  1.0000
  H   H1507     1.0  0.29313  0.61905  0.77112  1.0000
  S   S189      1.0  0.32053  0.54802  0.77864  1.0000
  C   C847      1.0  0.42294  0.86396  0.82537  1.0000
  H   H1508     1.0  0.44003  0.93531  0.75012  1.0000
  H   H1509     1.0  0.46834  0.92265  0.77526  1.0000
  S   S190      1.0  0.44889  0.92273  0.82281  1.0000
  C   C848      1.0  0.27655  0.62791  0.76599  1.0000
  C   C849      1.0  0.34122  0.77370  0.77742  1.0000
  C   C850      1.0  0.29388  0.49478  0.93155  1.0000
  H   H1510     1.0  0.44000  0.77206  0.75663  1.0000
  C   C851      1.0  0.34175  0.79637  0.76551  1.0000
  H   H1511     1.0  0.47392  0.83927  0.76250  1.0000
  H   H1512     1.0  0.14039  0.81619  0.77028  1.0000
  H   H1513     1.0  0.20470  0.52897  0.80506  1.0000
  S   S191      1.0  0.29566  0.91017  0.78015  1.0000
  H   H1514     1.0  0.45840  0.50877  0.81434  1.0000
  C   C852      1.0  0.41238  0.89204  0.79464  1.0000
  C   C853      1.0  0.27550  0.65280  0.79110  1.0000
  C   C854      1.0  0.25258  0.61962  0.80252  1.0000
  C   C855      1.0  0.48233  0.92604  0.76056  1.0000
  H   H1515     1.0  0.03581  0.50088  0.91880  1.0000
  H   H1516     1.0  0.18318  0.82724  0.80791  1.0000
  C   C856      1.0  0.28597  0.67272  0.77353  1.0000
  S   S192      1.0  0.32006  0.52841  0.83112  1.0000
  C   C857      1.0  0.24746  0.62416  0.82597  1.0000
  C   C858      1.0  0.23614  0.60456  0.84238  1.0000
  H   H1517     1.0  0.31437  0.67429  0.78919  1.0000
  C   C859      1.0  0.29961  0.68586  0.78298  1.0000
  H   H1518     1.0  0.24796  0.58808  0.84214  1.0000
  H   H1519     1.0  0.29029  0.64124  0.79740  1.0000
  H   H1520     1.0  0.26538  0.66065  0.80490  1.0000
  H   H1521     1.0  0.34341  0.80984  0.77325  1.0000
  H   H1522     1.0  0.26586  0.60405  0.80290  1.0000
  H   H1523     1.0  0.26063  0.59573  0.77160  1.0000
  C   C860      1.0  0.32856  0.51180  0.93549  1.0000
  H   H1524     1.0  0.16967  0.81360  0.75436  1.0000
  H   H1525     1.0  0.23055  0.64310  0.76974  1.0000
  H   H1526     1.0  0.48775  0.88627  0.79181  1.0000
  H   H1527     1.0  0.39006  0.58207  0.77309  1.0000
  S   S193      1.0  0.10230  0.51560  0.82030  1.0000
  H   H1528     1.0  0.15071  0.66506  0.74838  1.0000
  H   H1529     1.0  0.49109  0.59921  0.75799  1.0000
  C   C861      1.0  0.18541  0.83740  0.79101  1.0000
  H   H1530     1.0  0.26405  0.62521  0.83065  1.0000
  H   H1531     1.0  0.25484  0.83091  0.81597  1.0000
  H   H1532     1.0  0.23278  0.60819  0.85899  1.0000
  C   C862      1.0  0.17123  0.59488  0.75160  1.0000
  H   H1533     1.0  0.20694  0.54622  0.90487  1.0000
  S   S194      1.0  0.10348  0.51997  0.75927  1.0000
  H   H1534     1.0  0.38752  0.53965  0.79321  1.0000
  H   H1535     1.0  0.41913  0.52023  0.82643  1.0000
  C   C863      1.0  0.45927  0.84193  0.77628  1.0000
  C   C864      1.0  0.46689  0.52100  0.80031  1.0000
  C   C865      1.0  0.33882  0.76112  0.74515  1.0000
  C   C866      1.0  0.42331  0.77667  0.76765  1.0000
  H   H1536     1.0  0.06981  0.95307  0.74865  1.0000
  Fe  Fe92      1.0  0.49013  0.89940  0.88730  1.0000
  N   N47       1.0  0.42769  0.78775  0.78474  1.0000
  C   C867      1.0  0.44217  0.77032  0.79887  1.0000
  C   C868      1.0  0.40513  0.79572  0.79893  1.0000
  C   C869      1.0  0.44001  0.80855  0.77361  1.0000
  C   C870      1.0  0.45077  0.81900  0.78831  1.0000
  C   C871      1.0  0.46654  0.76087  0.78701  1.0000
  C   C872      1.0  0.38796  0.77770  0.80922  1.0000
  C   C873      1.0  0.36550  0.78854  0.82221  1.0000
  H   H1537     1.0  0.42296  0.51395  0.79999  1.0000
  H   H1538     1.0  0.24790  0.91143  0.80127  1.0000
  H   H1539     1.0  0.43302  0.75501  0.80668  1.0000
  H   H1540     1.0  0.44432  0.77748  0.81261  1.0000
  H   H1541     1.0  0.40871  0.80186  0.81265  1.0000
  H   H1542     1.0  0.39550  0.81094  0.78975  1.0000
  H   H1543     1.0  0.46595  0.80726  0.79353  1.0000
  H   H1544     1.0  0.43798  0.82210  0.80311  1.0000
  H   H1545     1.0  0.36441  0.95027  0.81721  1.0000
  H   H1546     1.0  0.38302  0.77084  0.79665  1.0000
  H   H1547     1.0  0.39572  0.76311  0.82049  1.0000
  H   H1548     1.0  0.36937  0.79542  0.83535  1.0000
  H   H1549     1.0  0.35656  0.80278  0.81142  1.0000
  H   H1550     1.0  0.35352  0.77536  0.82969  1.0000
  H   H1551     1.0  0.07621  0.51246  0.86357  1.0000
  H   H1552     1.0  0.19589  0.67388  0.77131  1.0000
  H   H1553     1.0  0.24541  0.84823  0.74652  1.0000
  S   S195      1.0  0.47781  0.90183  0.92256  1.0000
  H   H1554     1.0  0.28518  0.93875  0.87286  1.0000
  C   C874      1.0  0.24952  0.90638  0.78593  1.0000
  H   H1555     1.0  0.17029  0.83629  0.78413  1.0000
  H   H1556     1.0  0.27264  0.75218  0.79942  1.0000
  C   C875      1.0  0.47254  0.60046  0.75682  1.0000
  N   N48       1.0  0.34972  0.91852  0.83258  1.0000
  C   C876      1.0  0.34448  0.89815  0.82549  1.0000
  C   C877      1.0  0.35876  0.93579  0.81262  1.0000
  C   C878      1.0  0.36913  0.90993  0.84521  1.0000
  C   C879      1.0  0.32889  0.92952  0.84688  1.0000
  C   C880      1.0  0.30436  0.92879  0.84255  1.0000
  C   C881      1.0  0.33909  0.87697  0.84397  1.0000
  C   C882      1.0  0.38000  0.92856  0.85124  1.0000
  C   C883      1.0  0.19643  0.50301  0.88589  1.0000
  H   H1557     1.0  0.27206  0.68532  0.76697  1.0000
  H   H1558     1.0  0.36096  0.97633  0.78078  1.0000
  C   C884      1.0  0.32767  0.86005  0.83675  1.0000
  H   H1559     1.0  0.38375  0.54893  0.81875  1.0000
  H   H1560     1.0  0.35964  0.89201  0.81353  1.0000
  H   H1561     1.0  0.32994  0.90299  0.81653  1.0000
  C   C885      1.0  0.18595  0.50118  0.86700  1.0000
  H   H1562     1.0  0.37457  0.92754  0.80274  1.0000
  H   H1563     1.0  0.38367  0.89951  0.83602  1.0000
  H   H1564     1.0  0.36289  0.89806  0.86071  1.0000
  H   H1565     1.0  0.32824  0.92127  0.86432  1.0000
  C   C886      1.0  0.09170  0.48186  0.88272  1.0000
  H   H1566     1.0  0.29966  0.91104  0.84788  1.0000
  H   H1567     1.0  0.47699  0.90366  0.96663  1.0000
  H   H1568     1.0  0.35560  0.86756  0.84868  1.0000
  H   H1569     1.0  0.32749  0.88215  0.85863  1.0000
  N   N49       1.0  0.07718  0.48774  0.96575  1.0000
  H   H1570     1.0  0.12187  0.67445  0.74250  1.0000
  H   H1571     1.0  0.33341  0.93494  0.79257  1.0000
  Fe  Fe93      1.0  0.33004  0.89374  0.76397  1.0000
  C   C887      1.0  0.01238  0.97997  0.74851  1.0000
  C   C888      1.0  0.34059  0.75601  0.76697  1.0000
  C   C889      1.0  0.20502  0.68343  0.77894  1.0000
  H   H1572     1.0  0.29925  0.58990  0.74759  1.0000
  C   C890      1.0  0.22977  0.90180  0.78013  1.0000
  C   C891      1.0  0.03971  0.51704  0.92188  1.0000
  H   H1573     1.0  0.31133  0.86862  0.83121  1.0000
  H   H1574     1.0  0.33989  0.85293  0.82337  1.0000
  H   H1575     1.0  0.32340  0.84554  0.85054  1.0000
  H   H1576     1.0  0.20844  0.83744  0.76004  1.0000
  H   H1577     1.0  0.26889  0.51658  0.90257  1.0000
  S   S196      1.0  0.26580  0.49914  0.86464  1.0000
  N   N50       1.0  0.45607  0.54555  0.80085  1.0000
  Fe  Fe94      1.0  0.47596  0.90837  0.84347  1.0000
  C   C892      1.0  0.43066  0.54859  0.79906  1.0000
  C   C893      1.0  0.48797  0.84235  0.98107  1.0000
  C   C894      1.0  0.45857  0.55297  0.82087  1.0000
  H   H1578     1.0  0.33981  0.50415  0.92193  1.0000
  C   C895      1.0  0.26613  0.61013  0.75815  1.0000
  C   C896      1.0  0.45885  0.58678  0.77744  1.0000
  C   C897      1.0  0.41689  0.52774  0.80960  1.0000
  C   C898      1.0  0.39081  0.53455  0.81004  1.0000
  H   H1579     1.0  0.03207  0.50642  0.95656  1.0000
  H   H1580     1.0  0.30257  0.52973  0.91731  1.0000
  H   H1581     1.0  0.22917  0.85018  0.78403  1.0000
  H   H1582     1.0  0.34229  0.76969  0.79439  1.0000
  H   H1583     1.0  0.38369  0.91036  0.88400  1.0000
  H   H1584     1.0  0.42089  0.56386  0.80563  1.0000
  H   H1585     1.0  0.42907  0.55243  0.78167  1.0000
  C   C899      1.0  0.34096  0.80120  0.74341  1.0000
  H   H1586     1.0  0.18969  0.49488  0.94438  1.0000
  S   S197      1.0  0.48310  0.50265  0.74642  1.0000
  H   H1587     1.0  0.47387  0.96073  0.91522  1.0000
  H   H1588     1.0  0.40340  0.93147  0.87150  1.0000
  H   H1589     1.0  0.46358  0.51602  0.78588  1.0000
  H   H1590     1.0  0.48859  0.97399  0.94399  1.0000
  H   H1591     1.0  0.42771  0.82259  0.76607  1.0000
  S   S198      1.0  0.40453  0.69191  0.76557  1.0000
  H   H1592     1.0  0.01914  0.50553  0.88348  1.0000
  C   C900      1.0  0.27133  0.90431  0.77207  1.0000
  C   C901      1.0  0.06935  0.49503  0.94430  1.0000
  C   C902      1.0  0.08366  0.50838  0.97141  1.0000
  Fe  Fe95      1.0  0.39882  0.66403  0.75040  1.0000
  H   H1593     1.0  0.46484  0.61883  0.75465  1.0000
  C   C903      1.0  0.16864  0.50451  0.82760  1.0000
  H   H1594     1.0  0.30698  0.69994  0.77014  1.0000
  H   H1595     1.0  0.28809  0.69360  0.79635  1.0000
  C   C904      1.0  0.25325  0.89374  0.74611  1.0000
  H   H1596     1.0  0.19183  0.69233  0.79056  1.0000
  S   S199      1.0  0.40674  0.62609  0.76236  1.0000
  H   H1597     1.0  0.48626  0.85754  0.96766  1.0000
  S   S200      1.0  0.19149  0.50638  0.98468  1.0000
  C   C905      1.0  0.47671  0.96380  0.77162  1.0000
  C   C906      1.0  0.25516  0.83058  0.74965  1.0000
  H   H1598     1.0  0.05381  0.52391  0.90856  1.0000
  S   S201      1.0  0.20125  0.62698  0.74333  1.0000
  H   H1599     1.0  0.26820  0.94287  0.85216  1.0000
  C   C907      1.0  0.40712  0.48487  0.77131  1.0000
  C   C908      1.0  0.28555  0.94418  0.85514  1.0000
  H   H1600     1.0  0.06782  0.52086  0.97513  1.0000
  H   H1601     1.0  0.33079  0.94782  0.84587  1.0000
  H   H1602     1.0  0.44757  0.53550  0.87745  1.0000
  H   H1603     1.0  0.32748  0.95921  0.80582  1.0000
  C   C909      1.0  0.99970  0.97508  0.79901  1.0000
  C   C910      1.0  0.48733  0.97404  0.80380  1.0000
  H   H1604     1.0  0.14851  0.83798  0.74657  1.0000
  C   C911      1.0  0.44004  0.95409  0.74830  1.0000
  H   H1605     1.0  0.34097  0.97045  0.76616  1.0000
  N   N51       1.0  0.48296  0.95165  0.75268  1.0000
  H   H1606     1.0  0.28231  0.78354  0.75418  1.0000
  C   C912      1.0  0.15100  0.81922  0.75353  1.0000
  H   H1607     1.0  0.01151  0.95976  0.79448  1.0000
  H   H1608     1.0  0.19415  0.49641  0.79938  1.0000
  H   H1609     1.0  0.33491  0.52805  0.93549  1.0000
  C   C913      1.0  0.21373  0.51014  0.75080  1.0000
  H   H1610     1.0  0.36803  0.95183  0.76766  1.0000
  C   C914      1.0  0.01226  0.49303  0.87714  1.0000
  H   H1611     1.0  0.25083  0.61835  0.75083  1.0000
  H   H1612     1.0  0.18610  0.51691  0.89408  1.0000
  C   C915      1.0  0.26882  0.48661  0.97673  1.0000
  H   H1613     1.0  0.47764  0.91855  0.74819  1.0000
  C   C916      1.0  0.49048  0.96373  0.90348  1.0000
  H   H1614     1.0  0.48648  0.97157  0.88717  1.0000
  S   S202      1.0  0.36325  0.67986  0.74406  1.0000
  H   H1615     1.0  0.04380  0.93979  0.75333  1.0000
  H   H1616     1.0  0.48455  0.75901  0.81326  1.0000
  C   C917      1.0  0.44896  0.53806  0.84309  1.0000
  H   H1617     1.0  0.48740  0.56017  0.78231  1.0000
  H   H1618     1.0  0.04437  0.49221  0.98855  1.0000
  H   H1619     1.0  0.15193  0.73445  0.74435  1.0000
  H   H1620     1.0  0.28430  0.49511  0.97547  1.0000
  H   H1621     1.0  0.24671  0.81997  0.74247  1.0000
  H   H1622     1.0  0.14482  0.78740  0.74795  1.0000
  H   H1623     1.0  0.11246  0.49177  0.98845  1.0000
  H   H1624     1.0  0.16747  0.49874  0.87364  1.0000
  H   H1625     1.0  0.22291  0.54451  0.74303  1.0000
  H   H1626     1.0  0.32418  0.51125  0.74754  1.0000
  H   H1627     1.0  0.33005  0.49979  0.95119  1.0000
  N   N52       1.0  0.26769  0.49625  0.93523  1.0000
  H   H1628     1.0  0.99775  0.96002  0.83327  1.0000
  H   H1629     1.0  0.30198  0.49083  0.91521  1.0000
  H   H1630     1.0  0.47365  0.83224  0.98195  1.0000
  H   H1631     1.0  0.19486  0.48531  0.86117  1.0000
  C   C918      1.0  0.23791  0.48124  0.77176  1.0000
  H   H1632     1.0  0.08038  0.48472  0.89782  1.0000
  H   H1633     1.0  0.33719  0.48265  0.74418  1.0000
  Fe  Fe96      1.0  0.16460  0.48489  0.76118  1.0000
  Fe  Fe97      1.0  0.11638  0.48469  0.75220  1.0000
  H   H1634     1.0  0.11734  0.48105  0.93055  1.0000
  H   H1635     1.0  0.43809  0.54403  0.74124  1.0000
  Fe  Fe98      1.0  0.13882  0.52859  0.74056  1.0000
  Fe  Fe99      1.0  0.58530  0.08516  0.15388  1.0000
  S   S203      1.0  0.60816  0.05430  0.16799  1.0000
  S   S204      1.0  0.57267  0.08799  0.12309  1.0000
  H   H1636     1.0  0.94462  0.23343  0.23734  1.0000
  Fe  Fe100     1.0  0.62671  0.08029  0.17496  1.0000
  S   S205      1.0  0.66542  0.08086  0.16535  1.0000
  Fe  Fe101     1.0  0.58372  0.05788  0.19956  1.0000
  S   S206      1.0  0.60583  0.11097  0.15811  1.0000
  Fe  Fe102     1.0  0.76370  0.01718  0.20968  1.0000
  S   S207      1.0  0.98098  0.29492  0.14704  1.0000
  Fe  Fe103     1.0  0.80164  0.02910  0.16945  1.0000
  S   S208      1.0  0.82113  0.99334  0.17370  1.0000
  S   S209      1.0  0.81398  0.05898  0.14358  1.0000
  H   H1637     1.0  0.67112  0.16574  0.16106  1.0000
  H   H1638     1.0  0.63735  0.98645  0.23509  1.0000
  S   S210      1.0  0.55959  0.08712  0.18492  1.0000
  S   S211      1.0  0.76659  0.01760  0.17439  1.0000
  S   S212      1.0  0.79681  0.03200  0.20398  1.0000
  H   H1639     1.0  0.95117  0.02200  0.16252  1.0000
  S   S213      1.0  0.73295  0.32401  0.22622  1.0000
  C   C919      1.0  0.65390  0.98518  0.20090  1.0000
  Fe  Fe104     1.0  0.70707  0.40926  0.19759  1.0000
  S   S214      1.0  0.73265  0.42815  0.20477  1.0000
  S   S215      1.0  0.68019  0.43032  0.17913  1.0000
  Fe  Fe105     1.0  0.75958  0.40003  0.19356  1.0000
  S   S216      1.0  0.79363  0.40500  0.17021  1.0000
  C   C920      1.0  0.87919  0.11843  0.22558  1.0000
  S   S217      1.0  0.73438  0.38309  0.18343  1.0000
  H   H1640     1.0  0.57910  0.12035  0.99693  1.0000
  C   C921      1.0  0.72484  0.10635  0.21580  1.0000
  H   H1641     1.0  0.85431  0.02646  0.12193  1.0000
  S   S218      1.0  0.78411  0.14887  0.18256  1.0000
  C   C922      1.0  0.55670  0.98534  0.11406  1.0000
  H   H1642     1.0  0.58929  0.44491  0.16995  1.0000
  H   H1643     1.0  0.71502  0.10390  0.20403  1.0000
  H   H1644     1.0  0.66449  0.99630  0.18734  1.0000
  C   C923      1.0  0.60522  0.44313  0.21553  1.0000
  C   C924      1.0  0.89532  0.02630  0.19916  1.0000
  C   C925      1.0  0.76850  0.99123  0.11009  1.0000
  H   H1645     1.0  0.52284  0.40617  0.21573  1.0000
  H   H1646     1.0  0.98907  0.26506  0.19777  1.0000
  Fe  Fe106     1.0  0.90270  0.27426  0.15133  1.0000
  S   S219      1.0  0.91780  0.28195  0.17716  1.0000
  S   S220      1.0  0.89441  0.23873  0.15436  1.0000
  Fe  Fe107     1.0  0.90568  0.32174  0.12328  1.0000
  S   S221      1.0  0.92100  0.33408  0.14639  1.0000
  S   S222      1.0  0.89912  0.34525  0.09231  1.0000
  Fe  Fe108     1.0  0.94262  0.29962  0.14928  1.0000
  C   C926      1.0  0.95872  0.37401  0.15553  1.0000
  Fe  Fe109     1.0  0.89460  0.31560  0.17213  1.0000
  S   S223      1.0  0.87457  0.33049  0.20070  1.0000
  S   S224      1.0  0.92987  0.28879  0.12366  1.0000
  S   S225      1.0  0.87695  0.30631  0.14877  1.0000
  Fe  Fe110     1.0  0.67118  0.02316  0.05563  1.0000
  C   C927      1.0  0.92411  0.06779  0.21369  1.0000
  S   S226      1.0  0.65538  0.06013  0.04925  1.0000
  C   C928      1.0  0.83963  0.21901  0.21504  1.0000
  H   H1647     1.0  0.61473  0.00757  0.14811  1.0000
  N   N53       1.0  0.92168  0.99399  0.15101  1.0000
  C   C929      1.0  0.88136  0.27356  0.23395  1.0000
  C   C930      1.0  0.67077  0.16795  0.19440  1.0000
  S   S227      1.0  0.70693  0.01336  0.03751  1.0000
  H   H1648     1.0  0.95777  0.38750  0.01256  1.0000
  C   C931      1.0  0.61517  0.33596  0.17156  1.0000
  H   H1649     1.0  0.87110  0.04456  0.12903  1.0000
  H   H1650     1.0  0.95638  0.20408  0.16901  1.0000
  H   H1651     1.0  0.94605  0.21859  0.20326  1.0000
  S   S228      1.0  0.75716  0.37739  0.22658  1.0000
  H   H1652     1.0  0.91035  0.01930  0.20731  1.0000
  H   H1653     1.0  0.98755  0.37678  0.01435  1.0000
  H   H1654     1.0  0.88398  0.10961  0.17982  1.0000
  H   H1655     1.0  0.53254  0.07226  0.11176  1.0000
  C   C932      1.0  0.61943  0.03606  0.01632  1.0000
  C   C933      1.0  0.97546  0.31200  0.18421  1.0000
  H   H1656     1.0  0.97791  0.06007  0.19877  1.0000
  C   C934      1.0  0.74951  0.09376  0.21062  1.0000
  H   H1657     1.0  0.95697  0.31122  0.18660  1.0000
  S   S229      1.0  0.78060  0.98086  0.21793  1.0000
  C   C935      1.0  0.84232  0.24219  0.20674  1.0000
  C   C936      1.0  0.85959  0.24838  0.18835  1.0000
  C   C937      1.0  0.87398  0.23137  0.17820  1.0000
  C   C938      1.0  0.87213  0.20820  0.18721  1.0000
  C   C939      1.0  0.85514  0.20205  0.20574  1.0000
  C   C940      1.0  0.67592  0.29393  0.20976  1.0000
  H   H1658     1.0  0.86172  0.26628  0.18200  1.0000
  H   H1659     1.0  0.88410  0.19498  0.18010  1.0000
  H   H1660     1.0  0.71457  0.00016  0.15826  1.0000
  C   C941      1.0  0.53325  0.99319  0.14889  1.0000
  H   H1661     1.0  0.66217  0.12449  0.08556  1.0000
  H   H1662     1.0  0.92441  0.38645  0.14740  1.0000
  C   C942      1.0  0.63670  0.45436  0.18552  1.0000
  H   H1663     1.0  0.75691  0.09865  0.19301  1.0000
  C   C943      1.0  0.81724  0.38599  0.17883  1.0000
  C   C944      1.0  0.81762  0.37838  0.20095  1.0000
  C   C945      1.0  0.83582  0.36201  0.20762  1.0000
  C   C946      1.0  0.85345  0.35292  0.19219  1.0000
  C   C947      1.0  0.85346  0.36102  0.17005  1.0000
  C   C948      1.0  0.83554  0.37776  0.16338  1.0000
  H   H1664     1.0  0.80413  0.38540  0.21290  1.0000
  H   H1665     1.0  0.63223  0.02941  0.22974  1.0000
  H   H1666     1.0  0.86725  0.35442  0.15802  1.0000
  H   H1667     1.0  0.83555  0.38391  0.14624  1.0000
  C   C949      1.0  0.64085  0.35095  0.23358  1.0000
  H   H1668     1.0  0.73503  0.13365  0.22706  1.0000
  H   H1669     1.0  0.51478  0.02699  0.11283  1.0000
  H   H1670     1.0  0.64315  0.10420  0.08548  1.0000
  H   H1671     1.0  0.71028  0.33683  0.18917  1.0000
  C   C950      1.0  0.89455  0.34761  0.03290  1.0000
  C   C951      1.0  0.80784  0.08436  0.15393  1.0000
  C   C952      1.0  0.79775  0.10454  0.14194  1.0000
  C   C953      1.0  0.79080  0.12437  0.15079  1.0000
  C   C954      1.0  0.79437  0.12425  0.17147  1.0000
  C   C955      1.0  0.80566  0.10452  0.18301  1.0000
  C   C956      1.0  0.81240  0.08456  0.17422  1.0000
  H   H1672     1.0  0.79463  0.10463  0.12610  1.0000
  H   H1673     1.0  0.78224  0.13968  0.14175  1.0000
  H   H1674     1.0  0.80890  0.10453  0.19879  1.0000
  H   H1675     1.0  0.82126  0.06939  0.18304  1.0000
  H   H1676     1.0  0.73398  0.98576  0.21121  1.0000
  H   H1677     1.0  0.92339  0.99117  0.18469  1.0000
  H   H1678     1.0  0.63429  0.00174  0.12356  1.0000
  H   H1679     1.0  0.87455  0.00502  0.15159  1.0000
  Fe  Fe111     1.0  0.72776  0.40379  0.23699  1.0000
  H   H1680     1.0  0.89572  0.35327  0.04771  1.0000
  S   S230      1.0  0.67695  0.00133  0.08759  1.0000
  H   H1681     1.0  0.93023  0.17976  0.22639  1.0000
  H   H1682     1.0  0.63722  0.98618  0.19549  1.0000
  H   H1683     1.0  0.95285  0.30886  0.00580  1.0000
  C   C957      1.0  0.59534  0.07960  0.10264  1.0000
  C   C958      1.0  0.61269  0.06145  0.10768  1.0000
  C   C959      1.0  0.63072  0.05478  0.09120  1.0000
  C   C960      1.0  0.63193  0.06688  0.06977  1.0000
  C   C961      1.0  0.61474  0.08521  0.06474  1.0000
  C   C962      1.0  0.59616  0.09124  0.08110  1.0000
  H   H1684     1.0  0.61202  0.05229  0.12423  1.0000
  H   H1685     1.0  0.64405  0.04079  0.09523  1.0000
  H   H1686     1.0  0.61592  0.09492  0.04828  1.0000
  H   H1687     1.0  0.58286  0.10542  0.07721  1.0000
  C   C963      1.0  0.71194  0.04663  0.21388  1.0000
  C   C964      1.0  0.72144  0.05663  0.19257  1.0000
  C   C965      1.0  0.70689  0.06766  0.17806  1.0000
  C   C966      1.0  0.68270  0.06908  0.18483  1.0000
  C   C967      1.0  0.67302  0.06065  0.20659  1.0000
  H   H1688     1.0  0.66810  0.14735  0.23867  1.0000
  H   H1689     1.0  0.74009  0.05602  0.18722  1.0000
  H   H1690     1.0  0.71444  0.07482  0.16147  1.0000
  H   H1691     1.0  0.97276  0.32353  0.21408  1.0000
  C   C968      1.0  0.97440  0.36045  0.99339  1.0000
  N   N54       1.0  0.62127  0.37576  0.17779  1.0000
  C   C969      1.0  0.64478  0.37138  0.16319  1.0000
  H   H1692     1.0  0.64293  0.46588  0.17048  1.0000
  C   C970      1.0  0.61145  0.40052  0.17024  1.0000
  C   C971      1.0  0.62298  0.37274  0.20126  1.0000
  C   C972      1.0  0.90146  0.02354  0.17559  1.0000
  C   C973      1.0  0.66362  0.38593  0.16369  1.0000
  C   C974      1.0  0.58646  0.40833  0.18224  1.0000
  C   C975      1.0  0.72052  0.20837  0.20592  1.0000
  H   H1693     1.0  0.58718  0.02437  0.01391  1.0000
  H   H1694     1.0  0.94658  0.03329  0.13499  1.0000
  C   C976      1.0  0.68715  0.37834  0.15000  1.0000
  C   C977      1.0  0.57715  0.43242  0.17119  1.0000
  H   H1695     1.0  0.64266  0.37437  0.14601  1.0000
  H   H1696     1.0  0.65252  0.35314  0.16703  1.0000
  H   H1697     1.0  0.93671  0.07899  0.21451  1.0000
  H   H1698     1.0  0.59619  0.36866  0.16129  1.0000
  H   H1699     1.0  0.61150  0.40401  0.15249  1.0000
  H   H1700     1.0  0.62257  0.41256  0.17232  1.0000
  H   H1701     1.0  0.63158  0.38676  0.20312  1.0000
  H   H1702     1.0  0.93231  0.40193  0.16501  1.0000
  S   S231      1.0  0.70004  0.38682  0.23076  1.0000
  H   H1703     1.0  0.89004  0.23476  0.21662  1.0000
  H   H1704     1.0  0.65871  0.40436  0.15685  1.0000
  H   H1705     1.0  0.66624  0.38418  0.18048  1.0000
  C   C978      1.0  0.75093  0.98251  0.10440  1.0000
  H   H1706     1.0  0.57391  0.39662  0.18258  1.0000
  H   H1707     1.0  0.85457  0.18418  0.21315  1.0000
  H   H1708     1.0  0.75745  0.23430  0.22054  1.0000
  C   C979      1.0  0.54978  0.02561  0.12026  1.0000
  H   H1709     1.0  0.57589  0.00604  0.05244  1.0000
  C   C980      1.0  0.65875  0.16487  0.17694  1.0000
  C   C981      1.0  0.71143  0.31247  0.21930  1.0000
  C   C982      1.0  0.84371  0.05923  0.22451  1.0000
  H   H1710     1.0  0.70009  0.38941  0.15039  1.0000
  H   H1711     1.0  0.69362  0.36021  0.15658  1.0000
  H   H1712     1.0  0.68570  0.38016  0.13283  1.0000
  H   H1713     1.0  0.57482  0.43237  0.15463  1.0000
  H   H1714     1.0  0.56002  0.43829  0.18088  1.0000
  Fe  Fe112     1.0  0.97208  0.13030  0.23070  1.0000
  H   H1715     1.0  0.67954  0.31953  0.18015  1.0000
  H   H1716     1.0  0.49235  0.01437  0.17359  1.0000
  H   H1717     1.0  0.64386  0.17872  0.17512  1.0000
  C   C983      1.0  0.96177  0.32350  0.99554  1.0000
  H   H1718     1.0  0.89567  0.98828  0.18103  1.0000
  Fe  Fe113     1.0  0.69228  0.98492  0.03035  1.0000
  H   H1719     1.0  0.53348  0.02218  0.16461  1.0000
  Fe  Fe114     1.0  0.79152  0.14673  0.21554  1.0000
  C   C984      1.0  0.63429  0.02061  0.21600  1.0000
  C   C985      1.0  0.68589  0.31229  0.19500  1.0000
  H   H1720     1.0  0.60457  0.07499  0.02407  1.0000
  H   H1721     1.0  0.53855  0.36660  0.23531  1.0000
  H   H1722     1.0  0.60108  0.13732  0.99722  1.0000
  H   H1723     1.0  0.83100  0.25533  0.21446  1.0000
  H   H1724     1.0  0.67765  0.26961  0.23983  1.0000
  C   C986      1.0  0.60563  0.13919  0.22122  1.0000
  H   H1725     1.0  0.51651  0.99690  0.14319  1.0000
  C   C987      1.0  0.97500  0.38146  0.00324  1.0000
  C   C988      1.0  0.93741  0.39600  0.05878  1.0000
  C   C989      1.0  0.51983  0.08732  0.23543  1.0000
  C   C990      1.0  0.96645  0.31064  0.04379  1.0000
  H   H1726     1.0  0.55374  0.09741  0.23166  1.0000
  C   C991      1.0  0.65184  0.43572  0.19403  1.0000
  H   H1727     1.0  0.80682  0.06997  0.22973  1.0000
  C   C992      1.0  0.94756  0.99548  0.14589  1.0000
  H   H1728     1.0  0.62564  0.33558  0.21428  1.0000
  H   H1729     1.0  0.65434  0.06263  0.21206  1.0000
  H   H1730     1.0  0.57326  0.00529  0.15290  1.0000
  H   H1731     1.0  0.83594  0.35601  0.22475  1.0000
  C   C993      1.0  0.77374  0.98363  0.13089  1.0000
  C   C994      1.0  0.57891  0.17436  0.22199  1.0000
  H   H1732     1.0  0.53316  0.06057  0.08822  1.0000
  H   H1733     1.0  0.59610  0.01956  0.11528  1.0000
  H   H1734     1.0  0.51706  0.09716  0.21919  1.0000
  H   H1735     1.0  0.51965  0.98556  0.11315  1.0000
  H   H1736     1.0  0.65317  0.34598  0.20127  1.0000
  H   H1737     1.0  0.88888  0.36290  0.02098  1.0000
  C   C995      1.0  0.96415  0.36376  0.07250  1.0000
  H   H1738     1.0  0.73643  0.13885  0.19880  1.0000
  H   H1739     1.0  0.70570  0.15273  0.18216  1.0000
  C   C996      1.0  0.88461  0.00803  0.13463  1.0000
  S   S232      1.0  0.60468  0.08077  0.20810  1.0000
  H   H1740     1.0  0.58662  0.40900  0.19923  1.0000
  H   H1741     1.0  0.75274  0.26528  0.21619  1.0000
  H   H1742     1.0  0.71606  0.18616  0.18599  1.0000
  C   C997      1.0  0.90060  0.23353  0.22907  1.0000
  H   H1743     1.0  0.50408  0.00964  0.19789  1.0000
  H   H1744     1.0  0.65176  0.06519  0.00689  1.0000
  C   C998      1.0  0.60470  0.36051  0.17541  1.0000
  H   H1745     1.0  0.58228  0.04471  0.03147  1.0000
  C   C999      1.0  0.64713  0.06106  0.99266  1.0000
  H   H1746     1.0  0.53539  0.00443  0.09058  1.0000
  H   H1747     1.0  0.90899  0.07892  0.20775  1.0000
  H   H1748     1.0  0.88112  0.33572  0.03747  1.0000
  N   N55       1.0  0.85496  0.17196  0.14340  1.0000
  C   C1000     1.0  0.86970  0.14995  0.15167  1.0000
  C   C1001     1.0  0.87011  0.19081  0.13245  1.0000
  C   C1002     1.0  0.83844  0.17937  0.16292  1.0000
  C   C1003     1.0  0.84030  0.16853  0.12846  1.0000
  C   C1004     1.0  0.85337  0.15811  0.10855  1.0000
  C   C1005     1.0  0.85636  0.12907  0.16318  1.0000
  C   C1006     1.0  0.82511  0.20418  0.15903  1.0000
  C   C1007     1.0  0.89473  0.18372  0.11936  1.0000
  C   C1008     1.0  0.90595  0.20477  0.10574  1.0000
  C   C1009     1.0  0.83624  0.15144  0.09742  1.0000
  C   C1010     1.0  0.87320  0.10728  0.16877  1.0000
  C   C1011     1.0  0.80494  0.20776  0.17804  1.0000
  H   H1749     1.0  0.87958  0.15305  0.16324  1.0000
  H   H1750     1.0  0.88327  0.14417  0.13839  1.0000
  H   H1751     1.0  0.86070  0.20474  0.12169  1.0000
  H   H1752     1.0  0.87363  0.19927  0.14477  1.0000
  H   H1753     1.0  0.84797  0.17816  0.17612  1.0000
  H   H1754     1.0  0.82522  0.16740  0.16991  1.0000
  H   H1755     1.0  0.82640  0.15776  0.13774  1.0000
  H   H1756     1.0  0.83053  0.18513  0.12179  1.0000
  H   H1757     1.0  0.86546  0.14238  0.11306  1.0000
  H   H1758     1.0  0.86321  0.17107  0.09642  1.0000
  H   H1759     1.0  0.84463  0.13230  0.17854  1.0000
  H   H1760     1.0  0.84584  0.12535  0.15260  1.0000
  H   H1761     1.0  0.81770  0.20819  0.14417  1.0000
  H   H1762     1.0  0.83710  0.21693  0.15735  1.0000
  H   H1763     1.0  0.90629  0.17436  0.13078  1.0000
  H   H1764     1.0  0.89439  0.17234  0.10832  1.0000
  H   H1765     1.0  0.92371  0.19920  0.09698  1.0000
  H   H1766     1.0  0.89542  0.21449  0.09358  1.0000
  H   H1767     1.0  0.90753  0.21631  0.11630  1.0000
  H   H1768     1.0  0.82655  0.13769  0.10855  1.0000
  H   H1769     1.0  0.82360  0.16657  0.09236  1.0000
  H   H1770     1.0  0.84593  0.14478  0.08275  1.0000
  H   H1771     1.0  0.86313  0.09270  0.17697  1.0000
  H   H1772     1.0  0.88484  0.10278  0.15379  1.0000
  H   H1773     1.0  0.81100  0.20269  0.19367  1.0000
  H   H1774     1.0  0.79738  0.22617  0.17592  1.0000
  H   H1775     1.0  0.79100  0.19736  0.17880  1.0000
  N   N56       1.0  0.70182  0.14693  0.21728  1.0000
  H   H1776     1.0  0.97258  0.40564  0.14038  1.0000
  C   C1012     1.0  0.68477  0.28406  0.22855  1.0000
  H   H1777     1.0  0.84346  0.04782  0.21335  1.0000
  C   C1013     1.0  0.91804  0.33533  0.02315  1.0000
  H   H1778     1.0  0.93420  0.41343  0.04981  1.0000
  H   H1779     1.0  0.98163  0.35604  0.07381  1.0000
  C   C1014     1.0  0.66698  0.46577  0.23705  1.0000
  H   H1780     1.0  0.72544  0.20734  0.22174  1.0000
  N   N57       1.0  0.78773  0.31713  0.16179  1.0000
  C   C1015     1.0  0.76891  0.30189  0.17249  1.0000
  C   C1016     1.0  0.79809  0.32302  0.17889  1.0000
  C   C1017     1.0  0.77632  0.33923  0.14967  1.0000
  C   C1018     1.0  0.80657  0.30647  0.14556  1.0000
  C   C1019     1.0  0.81884  0.28229  0.15398  1.0000
  C   C1020     1.0  0.75537  0.29568  0.15725  1.0000
  C   C1021     1.0  0.79224  0.35837  0.13910  1.0000
  C   C1022     1.0  0.79960  0.30430  0.19983  1.0000
  C   C1023     1.0  0.81496  0.30996  0.21326  1.0000
  C   C1024     1.0  0.83544  0.27254  0.13536  1.0000
  C   C1025     1.0  0.74060  0.27646  0.16931  1.0000
  C   C1026     1.0  0.77876  0.38013  0.12797  1.0000
  H   H1781     1.0  0.75576  0.31027  0.18464  1.0000
  H   H1782     1.0  0.77601  0.28544  0.18198  1.0000
  H   H1783     1.0  0.81583  0.32819  0.17173  1.0000
  H   H1784     1.0  0.78757  0.33840  0.18487  1.0000
  H   H1785     1.0  0.76103  0.34661  0.16080  1.0000
  H   H1786     1.0  0.76935  0.33593  0.13627  1.0000
  H   H1787     1.0  0.79976  0.30587  0.13108  1.0000
  H   H1788     1.0  0.82082  0.31748  0.13909  1.0000
  H   H1789     1.0  0.80633  0.26980  0.16201  1.0000
  H   H1790     1.0  0.82954  0.28357  0.16546  1.0000
  H   H1791     1.0  0.74334  0.31089  0.15121  1.0000
  H   H1792     1.0  0.76734  0.28967  0.14317  1.0000
  H   H1793     1.0  0.80691  0.35274  0.12655  1.0000
  H   H1794     1.0  0.79953  0.36314  0.15147  1.0000
  H   H1795     1.0  0.78190  0.30327  0.21008  1.0000
  H   H1796     1.0  0.80660  0.28706  0.19631  1.0000
  H   H1797     1.0  0.96652  0.37217  0.16999  1.0000
  H   H1798     1.0  0.80803  0.32683  0.21794  1.0000
  S   S233      1.0  0.56719  0.14245  0.20351  1.0000
  H   H1799     1.0  0.82554  0.26941  0.12393  1.0000
  H   H1800     1.0  0.84826  0.28453  0.12636  1.0000
  H   H1801     1.0  0.84531  0.25600  0.14199  1.0000
  H   H1802     1.0  0.75194  0.26021  0.17425  1.0000
  H   H1803     1.0  0.72867  0.28123  0.18404  1.0000
  H   H1804     1.0  0.72987  0.27336  0.15855  1.0000
  H   H1805     1.0  0.77154  0.37653  0.11489  1.0000
  H   H1806     1.0  0.76436  0.38727  0.13991  1.0000
  H   H1807     1.0  0.79067  0.39342  0.12068  1.0000
  N   N58       1.0  0.70589  0.06349  0.10011  1.0000
  C   C1027     1.0  0.71968  0.05066  0.08276  1.0000
  C   C1028     1.0  0.69579  0.04632  0.11961  1.0000
  C   C1029     1.0  0.68571  0.07869  0.09126  1.0000
  C   C1030     1.0  0.72020  0.07827  0.10650  1.0000
  C   C1031     1.0  0.74670  0.06960  0.10504  1.0000
  C   C1032     1.0  0.72785  0.06597  0.06022  1.0000
  C   C1033     1.0  0.66746  0.09136  0.10752  1.0000
  C   C1034     1.0  0.71347  0.02957  0.13187  1.0000
  C   C1035     1.0  0.70127  0.01209  0.15011  1.0000
  C   C1036     1.0  0.75788  0.08273  0.11668  1.0000
  C   C1037     1.0  0.74842  0.05345  0.04646  1.0000
  C   C1038     1.0  0.65182  0.11081  0.09582  1.0000
  H   H1808     1.0  0.70913  0.03840  0.08009  1.0000
  H   H1809     1.0  0.73511  0.03947  0.08798  1.0000
  H   H1810     1.0  0.68411  0.05520  0.13210  1.0000
  H   H1811     1.0  0.68472  0.03605  0.11479  1.0000
  H   H1812     1.0  0.67614  0.06846  0.08472  1.0000
  H   H1813     1.0  0.69224  0.09218  0.07722  1.0000
  H   H1814     1.0  0.71918  0.09591  0.09620  1.0000
  H   H1815     1.0  0.71257  0.08097  0.12333  1.0000
  H   H1816     1.0  0.75596  0.07217  0.08781  1.0000
  H   H1817     1.0  0.75028  0.05109  0.11214  1.0000
  H   H1818     1.0  0.71327  0.07067  0.05123  1.0000
  H   H1819     1.0  0.73313  0.08214  0.06180  1.0000
  H   H1820     1.0  0.67602  0.09892  0.11726  1.0000
  H   H1821     1.0  0.65589  0.07919  0.11874  1.0000
  H   H1822     1.0  0.72649  0.01990  0.12094  1.0000
  H   H1823     1.0  0.72245  0.03911  0.13961  1.0000
  H   H1824     1.0  0.67217  0.44895  0.23188  1.0000
  H   H1825     1.0  0.89057  0.04484  0.19967  1.0000
  C   C1039     1.0  0.52762  0.41365  0.22803  1.0000
  H   H1826     1.0  0.77692  0.07679  0.11437  1.0000
  H   H1827     1.0  0.75519  0.10152  0.11003  1.0000
  H   H1828     1.0  0.75053  0.07932  0.13440  1.0000
  H   H1829     1.0  0.76374  0.04908  0.05446  1.0000
  H   H1830     1.0  0.74369  0.03733  0.04413  1.0000
  H   H1831     1.0  0.75335  0.06460  0.03026  1.0000
  H   H1832     1.0  0.63810  0.11847  0.10799  1.0000
  C   C1040     1.0  0.61825  0.99707  0.13541  1.0000
  H   H1833     1.0  0.98525  0.31408  0.06790  1.0000
  H   H1834     1.0  0.88176  0.03296  0.10450  1.0000
  C   C1041     1.0  0.64373  0.42099  0.21353  1.0000
  H   H1835     1.0  0.65532  0.40653  0.22009  1.0000
  Fe  Fe115     1.0  0.58243  0.10994  0.19082  1.0000
  C   C1042     1.0  0.87233  0.02936  0.12167  1.0000
  C   C1043     1.0  0.53662  0.98748  0.10189  1.0000
  C   C1044     1.0  0.59427  0.02993  0.02604  1.0000
  C   C1045     1.0  0.61360  0.45843  0.19658  1.0000
  N   N59       1.0  0.96214  0.34114  0.00862  1.0000
  H   H1836     1.0  0.88535  0.02944  0.16887  1.0000
  H   H1837     1.0  0.87188  0.27498  0.22065  1.0000
  C   C1046     1.0  0.92266  0.36094  0.08037  1.0000
  C   C1047     1.0  0.65545  0.98247  0.99333  1.0000
  C   C1048     1.0  0.59608  0.32158  0.17252  1.0000
  C   C1049     1.0  0.93748  0.35117  0.01758  1.0000
  C   C1050     1.0  0.59400  0.01005  0.04576  1.0000
  H   H1838     1.0  0.50567  0.06915  0.10502  1.0000
  H   H1839     1.0  0.59763  0.00901  0.19037  1.0000
  H   H1840     1.0  0.51449  0.03872  0.13584  1.0000
  H   H1841     1.0  0.78742  0.99038  0.13504  1.0000
  H   H1842     1.0  0.55664  0.03604  0.12904  1.0000
  C   C1051     1.0  0.95515  0.01879  0.14572  1.0000
  S   S234      1.0  0.73049  0.03008  0.23090  1.0000
  H   H1843     1.0  0.96194  0.39368  0.12234  1.0000
  H   H1844     1.0  0.91142  0.02862  0.13387  1.0000
  C   C1052     1.0  0.90020  0.12666  0.21448  1.0000
  H   H1845     1.0  0.90118  0.39077  0.06646  1.0000
  H   H1846     1.0  0.63353  0.13504  0.23828  1.0000
  C   C1053     1.0  0.91904  0.19571  0.22019  1.0000
  H   H1847     1.0  0.54522  0.41910  0.22168  1.0000
  H   H1848     1.0  0.94850  0.33399  0.09199  1.0000
  C   C1054     1.0  0.91874  0.38321  0.06818  1.0000
  H   H1849     1.0  0.60417  0.30400  0.17022  1.0000
  Fe  Fe116     1.0  0.63799  0.26018  0.23660  1.0000
  H   H1850     1.0  0.92393  0.37348  0.17556  1.0000
  H   H1851     1.0  0.57623  0.34433  0.22789  1.0000
  H   H1852     1.0  0.60537  0.37458  0.21179  1.0000
  H   H1853     1.0  0.61948  0.98564  0.99117  1.0000
  H   H1854     1.0  0.93581  0.18359  0.18006  1.0000
  H   H1855     1.0  0.93701  0.35777  0.03244  1.0000
  C   C1055     1.0  0.94538  0.35125  0.08265  1.0000
  C   C1056     1.0  0.91826  0.12507  0.22551  1.0000
  S   S235      1.0  0.65139  0.28435  0.20568  1.0000
  S   S236      1.0  0.65593  0.99680  0.04599  1.0000
  C   C1057     1.0  0.52399  0.06121  0.10518  1.0000
  H   H1856     1.0  0.98426  0.41608  0.99324  1.0000
  C   C1058     1.0  0.98437  0.31902  0.19967  1.0000
  H   H1857     1.0  0.65754  0.16758  0.20958  1.0000
  H   H1858     1.0  0.85765  0.05189  0.23396  1.0000
  H   H1859     1.0  0.60497  0.99434  0.04106  1.0000
  N   N60       1.0  0.90759  0.20847  0.23838  1.0000
  H   H1860     1.0  0.73933  0.17572  0.20059  1.0000
  C   C1059     1.0  0.59789  0.00131  0.12375  1.0000
  Fe  Fe117     1.0  0.78520  0.98201  0.18209  1.0000
  C   C1060     1.0  0.52437  0.03703  0.11933  1.0000
  H   H1861     1.0  0.68897  0.02109  0.16223  1.0000
  C   C1061     1.0  0.94754  0.19358  0.18425  1.0000
  H   H1862     1.0  0.95867  0.35656  0.15280  1.0000
  C   C1062     1.0  0.68489  0.13599  0.23658  1.0000
  C   C1063     1.0  0.57506  0.99531  0.14001  1.0000
  C   C1064     1.0  0.98313  0.30075  0.05947  1.0000
  H   H1863     1.0  0.62952  0.02041  0.01085  1.0000
  C   C1065     1.0  0.93362  0.20934  0.19944  1.0000
  H   H1864     1.0  0.61366  0.41232  0.23851  1.0000
  H   H1865     1.0  0.62656  0.33697  0.15516  1.0000
  H   H1866     1.0  0.57205  0.98919  0.10092  1.0000
  H   H1867     1.0  0.77813  0.00392  0.09835  1.0000
  C   C1066     1.0  0.96016  0.38628  0.06086  1.0000
  S   S237      1.0  0.94430  0.13540  0.21110  1.0000
  C   C1067     1.0  0.68767  0.04923  0.22114  1.0000
  C   C1068     1.0  0.52992  0.00403  0.16916  1.0000
  H   H1868     1.0  0.62952  0.10276  0.00298  1.0000
  C   C1069     1.0  0.70321  0.32206  0.20009  1.0000
  C   C1070     1.0  0.72529  0.13227  0.21471  1.0000
  H   H1869     1.0  0.95823  0.20482  0.23384  1.0000
  C   C1071     1.0  0.97553  0.33133  0.02661  1.0000
  C   C1072     1.0  0.91078  0.99814  0.17363  1.0000
  H   H1870     1.0  0.99105  0.00425  0.14812  1.0000
  C   C1073     1.0  0.58537  0.15282  0.21603  1.0000
  H   H1871     1.0  0.93139  0.36644  0.00573  1.0000
  S   S238      1.0  0.82630  0.15205  0.21961  1.0000
  N   N61       1.0  0.62188  0.05692  0.99808  1.0000
  H   H1872     1.0  0.92185  0.22228  0.19024  1.0000
  H   H1873     1.0  0.91415  0.03552  0.16672  1.0000
  H   H1874     1.0  0.97853  0.35715  0.11567  1.0000
  H   H1875     1.0  0.84771  0.07635  0.21476  1.0000
  H   H1876     1.0  0.67635  0.18536  0.18957  1.0000
  H   H1877     1.0  0.74915  0.07491  0.21474  1.0000
  H   H1878     1.0  0.54224  0.99419  0.17965  1.0000
  H   H1879     1.0  0.90260  0.13407  0.19729  1.0000
  H   H1880     1.0  0.68753  0.18069  0.22424  1.0000
  C   C1074     1.0  0.64801  0.99677  0.22094  1.0000
  C   C1075     1.0  0.93332  0.38472  0.16114  1.0000
  H   H1881     1.0  0.71651  0.09790  0.23226  1.0000
  H   H1882     1.0  0.56185  0.38017  0.23751  1.0000
  H   H1883     1.0  0.98668  0.03492  0.13877  1.0000
  H   H1884     1.0  0.86563  0.11895  0.21684  1.0000
  H   H1885     1.0  0.81540  0.29658  0.22826  1.0000
  H   H1886     1.0  0.94937  0.31629  0.05367  1.0000
  H   H1887     1.0  0.96105  0.18151  0.19203  1.0000
  C   C1076     1.0  0.62017  0.42421  0.22387  1.0000
  H   H1888     1.0  0.62577  0.32660  0.18363  1.0000
  S   S239      1.0  0.84065  0.99113  0.23053  1.0000
  H   H1889     1.0  0.88007  0.01737  0.20795  1.0000
  H   H1890     1.0  0.59021  0.35870  0.18985  1.0000
  H   H1891     1.0  0.56040  0.02859  0.10344  1.0000
  H   H1892     1.0  0.91598  0.24227  0.22022  1.0000
  S   S240      1.0  0.81719  0.21152  0.23727  1.0000
  H   H1893     1.0  0.78204  0.24987  0.21538  1.0000
  H   H1894     1.0  0.68053  0.11981  0.23386  1.0000
  C   C1077     1.0  0.72107  0.18427  0.20185  1.0000
  H   H1895     1.0  0.65179  0.14807  0.18165  1.0000
  H   H1896     1.0  0.92211  0.31928  0.03484  1.0000
  H   H1897     1.0  0.91568  0.33062  0.00824  1.0000
  H   H1898     1.0  0.58609  0.32947  0.15948  1.0000
  H   H1899     1.0  0.95563  0.99055  0.12993  1.0000
  H   H1900     1.0  0.83306  0.31039  0.20380  1.0000
  H   H1901     1.0  0.69745  0.99195  0.19950  1.0000
  C   C1078     1.0  0.58555  0.99723  0.19960  1.0000
  H   H1902     1.0  0.58394  0.31999  0.18853  1.0000
  H   H1903     1.0  0.96466  0.29650  0.03625  1.0000
  H   H1904     1.0  0.93263  0.05656  0.20190  1.0000
  C   C1079     1.0  0.91046  0.01050  0.13365  1.0000
  Fe  Fe118     1.0  0.71198  0.98929  0.06883  1.0000
  C   C1080     1.0  0.69207  0.14919  0.19715  1.0000
  H   H1905     1.0  0.58734  0.19851  0.23819  1.0000
  H   H1906     1.0  0.89793  0.28109  0.22704  1.0000
  Fe  Fe119     1.0  0.73001  0.36247  0.21734  1.0000
  H   H1907     1.0  0.60280  0.99049  0.11136  1.0000
  C   C1081     1.0  0.56800  0.00359  0.21657  1.0000
  S   S241      1.0  0.98540  0.01263  0.19519  1.0000
  H   H1908     1.0  0.68674  0.13250  0.19680  1.0000
  H   H1909     1.0  0.70280  0.21817  0.20605  1.0000
  S   S242      1.0  0.57610  0.44767  0.22881  1.0000
  H   H1910     1.0  0.76101  0.09780  0.22015  1.0000
  H   H1911     1.0  0.64340  0.03118  0.20093  1.0000
  H   H1912     1.0  0.62686  0.03836  0.02990  1.0000
  C   C1082     1.0  0.63606  0.34986  0.21159  1.0000
  Fe  Fe120     1.0  0.81448  0.99561  0.20897  1.0000
  C   C1083     1.0  0.70481  0.17008  0.22065  1.0000
  H   H1913     1.0  0.69176  0.00192  0.14353  1.0000
  N   N62       1.0  0.55322  0.00032  0.13062  1.0000
  H   H1914     1.0  0.90562  0.18972  0.21405  1.0000
  S   S243      1.0  0.74552  0.99244  0.07790  1.0000
  C   C1084     1.0  0.76339  0.24956  0.22343  1.0000
  C   C1085     1.0  0.61400  0.10140  0.99670  1.0000
  C   C1086     1.0  0.97245  0.38925  0.13535  1.0000
  H   H1915     1.0  0.51497  0.42919  0.23060  1.0000
  H   H1916     1.0  0.58986  0.11766  0.02158  1.0000
  H   H1917     1.0  0.96416  0.25147  0.19918  1.0000
  H   H1918     1.0  0.71246  0.16799  0.23529  1.0000
  S   S244      1.0  0.98322  0.40268  0.04888  1.0000
  H   H1919     1.0  0.59773  0.30599  0.22394  1.0000
  H   H1920     1.0  0.61669  0.01922  0.21395  1.0000
  C   C1087     1.0  0.70273  0.29305  0.23314  1.0000
  H   H1921     1.0  0.50090  0.98541  0.18739  1.0000
  C   C1088     1.0  0.58144  0.30753  0.23638  1.0000
  S   S245      1.0  0.77166  0.17381  0.23373  1.0000
  C   C1089     1.0  0.59250  0.18199  0.23345  1.0000
  H   H1922     1.0  0.61109  0.12293  0.21618  1.0000
  H   H1923     1.0  0.97541  0.34471  0.03589  1.0000
  S   S246      1.0  0.56644  0.02992  0.22459  1.0000
  H   H1924     1.0  0.66412  0.99902  0.22568  1.0000
  H   H1925     1.0  0.68024  0.04191  0.23776  1.0000
  C   C1090     1.0  0.60623  0.07716  0.00616  1.0000
  H   H1926     1.0  0.56327  0.18505  0.21790  1.0000
  H   H1927     1.0  0.56663  0.30515  0.22968  1.0000
  H   H1928     1.0  0.60060  0.01472  0.05872  1.0000
  C   C1091     1.0  0.50526  0.00329  0.18280  1.0000
  C   C1092     1.0  0.59477  0.12027  0.00357  1.0000
  C   C1093     1.0  0.61856  0.14629  0.23347  1.0000
  H   H1929     1.0  0.98672  0.01623  0.12063  1.0000
  H   H1930     1.0  0.73309  0.21785  0.19282  1.0000
  H   H1931     1.0  0.98709  0.23630  0.21317  1.0000
  H   H1932     1.0  0.88387  0.99309  0.12758  1.0000
  H   H1933     1.0  0.94176  0.02379  0.23276  1.0000
  C   C1094     1.0  0.98330  0.24843  0.19824  1.0000
  H   H1934     1.0  0.65317  0.36356  0.23143  1.0000
  C   C1095     1.0  0.91582  0.05334  0.23616  1.0000
  H   H1935     1.0  0.92036  0.00817  0.11721  1.0000
  C   C1096     1.0  0.98150  0.01844  0.13776  1.0000
  C   C1097     1.0  0.55212  0.98821  0.22810  1.0000
  H   H1936     1.0  0.90183  0.04415  0.23484  1.0000
  H   H1937     1.0  0.98598  0.24692  0.16493  1.0000
  H   H1938     1.0  0.60210  0.47312  0.19007  1.0000
  H   H1939     1.0  0.69471  0.05306  0.99308  1.0000
  H   H1940     1.0  0.58818  0.07781  0.00366  1.0000
  H   H1941     1.0  0.97598  0.28631  0.07197  1.0000
  H   H1942     1.0  0.52706  0.06930  0.23401  1.0000
  H   H1943     1.0  0.66587  0.02605  0.99945  1.0000
  H   H1944     1.0  0.95629  0.98304  0.15819  1.0000
  H   H1945     1.0  0.99075  0.42960  0.11314  1.0000
  C   C1098     1.0  0.82008  0.06198  0.23981  1.0000
  Fe  Fe121     1.0  0.80631  0.17687  0.24020  1.0000
  C   C1099     1.0  0.61210  0.16770  0.23960  1.0000
  C   C1100     1.0  0.99075  0.30523  0.16609  1.0000
  H   H1946     1.0  0.64876  0.36831  0.29910  1.0000
  H   H1947     1.0  0.89391  0.16321  0.24367  1.0000
  H   H1948     1.0  0.54262  0.15669  0.29579  1.0000
  C   C1101     1.0  0.96574  0.05558  0.42909  1.0000
  C   C1102     1.0  0.97363  0.08212  0.44956  1.0000
  H   H1949     1.0  0.96525  0.09464  0.43700  1.0000
  C   C1103     1.0  0.55251  0.46964  0.46157  1.0000
  C   C1104     1.0  0.67861  0.47967  0.30078  1.0000
  H   H1950     1.0  0.93600  0.04271  0.45426  1.0000
  C   C1105     1.0  0.64299  0.46607  0.25295  1.0000
  C   C1106     1.0  0.93938  0.05668  0.43984  1.0000
  H   H1951     1.0  0.92903  0.11451  0.25635  1.0000
  C   C1107     1.0  0.92498  0.05410  0.42395  1.0000
  H   H1952     1.0  0.58600  0.44485  0.43929  1.0000
  H   H1953     1.0  0.57660  0.43763  0.31184  1.0000
  Fe  Fe122     1.0  0.65070  0.23827  0.28006  1.0000
  H   H1954     1.0  0.64092  0.07446  0.26545  1.0000
  S   S247      1.0  0.67917  0.23498  0.29850  1.0000
  Fe  Fe123     1.0  0.60021  0.25413  0.27698  1.0000
  S   S248      1.0  0.78721  0.11750  0.24423  1.0000
  S   S249      1.0  0.56562  0.26976  0.29419  1.0000
  Fe  Fe124     1.0  0.62594  0.21221  0.25886  1.0000
  H   H1955     1.0  0.49552  0.44462  0.29448  1.0000
  C   C1108     1.0  0.94691  0.21507  0.24544  1.0000
  C   C1109     1.0  0.59787  0.44883  0.27980  1.0000
  S   S250      1.0  0.61874  0.22052  0.29208  1.0000
  S   S251      1.0  0.63160  0.27259  0.26786  1.0000
  Fe  Fe125     1.0  0.64632  0.34616  0.35681  1.0000
  S   S252      1.0  0.62710  0.32194  0.38407  1.0000
  S   S253      1.0  0.68086  0.33272  0.33845  1.0000
  Fe  Fe126     1.0  0.60922  0.38664  0.36300  1.0000
  S   S254      1.0  0.58704  0.36570  0.39123  1.0000
  S   S255      1.0  0.60198  0.42462  0.34972  1.0000
  Fe  Fe127     1.0  0.62065  0.35075  0.40210  1.0000
  S   S256      1.0  0.62572  0.34277  0.43674  1.0000
  Fe  Fe128     1.0  0.59556  0.33912  0.37038  1.0000
  S   S257      1.0  0.56663  0.31995  0.36965  1.0000
  S   S258      1.0  0.64218  0.37380  0.37566  1.0000
  S   S259      1.0  0.61536  0.36104  0.34140  1.0000
  N   N63       1.0  0.98192  0.05930  0.44258  1.0000
  H   H1956     1.0  0.76257  0.00963  0.26851  1.0000
  S   S260      1.0  0.67496  0.41407  0.46253  1.0000
  C   C1110     1.0  0.65176  0.38221  0.28448  1.0000
  C   C1111     1.0  0.56850  0.44099  0.43882  1.0000
  H   H1957     1.0  0.57096  0.46798  0.30057  1.0000
  C   C1112     1.0  0.71580  0.45739  0.44353  1.0000
  H   H1958     1.0  0.70809  0.44778  0.43477  1.0000
  C   C1113     1.0  0.72335  0.35402  0.46219  1.0000
  H   H1959     1.0  0.62615  0.06252  0.25007  1.0000
  C   C1114     1.0  0.92331  0.20553  0.25435  1.0000
  C   C1115     1.0  0.64803  0.42533  0.27048  1.0000
  C   C1116     1.0  0.71823  0.34289  0.44509  1.0000
  C   C1117     1.0  0.55897  0.15584  0.28333  1.0000
  C   C1118     1.0  0.63758  0.36345  0.44471  1.0000
  C   C1119     1.0  0.64407  0.35845  0.46500  1.0000
  C   C1120     1.0  0.65482  0.37426  0.47105  1.0000
  C   C1121     1.0  0.65910  0.39511  0.45679  1.0000
  C   C1122     1.0  0.65203  0.40037  0.43678  1.0000
  C   C1123     1.0  0.64138  0.38453  0.43075  1.0000
  H   H1960     1.0  0.63067  0.46221  0.24407  1.0000
  H   H1961     1.0  0.67444  0.47820  0.43574  1.0000
  H   H1962     1.0  0.65538  0.41643  0.42565  1.0000
  H   H1963     1.0  0.63649  0.38849  0.41513  1.0000
  C   C1124     1.0  0.57334  0.43646  0.35929  1.0000
  C   C1125     1.0  0.56729  0.46040  0.35644  1.0000
  C   C1126     1.0  0.61847  0.45338  0.28851  1.0000
  C   C1127     1.0  0.52817  0.45510  0.37679  1.0000
  C   C1128     1.0  0.53415  0.43128  0.37926  1.0000
  C   C1129     1.0  0.55657  0.42202  0.37029  1.0000
  H   H1964     1.0  0.54715  0.05189  0.33895  1.0000
  H   H1965     1.0  0.77523  0.07095  0.25772  1.0000
  H   H1966     1.0  0.52138  0.41993  0.38811  1.0000
  H   H1967     1.0  0.56085  0.40368  0.37190  1.0000
  C   C1130     1.0  0.69529  0.20795  0.29692  1.0000
  C   C1131     1.0  0.68372  0.18874  0.30041  1.0000
  C   C1132     1.0  0.69652  0.16727  0.29815  1.0000
  C   C1133     1.0  0.71964  0.20569  0.29115  1.0000
  H   H1968     1.0  0.66489  0.19041  0.30482  1.0000
  H   H1969     1.0  0.68752  0.15241  0.30104  1.0000
  H   H1970     1.0  0.72856  0.22049  0.28846  1.0000
  C   C1134     1.0  0.56632  0.28476  0.31429  1.0000
  C   C1135     1.0  0.54940  0.28207  0.33340  1.0000
  C   C1136     1.0  0.54962  0.29329  0.35000  1.0000
  C   C1137     1.0  0.56650  0.30767  0.34753  1.0000
  C   C1138     1.0  0.58270  0.31155  0.32789  1.0000
  C   C1139     1.0  0.58266  0.29997  0.31126  1.0000
  H   H1971     1.0  0.53633  0.27085  0.33559  1.0000
  H   H1972     1.0  0.53680  0.29054  0.36498  1.0000
  H   H1973     1.0  0.59551  0.32300  0.32576  1.0000
  H   H1974     1.0  0.59532  0.30261  0.29620  1.0000
  C   C1140     1.0  0.71236  0.39203  0.28913  1.0000
  C   C1141     1.0  0.69862  0.39589  0.30900  1.0000
  C   C1142     1.0  0.68910  0.37760  0.32429  1.0000
  C   C1143     1.0  0.69401  0.35534  0.32009  1.0000
  C   C1144     1.0  0.70883  0.35130  0.30072  1.0000
  C   C1145     1.0  0.71771  0.36968  0.28512  1.0000
  H   H1975     1.0  0.69447  0.41316  0.31212  1.0000
  H   H1976     1.0  0.67769  0.38083  0.33913  1.0000
  H   H1977     1.0  0.71267  0.33421  0.29729  1.0000
  H   H1978     1.0  0.72833  0.36656  0.26982  1.0000
  H   H1979     1.0  0.93263  0.07335  0.44494  1.0000
  C   C1146     1.0  0.56066  0.04449  0.32647  1.0000
  C   C1147     1.0  0.98088  0.11427  0.46564  1.0000
  H   H1980     1.0  0.52463  0.43789  0.45605  1.0000
  C   C1148     1.0  0.88325  0.00856  0.45826  1.0000
  H   H1981     1.0  0.53456  0.12402  0.28139  1.0000
  H   H1982     1.0  0.97718  0.01013  0.24163  1.0000
  H   H1983     1.0  0.54405  0.39554  0.33428  1.0000
  H   H1984     1.0  0.89532  0.00532  0.30429  1.0000
  H   H1985     1.0  0.73409  0.08689  0.26658  1.0000
  H   H1986     1.0  0.67564  0.46871  0.31734  1.0000
  H   H1987     1.0  0.65211  0.46941  0.48607  1.0000
  H   H1988     1.0  0.60398  0.45887  0.49001  1.0000
  C   C1149     1.0  0.88617  0.24846  0.24538  1.0000
  C   C1150     1.0  0.55299  0.11932  0.27338  1.0000
  C   C1151     1.0  0.54464  0.46975  0.36521  1.0000
  H   H1989     1.0  0.76994  0.23142  0.25460  1.0000
  C   C1152     1.0  0.52659  0.45451  0.44430  1.0000
  H   H1990     1.0  0.95665  0.08351  0.34841  1.0000
  H   H1991     1.0  0.57184  0.16442  0.28761  1.0000
  H   H1992     1.0  0.61432  0.47148  0.29071  1.0000
  S   S261      1.0  0.95233  0.99588  0.45027  1.0000
  H   H1993     1.0  0.50635  0.39727  0.32078  1.0000
  H   H1994     1.0  0.57252  0.34645  0.28883  1.0000
  H   H1995     1.0  0.77786  0.01520  0.30044  1.0000
  C   C1153     1.0  0.62603  0.07777  0.25699  1.0000
  C   C1154     1.0  0.58204  0.38336  0.29814  1.0000
  H   H1996     1.0  0.97778  0.21774  0.25640  1.0000
  H   H1997     1.0  0.67072  0.38054  0.27746  1.0000
  C   C1155     1.0  0.59206  0.41460  0.41415  1.0000
  H   H1998     1.0  0.89551  0.02091  0.26618  1.0000
  C   C1156     1.0  0.54856  0.45205  0.48342  1.0000
  H   H1999     1.0  0.98007  0.05290  0.37024  1.0000
  S   S262      1.0  0.73638  0.13889  0.28624  1.0000
  C   C1157     1.0  0.53674  0.09840  0.24320  1.0000
  H   H2000     1.0  0.95083  0.22531  0.27451  1.0000
  H   H2001     1.0  0.72787  0.44494  0.45277  1.0000
  H   H2002     1.0  0.53986  0.34064  0.31323  1.0000
  C   C1158     1.0  0.50569  0.42807  0.33356  1.0000
  H   H2003     1.0  0.90818  0.06520  0.24741  1.0000
  C   C1159     1.0  0.50234  0.47974  0.30993  1.0000
  C   C1160     1.0  0.65977  0.47832  0.28872  1.0000
  H   H2004     1.0  0.69166  0.14756  0.26394  1.0000
  H   H2005     1.0  0.56066  0.44720  0.29010  1.0000
  C   C1161     1.0  0.55613  0.05545  0.30371  1.0000
  H   H2006     1.0  0.53897  0.05119  0.30284  1.0000
  H   H2007     1.0  0.58100  0.36886  0.31243  1.0000
  H   H2008     1.0  0.97992  0.27338  0.24204  1.0000
  H   H2009     1.0  0.82460  0.07450  0.30680  1.0000
  H   H2010     1.0  0.70423  0.33194  0.45335  1.0000
  H   H2011     1.0  0.96159  0.19545  0.27340  1.0000
  H   H2012     1.0  0.98901  0.05457  0.48695  1.0000
  H   H2013     1.0  0.71370  0.06995  0.28626  1.0000
  C   C1162     1.0  0.90409  0.99426  0.29243  1.0000
  H   H2014     1.0  0.56449  0.39883  0.27185  1.0000
  H   H2015     1.0  0.91628  0.99808  0.25738  1.0000
  H   H2016     1.0  0.98689  0.28732  0.34203  1.0000
  C   C1163     1.0  0.52560  0.35552  0.28350  1.0000
  H   H2017     1.0  0.76021  0.28435  0.24372  1.0000
  H   H2018     1.0  0.88533  0.03102  0.47879  1.0000
  H   H2019     1.0  0.57086  0.44555  0.40327  1.0000
  H   H2020     1.0  0.49850  0.35683  0.32523  1.0000
  H   H2021     1.0  0.59341  0.40899  0.39871  1.0000
  H   H2022     1.0  0.80920  0.02958  0.24239  1.0000
  C   C1164     1.0  0.89408  0.10730  0.25886  1.0000
  H   H2023     1.0  0.52220  0.08886  0.27747  1.0000
  H   H2024     1.0  0.56006  0.02566  0.32962  1.0000
  S   S263      1.0  0.98125  0.09884  0.25500  1.0000
  C   C1165     1.0  0.67582  0.11666  0.27636  1.0000
  H   H2025     1.0  0.64455  0.46032  0.45069  1.0000
  H   H2026     1.0  0.52710  0.39008  0.36159  1.0000
  H   H2027     1.0  0.60196  0.06638  0.28607  1.0000
  C   C1166     1.0  0.50622  0.40170  0.33653  1.0000
  H   H2028     1.0  0.90233  0.00594  0.45187  1.0000
  H   H2029     1.0  0.52939  0.11676  0.24254  1.0000
  H   H2030     1.0  0.95096  0.98853  0.27065  1.0000
  H   H2031     1.0  0.68144  0.11370  0.29214  1.0000
  H   H2032     1.0  0.58016  0.47168  0.34766  1.0000
  S   S264      1.0  0.97254  0.15427  0.25208  1.0000
  H   H2033     1.0  0.56493  0.42624  0.45262  1.0000
  C   C1167     1.0  0.56893  0.13082  0.28241  1.0000
  H   H2034     1.0  0.50422  0.32656  0.33629  1.0000
  C   C1168     1.0  0.60313  0.08203  0.27302  1.0000
  H   H2035     1.0  0.81467  0.05025  0.32737  1.0000
  H   H2036     1.0  0.54325  0.06746  0.26643  1.0000
  H   H2037     1.0  0.62987  0.43781  0.48726  1.0000
  H   H2038     1.0  0.50267  0.08745  0.24681  1.0000
  H   H2039     1.0  0.64114  0.34217  0.47591  1.0000
  C   C1169     1.0  0.72079  0.16523  0.29132  1.0000
  C   C1170     1.0  0.72963  0.06916  0.27332  1.0000
  N   N64       1.0  0.71017  0.35290  0.40593  1.0000
  C   C1171     1.0  0.71001  0.36132  0.42623  1.0000
  C   C1172     1.0  0.69725  0.37145  0.39119  1.0000
  C   C1173     1.0  0.69662  0.33250  0.41270  1.0000
  C   C1174     1.0  0.73447  0.34554  0.39410  1.0000
  C   C1175     1.0  0.75424  0.35868  0.39525  1.0000
  C   C1176     1.0  0.69204  0.32289  0.39396  1.0000
  C   C1177     1.0  0.70641  0.39511  0.38367  1.0000
  C   C1178     1.0  0.68951  0.41295  0.37183  1.0000
  C   C1179     1.0  0.77667  0.35262  0.37931  1.0000
  H   H2040     1.0  0.74439  0.03667  0.28991  1.0000
  H   H2041     1.0  0.69206  0.36876  0.43285  1.0000
  H   H2042     1.0  0.72053  0.37568  0.42271  1.0000
  H   H2043     1.0  0.69727  0.36585  0.37594  1.0000
  H   H2044     1.0  0.67863  0.37443  0.39932  1.0000
  H   H2045     1.0  0.67930  0.33689  0.42309  1.0000
  H   H2046     1.0  0.86576  0.14517  0.27486  1.0000
  H   H2047     1.0  0.74020  0.32704  0.40042  1.0000
  H   H2048     1.0  0.73446  0.34662  0.37663  1.0000
  H   H2049     1.0  0.75827  0.35396  0.41179  1.0000
  H   H2050     1.0  0.74952  0.37755  0.39155  1.0000
  H   H2051     1.0  0.70826  0.32010  0.38175  1.0000
  H   H2052     1.0  0.67900  0.33500  0.38569  1.0000
  H   H2053     1.0  0.70849  0.40203  0.39745  1.0000
  H   H2054     1.0  0.72329  0.39365  0.37200  1.0000
  H   H2055     1.0  0.67216  0.41532  0.38270  1.0000
  H   H2056     1.0  0.69644  0.42975  0.36657  1.0000
  H   H2057     1.0  0.68738  0.40758  0.35717  1.0000
  H   H2058     1.0  0.78254  0.33381  0.38279  1.0000
  H   H2059     1.0  0.77390  0.35801  0.36232  1.0000
  H   H2060     1.0  0.79066  0.36175  0.38089  1.0000
  C   C1180     1.0  0.88770  0.17172  0.25778  1.0000
  H   H2061     1.0  0.51038  0.43165  0.34803  1.0000
  H   H2062     1.0  0.69476  0.28673  0.41025  1.0000
  C   C1181     1.0  0.78342  0.33093  0.27101  1.0000
  H   H2063     1.0  0.60440  0.09639  0.28045  1.0000
  H   H2064     1.0  0.89152  0.10018  0.27609  1.0000
  H   H2065     1.0  0.51941  0.46905  0.30653  1.0000
  H   H2066     1.0  0.61807  0.44294  0.30519  1.0000
  H   H2067     1.0  0.60081  0.43158  0.27568  1.0000
  H   H2068     1.0  0.68090  0.46878  0.24450  1.0000
  N   N65       1.0  0.62634  0.25098  0.35919  1.0000
  C   C1182     1.0  0.62441  0.26426  0.37681  1.0000
  C   C1183     1.0  0.63024  0.26669  0.33697  1.0000
  C   C1184     1.0  0.60334  0.24180  0.36277  1.0000
  C   C1185     1.0  0.64537  0.23077  0.36018  1.0000
  C   C1186     1.0  0.67002  0.23628  0.35930  1.0000
  C   C1187     1.0  0.61965  0.25041  0.40053  1.0000
  C   C1188     1.0  0.60002  0.23053  0.34457  1.0000
  C   C1189     1.0  0.64310  0.28787  0.33396  1.0000
  C   C1190     1.0  0.64889  0.29968  0.31003  1.0000
  C   C1191     1.0  0.68762  0.21443  0.36063  1.0000
  C   C1192     1.0  0.61964  0.26531  0.41670  1.0000
  C   C1193     1.0  0.57663  0.22109  0.35050  1.0000
  H   H2069     1.0  0.61012  0.27899  0.37541  1.0000
  H   H2070     1.0  0.64046  0.27215  0.37480  1.0000
  H   H2071     1.0  0.63916  0.25672  0.32420  1.0000
  H   H2072     1.0  0.61334  0.27427  0.33241  1.0000
  H   H2073     1.0  0.58857  0.25593  0.36483  1.0000
  H   H2074     1.0  0.60080  0.22852  0.37799  1.0000
  H   H2075     1.0  0.64076  0.21731  0.37494  1.0000
  H   H2076     1.0  0.64720  0.22218  0.34628  1.0000
  H   H2077     1.0  0.67034  0.24452  0.37285  1.0000
  H   H2078     1.0  0.67604  0.24768  0.34363  1.0000
  H   H2079     1.0  0.60229  0.24434  0.40475  1.0000
  H   H2080     1.0  0.63321  0.23537  0.40299  1.0000
  H   H2081     1.0  0.61387  0.21597  0.34182  1.0000
  H   H2082     1.0  0.60022  0.24322  0.32906  1.0000
  H   H2083     1.0  0.63177  0.30075  0.34293  1.0000
  H   H2084     1.0  0.65952  0.28323  0.34011  1.0000
  H   H2085     1.0  0.65745  0.31510  0.30845  1.0000
  H   H2086     1.0  0.66089  0.28779  0.30036  1.0000
  H   H2087     1.0  0.63285  0.30536  0.30324  1.0000
  H   H2088     1.0  0.70523  0.21892  0.35960  1.0000
  H   H2089     1.0  0.68277  0.20222  0.37623  1.0000
  H   H2090     1.0  0.68849  0.20592  0.34688  1.0000
  C   C1194     1.0  0.63147  0.46917  0.46236  1.0000
  H   H2091     1.0  0.63679  0.27166  0.41368  1.0000
  H   H2092     1.0  0.60570  0.28025  0.41544  1.0000
  H   H2093     1.0  0.56201  0.23493  0.35362  1.0000
  H   H2094     1.0  0.57429  0.21411  0.33678  1.0000
  H   H2095     1.0  0.57602  0.20704  0.36514  1.0000
  N   N66       1.0  0.93134  0.02301  0.26729  1.0000
  S   S265      1.0  0.65968  0.22720  0.24810  1.0000
  C   C1195     1.0  0.95248  0.00606  0.27258  1.0000
  C   C1196     1.0  0.91158  0.00938  0.26961  1.0000
  C   C1197     1.0  0.92389  0.03898  0.28319  1.0000
  C   C1198     1.0  0.93972  0.05769  0.28023  1.0000
  H   H2096     1.0  0.97941  0.01542  0.32122  1.0000
  H   H2097     1.0  0.58378  0.36293  0.26340  1.0000
  H   H2098     1.0  0.50510  0.47525  0.46766  1.0000
  C   C1199     1.0  0.93317  0.07000  0.29941  1.0000
  H   H2099     1.0  0.59149  0.39924  0.42761  1.0000
  H   H2100     1.0  0.96327  0.03875  0.47162  1.0000
  H   H2101     1.0  0.78146  0.33004  0.28870  1.0000
  S   S266      1.0  0.62832  0.17526  0.25586  1.0000
  H   H2102     1.0  0.51193  0.35151  0.27617  1.0000
  C   C1200     1.0  0.52811  0.38863  0.34456  1.0000
  H   H2103     1.0  0.90586  0.04789  0.28265  1.0000
  H   H2104     1.0  0.92287  0.02893  0.30014  1.0000
  H   H2105     1.0  0.93817  0.07074  0.26519  1.0000
  H   H2106     1.0  0.95812  0.05015  0.27914  1.0000
  C   C1201     1.0  0.50552  0.47237  0.45122  1.0000
  C   C1202     1.0  0.69668  0.46926  0.45917  1.0000
  H   H2107     1.0  0.57818  0.04728  0.32789  1.0000
  C   C1203     1.0  0.77996  0.00141  0.27181  1.0000
  C   C1204     1.0  0.74974  0.05400  0.28281  1.0000
  H   H2108     1.0  0.54628  0.38540  0.29654  1.0000
  H   H2109     1.0  0.98902  0.03152  0.29421  1.0000
  H   H2110     1.0  0.93644  0.05785  0.31456  1.0000
  H   H2111     1.0  0.94399  0.08412  0.29630  1.0000
  H   H2112     1.0  0.91454  0.07753  0.30175  1.0000
  H   H2113     1.0  0.59968  0.38166  0.28770  1.0000
  H   H2114     1.0  0.52057  0.43277  0.32011  1.0000
  H   H2115     1.0  0.57930  0.39962  0.30413  1.0000
  N   N67       1.0  0.76603  0.26988  0.27615  1.0000
  C   C1205     1.0  0.77891  0.28864  0.27773  1.0000
  C   C1206     1.0  0.77546  0.24744  0.28926  1.0000
  C   C1207     1.0  0.52710  0.39625  0.24951  1.0000
  C   C1208     1.0  0.74025  0.27480  0.28497  1.0000
  C   C1209     1.0  0.73334  0.28020  0.30812  1.0000
  H   H2116     1.0  0.62461  0.40637  0.29807  1.0000
  C   C1210     1.0  0.80200  0.23984  0.28261  1.0000
  C   C1211     1.0  0.80862  0.21462  0.29275  1.0000
  C   C1212     1.0  0.70693  0.28352  0.31536  1.0000
  Fe  Fe129     1.0  0.98559  0.12317  0.27475  1.0000
  H   H2117     1.0  0.79761  0.28552  0.26979  1.0000
  H   H2118     1.0  0.77900  0.28828  0.29502  1.0000
  H   H2119     1.0  0.77267  0.24839  0.30662  1.0000
  H   H2120     1.0  0.76564  0.23335  0.28926  1.0000
  C   C1213     1.0  0.97672  0.01105  0.25859  1.0000
  H   H2121     1.0  0.73196  0.28933  0.27385  1.0000
  H   H2122     1.0  0.73136  0.25987  0.28554  1.0000
  H   H2123     1.0  0.73979  0.29618  0.30868  1.0000
  H   H2124     1.0  0.74013  0.26594  0.32025  1.0000
  C   C1214     1.0  0.54485  0.37437  0.24664  1.0000
  C   C1215     1.0  0.55525  0.33330  0.26076  1.0000
  H   H2125     1.0  0.80781  0.24206  0.26483  1.0000
  H   H2126     1.0  0.81196  0.25039  0.28830  1.0000
  H   H2127     1.0  0.82770  0.20975  0.28772  1.0000
  H   H2128     1.0  0.80401  0.21180  0.31076  1.0000
  H   H2129     1.0  0.79951  0.20329  0.28706  1.0000
  H   H2130     1.0  0.70220  0.28630  0.33230  1.0000
  H   H2131     1.0  0.69912  0.29864  0.30464  1.0000
  H   H2132     1.0  0.69960  0.26809  0.31467  1.0000
  H   H2133     1.0  0.56336  0.43792  0.48370  1.0000
  H   H2134     1.0  0.54060  0.32825  0.25552  1.0000
  H   H2135     1.0  0.66677  0.42197  0.26267  1.0000
  Fe  Fe130     1.0  0.76994  0.14501  0.26287  1.0000
  H   H2136     1.0  0.95357  0.00376  0.28997  1.0000
  H   H2137     1.0  0.96651  0.06888  0.41385  1.0000
  H   H2138     1.0  0.77237  0.31527  0.24920  1.0000
  C   C1216     1.0  0.57013  0.43173  0.41799  1.0000
  H   H2139     1.0  0.79171  0.99972  0.25607  1.0000
  C   C1217     1.0  0.98876  0.06405  0.35626  1.0000
  H   H2140     1.0  0.85665  0.17207  0.28372  1.0000
  H   H2141     1.0  0.84524  0.05024  0.31522  1.0000
  C   C1218     1.0  0.66014  0.45326  0.28625  1.0000
  H   H2142     1.0  0.70585  0.31787  0.42291  1.0000
  C   C1219     1.0  0.69234  0.13112  0.25881  1.0000
  H   H2143     1.0  0.65773  0.12583  0.27813  1.0000
  H   H2144     1.0  0.59531  0.46187  0.26497  1.0000
  C   C1220     1.0  0.52639  0.33780  0.30513  1.0000
  C   C1221     1.0  0.76993  0.31350  0.26702  1.0000
  H   H2145     1.0  0.97148  0.03874  0.42384  1.0000
  H   H2146     1.0  0.55460  0.12826  0.25604  1.0000
  C   C1222     1.0  0.91522  0.11544  0.24773  1.0000
  C   C1223     1.0  0.64346  0.40572  0.29070  1.0000
  H   H2147     1.0  0.80649  0.00512  0.28805  1.0000
  H   H2148     1.0  0.98819  0.04348  0.31760  1.0000
  H   H2149     1.0  0.71023  0.12193  0.25820  1.0000
  H   H2150     1.0  0.80222  0.32776  0.26352  1.0000
  H   H2151     1.0  0.65776  0.44254  0.30297  1.0000
  N   N68       1.0  0.55040  0.46149  0.44181  1.0000
  S   S267      1.0  0.49987  0.46575  0.38832  1.0000
  H   H2152     1.0  0.87127  0.98853  0.28604  1.0000
  N   N69       1.0  0.54824  0.35662  0.26698  1.0000
  C   C1224     1.0  0.56765  0.36136  0.27612  1.0000
  C   C1225     1.0  0.78983  0.01531  0.28438  1.0000
  H   H2153     1.0  0.55886  0.31975  0.27494  1.0000
  C   C1226     1.0  0.79966  0.05159  0.28876  1.0000
  C   C1227     1.0  0.82429  0.04397  0.29430  1.0000
  H   H2154     1.0  0.63825  0.42314  0.25862  1.0000
  S   S268      1.0  0.96963  0.11764  0.31034  1.0000
  H   H2155     1.0  0.74144  0.24780  0.25486  1.0000
  H   H2156     1.0  0.66555  0.30226  0.41462  1.0000
  S   S269      1.0  0.72103  0.41530  0.26867  1.0000
  H   H2157     1.0  0.82939  0.02763  0.25867  1.0000
  H   H2158     1.0  0.77646  0.34860  0.26362  1.0000
  H   H2159     1.0  0.53057  0.40494  0.26152  1.0000
  N   N70       1.0  0.79381  0.03959  0.27297  1.0000
  H   H2160     1.0  0.58185  0.07100  0.25568  1.0000
  H   H2161     1.0  0.51873  0.37242  0.28805  1.0000
  H   H2162     1.0  0.75119  0.31837  0.27353  1.0000
  S   S270      1.0  0.97288  0.00800  0.38771  1.0000
  H   H2163     1.0  0.79784  0.07060  0.28277  1.0000
  H   H2164     1.0  0.78690  0.04896  0.30445  1.0000
  H   H2165     1.0  0.83804  0.04899  0.27984  1.0000
  C   C1228     1.0  0.53959  0.08622  0.26658  1.0000
  H   H2166     1.0  0.98664  0.02285  0.45642  1.0000
  H   H2167     1.0  0.58341  0.29356  0.25070  1.0000
  H   H2168     1.0  0.75216  0.06159  0.29608  1.0000
  C   C1229     1.0  0.68207  0.30005  0.40255  1.0000
  C   C1230     1.0  0.82728  0.05546  0.31205  1.0000
  H   H2169     1.0  0.70773  0.36545  0.46857  1.0000
  C   C1231     1.0  0.73239  0.18444  0.28789  1.0000
  H   H2170     1.0  0.65272  0.40695  0.30331  1.0000
  C   C1232     1.0  0.58178  0.08687  0.26177  1.0000
  H   H2171     1.0  0.52995  0.31998  0.30226  1.0000
  H   H2172     1.0  0.55522  0.16541  0.26733  1.0000
  C   C1233     1.0  0.87813  0.01473  0.48069  1.0000
  H   H2173     1.0  0.75116  0.18291  0.28272  1.0000
  H   H2174     1.0  0.73811  0.36427  0.45518  1.0000
  N   N71       1.0  0.64237  0.44954  0.27452  1.0000
  H   H2175     1.0  0.55477  0.42286  0.41956  1.0000
  S   S271      1.0  0.80254  0.15079  0.27143  1.0000
  H   H2176     1.0  0.98084  0.02816  0.25881  1.0000
  H   H2177     1.0  0.87589  0.99262  0.45905  1.0000
  H   H2178     1.0  0.52453  0.45103  0.42867  1.0000
  H   H2179     1.0  0.67829  0.29405  0.38885  1.0000
  H   H2180     1.0  0.88430  0.98865  0.24247  1.0000
  C   C1234     1.0  0.88557  0.19834  0.25058  1.0000
  C   C1235     1.0  0.56337  0.38353  0.28536  1.0000
  H   H2181     1.0  0.82739  0.02506  0.30005  1.0000
  C   C1236     1.0  0.50303  0.33953  0.32107  1.0000
  N   N72       1.0  0.55813  0.09353  0.27521  1.0000
  H   H2182     1.0  0.64228  0.37986  0.27238  1.0000
  C   C1237     1.0  0.95995  0.21327  0.26367  1.0000
  H   H2183     1.0  0.67813  0.44715  0.27824  1.0000
  C   C1238     1.0  0.86394  0.16414  0.26930  1.0000
  C   C1239     1.0  0.55573  0.08199  0.29887  1.0000
  H   H2184     1.0  0.87526  0.02276  0.44674  1.0000
  H   H2185     1.0  0.95961  0.07991  0.46443  1.0000
  C   C1240     1.0  0.57515  0.45051  0.29665  1.0000
  H   H2186     1.0  0.90627  0.05485  0.43193  1.0000
  H   H2187     1.0  0.87825  0.20526  0.26564  1.0000
  H   H2188     1.0  0.91410  0.21316  0.26862  1.0000
  H   H2189     1.0  0.92775  0.18697  0.26118  1.0000
  C   C1241     1.0  0.97550  0.08159  0.34403  1.0000
  H   H2190     1.0  0.92690  0.06814  0.40929  1.0000
  H   H2191     1.0  0.93065  0.03725  0.41887  1.0000
  H   H2192     1.0  0.52959  0.37008  0.34419  1.0000
  H   H2193     1.0  0.89988  0.16520  0.26916  1.0000
  C   C1242     1.0  0.77234  0.05285  0.26512  1.0000
  H   H2194     1.0  0.64901  0.33378  0.24107  1.0000
  H   H2195     1.0  0.69617  0.47390  0.29171  1.0000
  H   H2196     1.0  0.73411  0.33160  0.43909  1.0000
  H   H2197     1.0  0.56948  0.08577  0.30605  1.0000
  H   H2198     1.0  0.58629  0.13103  0.27145  1.0000
  C   C1243     1.0  0.81357  0.03850  0.25368  1.0000
  H   H2199     1.0  0.60781  0.42282  0.41263  1.0000
  H   H2200     1.0  0.85155  0.16905  0.25799  1.0000
  H   H2201     1.0  0.57111  0.12207  0.29904  1.0000
  H   H2202     1.0  0.61626  0.25503  0.43352  1.0000
  H   H2203     1.0  0.53901  0.08917  0.30845  1.0000
  H   H2204     1.0  0.56970  0.04737  0.29174  1.0000
  S   S272      1.0  0.84928  0.09969  0.26182  1.0000
  H   H2205     1.0  0.95109  0.04608  0.24118  1.0000
  H   H2206     1.0  0.86894  0.24246  0.25280  1.0000
  H   H2207     1.0  0.53846  0.99303  0.24118  1.0000
  H   H2208     1.0  0.59313  0.33233  0.24870  1.0000
  H   H2209     1.0  0.58543  0.10042  0.24690  1.0000
  C   C1244     1.0  0.98127  0.03955  0.46199  1.0000
  C   C1245     1.0  0.87601  0.10894  0.24779  1.0000
  H   H2210     1.0  0.97297  0.26601  0.33602  1.0000
  Fe  Fe131     1.0  0.82026  0.12553  0.25032  1.0000
  H   H2211     1.0  0.78799  0.26850  0.24435  1.0000
  H   H2212     1.0  0.82094  0.07399  0.25003  1.0000
  H   H2213     1.0  0.70556  0.47762  0.46805  1.0000
  C   C1246     1.0  0.76936  0.26860  0.25254  1.0000
  H   H2214     1.0  0.89560  0.24806  0.25842  1.0000
  H   H2215     1.0  0.70923  0.28540  0.24786  1.0000
  H   H2216     1.0  0.67613  0.09972  0.27223  1.0000
  C   C1247     1.0  0.76030  0.24803  0.24786  1.0000
  H   H2217     1.0  0.62450  0.35592  0.24478  1.0000
  H   H2218     1.0  0.72604  0.47019  0.43156  1.0000
  C   C1248     1.0  0.98655  0.09627  0.32584  1.0000
  H   H2219     1.0  0.96913  0.12683  0.45610  1.0000
  H   H2220     1.0  0.87044  0.28387  0.24570  1.0000
  H   H2221     1.0  0.50906  0.39163  0.25503  1.0000
  C   C1249     1.0  0.93624  0.03611  0.24405  1.0000
  H   H2222     1.0  0.72810  0.34050  0.47600  1.0000
  H   H2223     1.0  0.66022  0.37007  0.48653  1.0000
  H   H2224     1.0  0.68731  0.45579  0.47100  1.0000
  H   H2225     1.0  0.53221  0.44445  0.48611  1.0000
  H   H2226     1.0  0.85892  0.01784  0.48597  1.0000
  H   H2227     1.0  0.60984  0.44186  0.46931  1.0000
  H   H2228     1.0  0.62859  0.09297  0.24357  1.0000
  S   S273      1.0  0.60468  0.24443  0.24445  1.0000
  C   C1250     1.0  0.57746  0.33098  0.24275  1.0000
  H   H2229     1.0  0.97073  0.10739  0.48195  1.0000
  H   H2230     1.0  0.76891  0.04598  0.25171  1.0000
  H   H2231     1.0  0.57013  0.47466  0.45952  1.0000
  H   H2232     1.0  0.72584  0.06206  0.26030  1.0000
  Fe  Fe132     1.0  0.97669  0.98698  0.42042  1.0000
  H   H2233     1.0  0.98660  0.25708  0.27940  1.0000
  H   H2234     1.0  0.54771  0.47774  0.40853  1.0000
  H   H2235     1.0  0.91918  0.98333  0.29855  1.0000
  H   H2236     1.0  0.59137  0.47275  0.40866  1.0000
  C   C1251     1.0  0.61793  0.45084  0.47831  1.0000
  C   C1252     1.0  0.98977  0.26986  0.33823  1.0000
  H   H2237     1.0  0.87190  0.20362  0.24061  1.0000
  C   C1253     1.0  0.73519  0.41797  0.67124  1.0000
  Fe  Fe133     1.0  0.85801  0.03958  0.63142  1.0000
  S   S274      1.0  0.85161  0.01437  0.66311  1.0000
  S   S275      1.0  0.85935  0.02843  0.60037  1.0000
  Fe  Fe134     1.0  0.86398  0.07742  0.65234  1.0000
  S   S276      1.0  0.85724  0.05564  0.68579  1.0000
  S   S277      1.0  0.87284  0.11347  0.64641  1.0000
  Fe  Fe135     1.0  0.88074  0.02801  0.67067  1.0000
  S   S278      1.0  0.90964  0.00585  0.68581  1.0000
  Fe  Fe136     1.0  0.82860  0.04426  0.67522  1.0000
  S   S279      1.0  0.79400  0.04201  0.69849  1.0000
  S   S280      1.0  0.88943  0.05046  0.63773  1.0000
  S   S281      1.0  0.83297  0.06876  0.64293  1.0000
  C   C1254     1.0  0.96318  0.12312  0.56118  1.0000
  H   H2238     1.0  0.97046  0.10571  0.70005  1.0000
  H   H2239     1.0  0.92830  0.24139  0.71889  1.0000
  H   H2240     1.0  0.89578  0.98290  0.55003  1.0000
  H   H2241     1.0  0.85703  0.06262  0.73002  1.0000
  H   H2242     1.0  0.96770  0.10762  0.63556  1.0000
  Fe  Fe137     1.0  0.66826  0.01120  0.68682  1.0000
  S   S282      1.0  0.66331  0.04689  0.66665  1.0000
  C   C1255     1.0  0.92361  0.10122  0.59528  1.0000
  C   C1256     1.0  0.98661  0.23099  0.67237  1.0000
  S   S283      1.0  0.68603  0.00259  0.71520  1.0000
  C   C1257     1.0  0.91409  0.02732  0.51131  1.0000
  S   S284      1.0  0.77628  0.42763  0.64353  1.0000
  S   S285      1.0  0.65206  0.15674  0.70238  1.0000
  C   C1258     1.0  0.76492  0.16455  0.73339  1.0000
  H   H2243     1.0  0.76090  0.15109  0.70648  1.0000
  C   C1259     1.0  0.97223  0.04586  0.66099  1.0000
  H   H2244     1.0  0.61101  0.02667  0.62628  1.0000
  C   C1260     1.0  0.97618  0.30851  0.70660  1.0000
  Fe  Fe138     1.0  0.83955  0.21047  0.71784  1.0000
  H   H2245     1.0  0.95953  0.99087  0.68069  1.0000
  S   S286      1.0  0.84124  0.23312  0.68491  1.0000
  H   H2246     1.0  0.72707  0.31742  0.73744  1.0000
  C   C1261     1.0  0.88362  0.11157  0.58522  1.0000
  Fe  Fe139     1.0  0.98231  0.98361  0.56189  1.0000
  H   H2247     1.0  0.87169  0.32618  0.72270  1.0000
  H   H2248     1.0  0.92666  0.01603  0.52077  1.0000
  H   H2249     1.0  0.92856  0.27147  0.70896  1.0000
  N   N73       1.0  0.74495  0.43860  0.58585  1.0000
  S   S287      1.0  0.82741  0.17621  0.72317  1.0000
  H   H2250     1.0  0.55908  0.00408  0.66931  1.0000
  Fe  Fe140     1.0  0.65788  0.38444  0.68230  1.0000
  Fe  Fe141     1.0  0.66942  0.33348  0.70144  1.0000
  C   C1262     1.0  0.94495  0.98470  0.63102  1.0000
  S   S288      1.0  0.68721  0.29828  0.69653  1.0000
  Fe  Fe142     1.0  0.68464  0.36991  0.71877  1.0000
  H   H2251     1.0  0.58948  0.11079  0.65462  1.0000
  H   H2252     1.0  0.67846  0.34917  0.63739  1.0000
  S   S289      1.0  0.69127  0.36174  0.68581  1.0000
  Fe  Fe143     1.0  0.82784  0.36452  0.61133  1.0000
  S   S290      1.0  0.65287  0.39515  0.71430  1.0000
  Fe  Fe144     1.0  0.83270  0.35920  0.65836  1.0000
  S   S291      1.0  0.83364  0.33672  0.69112  1.0000
  Fe  Fe145     1.0  0.80854  0.40297  0.63576  1.0000
  H   H2253     1.0  0.96394  0.44193  0.64174  1.0000
  S   S292      1.0  0.80197  0.36633  0.64232  1.0000
  H   H2254     1.0  0.95882  0.07794  0.62183  1.0000
  H   H2255     1.0  0.71433  0.32759  0.64626  1.0000
  C   C1263     1.0  0.73277  0.39133  0.70609  1.0000
  C   C1264     1.0  0.75712  0.38790  0.70293  1.0000
  C   C1265     1.0  0.77050  0.39900  0.68366  1.0000
  C   C1266     1.0  0.75955  0.41420  0.66788  1.0000
  S   S293      1.0  0.89721  0.40120  0.61337  1.0000
  H   H2256     1.0  0.94418  0.01348  0.72029  1.0000
  H   H2257     1.0  0.82014  0.45436  0.58711  1.0000
  H   H2258     1.0  0.78929  0.39576  0.68103  1.0000
  H   H2259     1.0  0.79040  0.32424  0.62554  1.0000
  C   C1267     1.0  0.82360  0.99636  0.56148  1.0000
  C   C1268     1.0  0.83888  0.26185  0.68678  1.0000
  C   C1269     1.0  0.83571  0.27921  0.66874  1.0000
  C   C1270     1.0  0.83388  0.30233  0.67008  1.0000
  C   C1271     1.0  0.83533  0.30801  0.68945  1.0000
  C   C1272     1.0  0.83844  0.29064  0.70752  1.0000
  C   C1273     1.0  0.84025  0.26754  0.70618  1.0000
  H   H2260     1.0  0.83485  0.27476  0.65369  1.0000
  H   H2261     1.0  0.83149  0.31574  0.65607  1.0000
  H   H2262     1.0  0.83970  0.29500  0.72248  1.0000
  H   H2263     1.0  0.84313  0.25418  0.72004  1.0000
  C   C1274     1.0  0.64313  0.24446  0.69448  1.0000
  C   C1275     1.0  0.66614  0.23810  0.69741  1.0000
  C   C1276     1.0  0.67958  0.25490  0.69761  1.0000
  C   C1277     1.0  0.67006  0.27810  0.69503  1.0000
  C   C1278     1.0  0.64733  0.28465  0.69137  1.0000
  C   C1279     1.0  0.63390  0.26782  0.69098  1.0000
  H   H2264     1.0  0.67362  0.22022  0.69941  1.0000
  H   H2265     1.0  0.69728  0.24989  0.70013  1.0000
  H   H2266     1.0  0.64005  0.30261  0.68901  1.0000
  C   C1280     1.0  0.64094  0.46499  0.69989  1.0000
  H   H2267     1.0  0.94058  0.16805  0.70890  1.0000
  H   H2268     1.0  0.60842  0.43678  0.52619  1.0000
  H   H2269     1.0  0.78287  0.16689  0.72674  1.0000
  C   C1281     1.0  0.57769  0.10387  0.66996  1.0000
  H   H2270     1.0  0.89045  0.23472  0.69611  1.0000
  H   H2271     1.0  0.97735  0.34500  0.69709  1.0000
  Fe  Fe146     1.0  0.96521  0.41905  0.69404  1.0000
  C   C1282     1.0  0.92384  0.04405  0.57032  1.0000
  C   C1283     1.0  0.65596  0.40853  0.59123  1.0000
  C   C1284     1.0  0.59530  0.42319  0.66858  1.0000
  H   H2272     1.0  0.90165  0.30727  0.62366  1.0000
  C   C1285     1.0  0.58737  0.03607  0.70764  1.0000
  H   H2273     1.0  0.78532  0.27286  0.63503  1.0000
  C   C1286     1.0  0.76615  0.43456  0.52465  1.0000
  H   H2274     1.0  0.89691  0.13069  0.60253  1.0000
  H   H2275     1.0  0.89291  0.40506  0.70800  1.0000
  C   C1287     1.0  0.78032  0.29078  0.62685  1.0000
  H   H2276     1.0  0.92543  0.10314  0.63470  1.0000
  H   H2277     1.0  0.75765  0.22572  0.70647  1.0000
  C   C1288     1.0  0.64899  0.06531  0.68416  1.0000
  C   C1289     1.0  0.64018  0.05603  0.70583  1.0000
  C   C1290     1.0  0.62684  0.07028  0.71957  1.0000
  C   C1291     1.0  0.62361  0.09408  0.71217  1.0000
  C   C1292     1.0  0.63334  0.10361  0.69071  1.0000
  C   C1293     1.0  0.64561  0.08914  0.67651  1.0000
  H   H2278     1.0  0.64306  0.03772  0.71198  1.0000
  H   H2279     1.0  0.60650  0.03325  0.70316  1.0000
  H   H2280     1.0  0.63072  0.12204  0.68489  1.0000
  H   H2281     1.0  0.65250  0.09636  0.65972  1.0000
  C   C1294     1.0  0.78018  0.01838  0.69878  1.0000
  C   C1295     1.0  0.76028  0.01345  0.71472  1.0000
  C   C1296     1.0  0.74813  0.99558  0.71445  1.0000
  H   H2282     1.0  0.88982  0.99158  0.58402  1.0000
  H   H2283     1.0  0.50903  0.45264  0.60230  1.0000
  C   C1297     1.0  0.78826  0.00495  0.68292  1.0000
  H   H2284     1.0  0.75419  0.02351  0.72723  1.0000
  H   H2285     1.0  0.73280  0.99185  0.72680  1.0000
  H   H2286     1.0  0.95390  0.15830  0.54442  1.0000
  H   H2287     1.0  0.80333  0.00882  0.67036  1.0000
  C   C1298     1.0  0.87936  0.11892  0.66976  1.0000
  C   C1299     1.0  0.88620  0.10067  0.68577  1.0000
  C   C1300     1.0  0.88802  0.10454  0.70580  1.0000
  C   C1301     1.0  0.88285  0.12679  0.70988  1.0000
  C   C1302     1.0  0.87786  0.14539  0.69331  1.0000
  C   C1303     1.0  0.87626  0.14146  0.67313  1.0000
  H   H2288     1.0  0.88971  0.08349  0.68289  1.0000
  H   H2289     1.0  0.89232  0.09015  0.71844  1.0000
  H   H2290     1.0  0.87413  0.16266  0.69637  1.0000
  H   H2291     1.0  0.87116  0.15574  0.66074  1.0000
  C   C1304     1.0  0.86144  0.33490  0.73594  1.0000
  C   C1305     1.0  0.97575  0.02190  0.66769  1.0000
  C   C1306     1.0  0.95664  0.00943  0.67593  1.0000
  C   C1307     1.0  0.93390  0.02099  0.67730  1.0000
  C   C1308     1.0  0.93043  0.04491  0.67109  1.0000
  C   C1309     1.0  0.94948  0.05733  0.66333  1.0000
  H   H2292     1.0  0.75320  0.38033  0.55978  1.0000
  H   H2293     1.0  0.91297  0.05380  0.67225  1.0000
  H   H2294     1.0  0.94654  0.07582  0.65918  1.0000
  H   H2295     1.0  0.92960  0.14395  0.65346  1.0000
  C   C1310     1.0  0.64616  0.38829  0.59426  1.0000
  C   C1311     1.0  0.63909  0.37579  0.61527  1.0000
  C   C1312     1.0  0.64261  0.38313  0.63320  1.0000
  H   H2296     1.0  0.63141  0.36018  0.61764  1.0000
  H   H2297     1.0  0.63740  0.37330  0.64937  1.0000
  C   C1313     1.0  0.88827  0.02679  0.58623  1.0000
  S   S294      1.0  0.64307  0.37858  0.57175  1.0000
  H   H2298     1.0  0.78086  0.37481  0.58526  1.0000
  H   H2299     1.0  0.89193  0.06160  0.58622  1.0000
  H   H2300     1.0  0.94010  0.08106  0.70317  1.0000
  H   H2301     1.0  0.95453  0.99815  0.49304  1.0000
  N   N74       1.0  0.72431  0.08378  0.67750  1.0000
  C   C1314     1.0  0.72070  0.06733  0.66455  1.0000
  C   C1315     1.0  0.70652  0.10486  0.67454  1.0000
  C   C1316     1.0  0.74890  0.08964  0.66944  1.0000
  C   C1317     1.0  0.72117  0.07320  0.70142  1.0000
  C   C1318     1.0  0.69737  0.06418  0.71205  1.0000
  C   C1319     1.0  0.73436  0.04282  0.66885  1.0000
  C   C1320     1.0  0.75489  0.10951  0.67786  1.0000
  C   C1321     1.0  0.70835  0.11932  0.65111  1.0000
  C   C1322     1.0  0.69065  0.14110  0.65061  1.0000
  H   H2302     1.0  0.95656  0.13176  0.66247  1.0000
  C   C1323     1.0  0.73079  0.02829  0.65370  1.0000
  C   C1324     1.0  0.77989  0.11430  0.66761  1.0000
  H   H2303     1.0  0.72570  0.07438  0.64684  1.0000
  H   H2304     1.0  0.70195  0.06560  0.66721  1.0000
  H   H2305     1.0  0.68861  0.09993  0.67941  1.0000
  H   H2306     1.0  0.70689  0.11626  0.68569  1.0000
  H   H2307     1.0  0.75313  0.09385  0.65136  1.0000
  H   H2308     1.0  0.76165  0.07439  0.67403  1.0000
  H   H2309     1.0  0.73546  0.05896  0.70451  1.0000
  H   H2310     1.0  0.72278  0.08599  0.71077  1.0000
  H   H2311     1.0  0.69336  0.05242  0.70297  1.0000
  H   H2312     1.0  0.68298  0.07870  0.71266  1.0000
  H   H2313     1.0  0.75333  0.04351  0.66620  1.0000
  H   H2314     1.0  0.72832  0.03369  0.68571  1.0000
  H   H2315     1.0  0.75333  0.10509  0.69576  1.0000
  H   H2316     1.0  0.74328  0.12573  0.67369  1.0000
  H   H2317     1.0  0.72591  0.12473  0.64444  1.0000
  H   H2318     1.0  0.70461  0.10929  0.64020  1.0000
  H   H2319     1.0  0.69196  0.15107  0.63368  1.0000
  C   C1325     1.0  0.75211  0.26648  0.72197  1.0000
  H   H2320     1.0  0.96162  0.43543  0.60575  1.0000
  S   S295      1.0  0.98202  0.19658  0.73622  1.0000
  H   H2321     1.0  0.73734  0.03615  0.63646  1.0000
  H   H2322     1.0  0.74048  0.01077  0.65738  1.0000
  H   H2323     1.0  0.79253  0.09943  0.67323  1.0000
  H   H2324     1.0  0.78274  0.11770  0.64959  1.0000
  H   H2325     1.0  0.78315  0.12980  0.67234  1.0000
  H   H2326     1.0  0.58746  0.47799  0.59172  1.0000
  H   H2327     1.0  0.96665  0.01197  0.61939  1.0000
  S   S296      1.0  0.85837  0.35368  0.62816  1.0000
  H   H2328     1.0  0.74510  0.21305  0.65653  1.0000
  H   H2329     1.0  0.60578  0.44044  0.72568  1.0000
  H   H2330     1.0  0.75135  0.31716  0.62512  1.0000
  H   H2331     1.0  0.93333  0.05864  0.56655  1.0000
  S   S297      1.0  0.97295  0.38407  0.71432  1.0000
  H   H2332     1.0  0.79493  0.43885  0.57053  1.0000
  S   S298      1.0  0.63599  0.35539  0.69472  1.0000
  C   C1326     1.0  0.89926  0.00628  0.57997  1.0000
  C   C1327     1.0  0.75390  0.42873  0.56565  1.0000
  S   S299      1.0  0.83731  0.39598  0.65436  1.0000
  H   H2333     1.0  0.79312  0.30335  0.65034  1.0000
  C   C1328     1.0  0.72124  0.45233  0.58460  1.0000
  C   C1329     1.0  0.77203  0.29397  0.73175  1.0000
  S   S300      1.0  0.87101  0.19702  0.73274  1.0000
  C   C1330     1.0  0.74046  0.26139  0.64494  1.0000
  H   H2334     1.0  0.92783  0.22505  0.65632  1.0000
  H   H2335     1.0  0.78925  0.42905  0.59914  1.0000
  C   C1331     1.0  0.58006  0.02135  0.73019  1.0000
  H   H2336     1.0  0.87315  0.42934  0.64421  1.0000
  H   H2337     1.0  0.76090  0.40865  0.60589  1.0000
  H   H2338     1.0  0.54598  0.45019  0.51787  1.0000
  H   H2339     1.0  0.62315  0.42930  0.69303  1.0000
  H   H2340     1.0  0.56074  0.46312  0.58147  1.0000
  C   C1332     1.0  0.69714  0.05099  0.73536  1.0000
  C   C1333     1.0  0.94271  0.12836  0.65517  1.0000
  H   H2341     1.0  0.78911  0.22201  0.69995  1.0000
  C   C1334     1.0  0.80428  0.11704  0.71492  1.0000
  H   H2342     1.0  0.67508  0.47027  0.59291  1.0000
  H   H2343     1.0  0.79642  0.32794  0.52850  1.0000
  C   C1335     1.0  0.70724  0.32207  0.63410  1.0000
  C   C1336     1.0  0.81830  0.13256  0.69612  1.0000
  C   C1337     1.0  0.93512  0.11634  0.62249  1.0000
  H   H2344     1.0  0.81870  0.08395  0.70732  1.0000
  H   H2345     1.0  0.96691  0.07651  0.57356  1.0000
  H   H2346     1.0  0.88576  0.47384  0.63083  1.0000
  H   H2347     1.0  0.61795  0.40690  0.53684  1.0000
  S   S301      1.0  0.68646  0.98111  0.67225  1.0000
  S   S302      1.0  0.49823  0.46972  0.70998  1.0000
  H   H2348     1.0  0.81862  0.99463  0.57941  1.0000
  H   H2349     1.0  0.65257  0.01353  0.61589  1.0000
  H   H2350     1.0  0.90826  0.99262  0.49100  1.0000
  H   H2351     1.0  0.92977  0.29047  0.64668  1.0000
  H   H2352     1.0  0.83345  0.13625  0.70133  1.0000
  H   H2353     1.0  0.82454  0.12426  0.68180  1.0000
  H   H2354     1.0  0.80738  0.14914  0.69138  1.0000
  H   H2355     1.0  0.98568  0.45163  0.59256  1.0000
  H   H2356     1.0  0.92230  0.13212  0.62054  1.0000
  C   C1338     1.0  0.93516  0.02319  0.56485  1.0000
  C   C1339     1.0  0.72663  0.40171  0.60663  1.0000
  C   C1340     1.0  0.89794  0.43030  0.66354  1.0000
  C   C1341     1.0  0.72276  0.24474  0.64615  1.0000
  C   C1342     1.0  0.89486  0.30038  0.64110  1.0000
  H   H2357     1.0  0.56921  0.43184  0.55138  1.0000
  H   H2358     1.0  0.93662  0.47909  0.65616  1.0000
  H   H2359     1.0  0.73883  0.42581  0.62065  1.0000
  H   H2360     1.0  0.89002  0.31493  0.64978  1.0000
  H   H2361     1.0  0.71205  0.02653  0.65606  1.0000
  H   H2362     1.0  0.76838  0.33573  0.69905  1.0000
  H   H2363     1.0  0.72666  0.42939  0.65896  1.0000
  H   H2364     1.0  0.62969  0.44867  0.66805  1.0000
  H   H2365     1.0  0.96074  0.22785  0.70155  1.0000
  H   H2366     1.0  0.81860  0.04683  0.73046  1.0000
  H   H2367     1.0  0.56205  0.11679  0.67269  1.0000
  H   H2368     1.0  0.90091  0.33225  0.67533  1.0000
  H   H2369     1.0  0.91561  0.08799  0.60882  1.0000
  H   H2370     1.0  0.94227  0.01581  0.60622  1.0000
  H   H2371     1.0  0.62262  0.02642  0.67050  1.0000
  C   C1343     1.0  0.64408  0.01046  0.63336  1.0000
  S   S303      1.0  0.66422  0.42470  0.52048  1.0000
  C   C1344     1.0  0.71213  0.29549  0.63701  1.0000
  H   H2372     1.0  0.56478  0.41025  0.63773  1.0000
  C   C1345     1.0  0.57900  0.40647  0.60349  1.0000
  H   H2373     1.0  0.67209  0.32178  0.65402  1.0000
  C   C1346     1.0  0.57788  0.39897  0.62840  1.0000
  C   C1347     1.0  0.57212  0.37434  0.63684  1.0000
  C   C1348     1.0  0.90404  0.12096  0.58939  1.0000
  H   H2374     1.0  0.56328  0.40167  0.59987  1.0000
  H   H2375     1.0  0.59402  0.39476  0.59632  1.0000
  H   H2376     1.0  0.73961  0.26328  0.66191  1.0000
  C   C1349     1.0  0.94797  0.00994  0.62195  1.0000
  H   H2377     1.0  0.58147  0.40346  0.56317  1.0000
  H   H2378     1.0  0.59502  0.39940  0.63219  1.0000
  N   N75       1.0  0.87463  0.37520  0.71941  1.0000
  H   H2379     1.0  0.57226  0.36923  0.65449  1.0000
  H   H2380     1.0  0.55454  0.37302  0.63442  1.0000
  H   H2381     1.0  0.58532  0.36222  0.62833  1.0000
  C   C1350     1.0  0.76104  0.45442  0.58782  1.0000
  H   H2382     1.0  0.58563  0.44161  0.62203  1.0000
  S   S304      1.0  0.92967  0.43343  0.68668  1.0000
  H   H2383     1.0  0.54862  0.43786  0.58308  1.0000
  S   S305      1.0  0.65868  0.41194  0.65203  1.0000
  H   H2384     1.0  0.95553  0.21468  0.68128  1.0000
  H   H2385     1.0  0.62828  0.04540  0.63195  1.0000
  H   H2386     1.0  0.91073  0.13322  0.57441  1.0000
  Fe  Fe147     1.0  0.69853  0.43148  0.52442  1.0000
  S   S306      1.0  0.71389  0.14057  0.71649  1.0000
  Fe  Fe148     1.0  0.51011  0.47258  0.73969  1.0000
  H   H2387     1.0  0.98264  0.15235  0.67510  1.0000
  H   H2388     1.0  0.90316  0.19690  0.65488  1.0000
  H   H2389     1.0  0.60812  0.42413  0.65300  1.0000
  N   N76       1.0  0.58711  0.03890  0.66697  1.0000
  C   C1351     1.0  0.90586  0.40890  0.63463  1.0000
  H   H2390     1.0  0.60275  0.47409  0.62576  1.0000
  C   C1352     1.0  0.59566  0.43210  0.57017  1.0000
  C   C1353     1.0  0.54696  0.46343  0.50261  1.0000
  S   S307      1.0  0.63771  0.99335  0.70512  1.0000
  C   C1354     1.0  0.88377  0.36804  0.69780  1.0000
  H   H2391     1.0  0.71015  0.44291  0.57882  1.0000
  H   H2392     1.0  0.50750  0.46615  0.62479  1.0000
  H   H2393     1.0  0.97238  0.46210  0.66688  1.0000
  H   H2394     1.0  0.82092  0.43883  0.69454  1.0000
  C   C1355     1.0  0.92263  0.00454  0.56915  1.0000
  H   H2395     1.0  0.61384  0.42352  0.57058  1.0000
  H   H2396     1.0  0.93413  0.11393  0.66637  1.0000
  C   C1356     1.0  0.79284  0.33823  0.54085  1.0000
  C   C1357     1.0  0.80815  0.33497  0.55511  1.0000
  N   N77       1.0  0.58181  0.43141  0.59307  1.0000
  C   C1358     1.0  0.89051  0.42317  0.64735  1.0000
  H   H2397     1.0  0.89532  0.47967  0.60160  1.0000
  H   H2398     1.0  0.61562  0.46484  0.57947  1.0000
  C   C1359     1.0  0.60090  0.45875  0.71799  1.0000
  C   C1360     1.0  0.66218  0.45898  0.68199  1.0000
  H   H2399     1.0  0.81277  0.41033  0.70041  1.0000
  C   C1361     1.0  0.77312  0.35474  0.54227  1.0000
  H   H2400     1.0  0.76938  0.41555  0.56752  1.0000
  H   H2401     1.0  0.57636  0.04687  0.63591  1.0000
  H   H2402     1.0  0.98410  0.13196  0.71245  1.0000
  C   C1362     1.0  0.58545  0.42116  0.55540  1.0000
  H   H2403     1.0  0.64406  0.45209  0.71479  1.0000
  H   H2404     1.0  0.71415  0.29975  0.72682  1.0000
  H   H2405     1.0  0.74630  0.46050  0.54187  1.0000
  H   H2406     1.0  0.95302  0.26741  0.67625  1.0000
  H   H2407     1.0  0.55483  0.02277  0.62158  1.0000
  C   C1363     1.0  0.82215  0.42174  0.70567  1.0000
  H   H2408     1.0  0.58621  0.40478  0.72299  1.0000
  H   H2409     1.0  0.95947  0.17546  0.67016  1.0000
  H   H2410     1.0  0.79535  0.46683  0.60455  1.0000
  H   H2411     1.0  0.77083  0.44737  0.50944  1.0000
  H   H2412     1.0  0.98726  0.40677  0.62704  1.0000
  H   H2413     1.0  0.91270  0.35808  0.65977  1.0000
  H   H2414     1.0  0.58681  0.10122  0.68372  1.0000
  H   H2415     1.0  0.93083  0.98887  0.56390  1.0000
  H   H2416     1.0  0.58221  0.05442  0.70884  1.0000
  H   H2417     1.0  0.76202  0.33077  0.73450  1.0000
  C   C1364     1.0  0.90595  0.27500  0.67564  1.0000
  C   C1365     1.0  0.81820  0.09293  0.72070  1.0000
  C   C1366     1.0  0.88885  0.02187  0.52159  1.0000
  Fe  Fe149     1.0  0.65680  0.98197  0.73238  1.0000
  S   S308      1.0  0.70606  0.46597  0.52630  1.0000
  H   H2418     1.0  0.69413  0.15213  0.66080  1.0000
  H   H2419     1.0  0.67260  0.13662  0.65671  1.0000
  C   C1367     1.0  0.68112  0.33042  0.63786  1.0000
  C   C1368     1.0  0.93457  0.47277  0.61981  1.0000
  H   H2420     1.0  0.91646  0.26794  0.64218  1.0000
  C   C1369     1.0  0.62244  0.02811  0.63709  1.0000
  C   C1370     1.0  0.74206  0.28179  0.60721  1.0000
  C   C1371     1.0  0.91367  0.34404  0.67427  1.0000
  H   H2421     1.0  0.93727  0.46734  0.60400  1.0000
  C   C1372     1.0  0.65318  0.40292  0.63008  1.0000
  H   H2422     1.0  0.57716  0.01106  0.69374  1.0000
  Fe  Fe150     1.0  0.63327  0.36466  0.72711  1.0000
  S   S309      1.0  0.82487  0.34320  0.58782  1.0000
  C   C1373     1.0  0.91915  0.25681  0.70957  1.0000
  S   S310      1.0  0.83251  0.40192  0.60323  1.0000
  H   H2423     1.0  0.97926  0.11049  0.56068  1.0000
  H   H2424     1.0  0.84098  0.38917  0.73640  1.0000
  H   H2425     1.0  0.54560  0.99646  0.63868  1.0000
  H   H2426     1.0  0.75800  0.25207  0.63967  1.0000
  Fe  Fe151     1.0  0.68537  0.40535  0.49524  1.0000
  H   H2427     1.0  0.88585  0.02360  0.53881  1.0000
  H   H2428     1.0  0.95007  0.06166  0.72622  1.0000
  C   C1374     1.0  0.90049  0.04574  0.58136  1.0000
  H   H2429     1.0  0.75050  0.30007  0.65147  1.0000
  S   S311      1.0  0.97449  0.26235  0.71933  1.0000
  H   H2430     1.0  0.98105  0.01852  0.73265  1.0000
  H   H2431     1.0  0.97830  0.98206  0.72501  1.0000
  H   H2432     1.0  0.67330  0.32719  0.62498  1.0000
  H   H2433     1.0  0.71523  0.33102  0.61774  1.0000
  C   C1375     1.0  0.60255  0.41976  0.53397  1.0000
  C   C1376     1.0  0.89457  0.26101  0.72390  1.0000
  C   C1377     1.0  0.96274  0.08773  0.60490  1.0000
  Fe  Fe152     1.0  0.63637  0.18870  0.71542  1.0000
  C   C1378     1.0  0.80154  0.46194  0.58842  1.0000
  C   C1379     1.0  0.95373  0.12224  0.63302  1.0000
  H   H2434     1.0  0.53130  0.02369  0.64507  1.0000
  Fe  Fe153     1.0  0.62754  0.13889  0.73072  1.0000
  S   S312      1.0  0.71606  0.37578  0.72917  1.0000
  H   H2435     1.0  0.54939  0.45809  0.62240  1.0000
  H   H2436     1.0  0.57794  0.42200  0.66563  1.0000
  H   H2437     1.0  0.72412  0.24050  0.63007  1.0000
  H   H2438     1.0  0.87611  0.09929  0.59987  1.0000
  C   C1380     1.0  0.61707  0.44636  0.68369  1.0000
  H   H2439     1.0  0.79008  0.25843  0.71071  1.0000
  H   H2440     1.0  0.72256  0.31249  0.59070  1.0000
  C   C1381     1.0  0.53430  0.98419  0.71616  1.0000
  C   C1382     1.0  0.97774  0.44072  0.60793  1.0000
  C   C1383     1.0  0.79525  0.30579  0.63247  1.0000
  C   C1384     1.0  0.96511  0.09399  0.71584  1.0000
  H   H2441     1.0  0.70451  0.25222  0.65174  1.0000
  H   H2442     1.0  0.66445  0.44027  0.68206  1.0000
  H   H2443     1.0  0.97995  0.09361  0.60319  1.0000
  N   N78       1.0  0.88361  0.99865  0.52033  1.0000
  H   H2444     1.0  0.71752  0.46738  0.61362  1.0000
  H   H2445     1.0  0.92196  0.36488  0.69346  1.0000
  C   C1385     1.0  0.50931  0.98171  0.72840  1.0000
  H   H2446     1.0  0.88626  0.44201  0.67283  1.0000
  H   H2447     1.0  0.70090  0.44406  0.61804  1.0000
  H   H2448     1.0  0.78797  0.29558  0.71869  1.0000
  S   S313      1.0  0.97872  0.43737  0.71417  1.0000
  C   C1386     1.0  0.96776  0.14137  0.72032  1.0000
  C   C1387     1.0  0.90287  0.20144  0.67065  1.0000
  C   C1388     1.0  0.74087  0.30409  0.58959  1.0000
  C   C1389     1.0  0.78421  0.36472  0.57281  1.0000
  H   H2449     1.0  0.58232  0.00290  0.64605  1.0000
  H   H2450     1.0  0.94429  0.14268  0.69777  1.0000
  H   H2451     1.0  0.96193  0.13730  0.62271  1.0000
  H   H2452     1.0  0.91268  0.98743  0.62031  1.0000
  H   H2453     1.0  0.73965  0.30113  0.69209  1.0000
  N   N79       1.0  0.94411  0.10817  0.60125  1.0000
  H   H2454     1.0  0.63077  0.46155  0.61263  1.0000
  H   H2455     1.0  0.65565  0.46923  0.53149  1.0000
  H   H2456     1.0  0.92733  0.45840  0.63238  1.0000
  H   H2457     1.0  0.61618  0.27283  0.68846  1.0000
  H   H2458     1.0  0.73582  0.33870  0.66767  1.0000
  C   C1390     1.0  0.98856  0.05260  0.59321  1.0000
  H   H2459     1.0  0.85576  0.41099  0.68769  1.0000
  H   H2460     1.0  0.60538  0.06445  0.67234  1.0000
  H   H2461     1.0  0.70050  0.28988  0.62848  1.0000
  H   H2462     1.0  0.70544  0.28914  0.65460  1.0000
  C   C1391     1.0  0.72412  0.38477  0.62844  1.0000
  H   H2463     1.0  0.85612  0.02165  0.72786  1.0000
  H   H2464     1.0  0.58505  0.00275  0.72990  1.0000
  C   C1392     1.0  0.60996  0.02392  0.66135  1.0000
  C   C1393     1.0  0.75359  0.30482  0.69929  1.0000
  H   H2465     1.0  0.82343  0.32221  0.55362  1.0000
  C   C1394     1.0  0.77358  0.25547  0.70718  1.0000
  H   H2466     1.0  0.88487  0.20110  0.68042  1.0000
  C   C1395     1.0  0.95365  0.15429  0.70269  1.0000
  H   H2467     1.0  0.80431  0.32275  0.73360  1.0000
  C   C1396     1.0  0.75244  0.33124  0.69568  1.0000
  H   H2468     1.0  0.87649  0.03592  0.51418  1.0000
  H   H2469     1.0  0.77338  0.26266  0.68974  1.0000
  H   H2470     1.0  0.66067  0.41871  0.57509  1.0000
  H   H2471     1.0  0.75998  0.47061  0.57534  1.0000
  H   H2472     1.0  0.94146  0.14358  0.58395  1.0000
  H   H2473     1.0  0.88710  0.27282  0.67948  1.0000
  H   H2474     1.0  0.78813  0.11536  0.70993  1.0000
  C   C1397     1.0  0.59193  0.06340  0.66326  1.0000
  H   H2475     1.0  0.72298  0.46844  0.57208  1.0000
  C   C1398     1.0  0.93564  0.40776  0.65528  1.0000
  C   C1399     1.0  0.65940  0.41584  0.60913  1.0000
  H   H2476     1.0  0.67417  0.47910  0.61793  1.0000
  Fe  Fe154     1.0  0.72174  0.38269  0.52312  1.0000
  N   N80       1.0  0.73716  0.28489  0.63040  1.0000
  H   H2477     1.0  0.76717  0.33611  0.66106  1.0000
  H   H2478     1.0  0.79919  0.12560  0.72904  1.0000
  C   C1400     1.0  0.72748  0.22206  0.66204  1.0000
  H   H2479     1.0  0.72624  0.22514  0.67859  1.0000
  S   S314      1.0  0.66490  0.34021  0.73485  1.0000
  S   S315      1.0  0.66178  0.18446  0.73712  1.0000
  H   H2480     1.0  0.70300  0.40884  0.69245  1.0000
  H   H2481     1.0  0.91491  0.18830  0.67933  1.0000
  C   C1401     1.0  0.85010  0.38747  0.71962  1.0000
  H   H2482     1.0  0.81393  0.30094  0.62552  1.0000
  H   H2483     1.0  0.98319  0.15222  0.54983  1.0000
  H   H2484     1.0  0.85536  0.00922  0.55998  1.0000
  H   H2485     1.0  0.93773  0.02088  0.63339  1.0000
  H   H2486     1.0  0.74127  0.37473  0.63063  1.0000
  Fe  Fe155     1.0  0.67543  0.15108  0.72638  1.0000
  C   C1402     1.0  0.75396  0.29907  0.63398  1.0000
  C   C1403     1.0  0.72181  0.40628  0.69017  1.0000
  H   H2487     1.0  0.74051  0.41940  0.56318  1.0000
  H   H2488     1.0  0.53102  0.47619  0.50426  1.0000
  H   H2489     1.0  0.59723  0.45014  0.56137  1.0000
  H   H2490     1.0  0.91730  0.21770  0.69941  1.0000
  C   C1404     1.0  0.94532  0.25211  0.67543  1.0000
  H   H2491     1.0  0.71704  0.39407  0.64202  1.0000
  C   C1405     1.0  0.92849  0.40132  0.63851  1.0000
  C   C1406     1.0  0.75143  0.34250  0.67210  1.0000
  H   H2492     1.0  0.94741  0.25248  0.65788  1.0000
  H   H2493     1.0  0.77055  0.29928  0.68912  1.0000
  C   C1407     1.0  0.60276  0.46518  0.59492  1.0000
  H   H2494     1.0  0.71432  0.21067  0.66302  1.0000
  H   H2495     1.0  0.78103  0.42059  0.52602  1.0000
  C   C1408     1.0  0.57033  0.08125  0.66873  1.0000
  H   H2496     1.0  0.88490  0.38338  0.68434  1.0000
  S   S316      1.0  0.62556  0.22345  0.69569  1.0000
  H   H2497     1.0  0.63112  0.26871  0.73495  1.0000
  H   H2498     1.0  0.71179  0.37272  0.62902  1.0000
  H   H2499     1.0  0.72931  0.27158  0.60493  1.0000
  Fe  Fe156     1.0  0.86087  0.39127  0.62276  1.0000
  C   C1409     1.0  0.90836  0.35380  0.69492  1.0000
  S   S317      1.0  0.60700  0.11155  0.72981  1.0000
  Fe  Fe157     1.0  0.67102  0.39174  0.54403  1.0000
  C   C1410     1.0  0.76860  0.36785  0.55847  1.0000
  C   C1411     1.0  0.96982  0.16561  0.68240  1.0000
  H   H2500     1.0  0.59405  0.41427  0.52274  1.0000
  H   H2501     1.0  0.55225  0.43567  0.72807  1.0000
  H   H2502     1.0  0.78500  0.29197  0.60899  1.0000
  H   H2503     1.0  0.95133  0.05879  0.59690  1.0000
  S   S318      1.0  0.96518  0.02030  0.55392  1.0000
  H   H2504     1.0  0.56096  0.02483  0.73616  1.0000
  H   H2505     1.0  0.75939  0.27144  0.60324  1.0000
  H   H2506     1.0  0.75195  0.31642  0.59104  1.0000
  S   S319      1.0  0.70372  0.40023  0.55047  1.0000
  H   H2507     1.0  0.70899  0.41039  0.60475  1.0000
  C   C1412     1.0  0.80420  0.34834  0.57092  1.0000
  C   C1413     1.0  0.77353  0.22949  0.71058  1.0000
  H   H2508     1.0  0.90675  0.29039  0.68207  1.0000
  H   H2509     1.0  0.73334  0.39158  0.59368  1.0000
  H   H2510     1.0  0.73904  0.28593  0.56454  1.0000
  H   H2511     1.0  0.75544  0.45982  0.60377  1.0000
  H   H2512     1.0  0.85626  0.42394  0.70993  1.0000
  H   H2513     1.0  0.75051  0.36145  0.66989  1.0000
  H   H2514     1.0  0.87130  0.35830  0.69435  1.0000
  S   S320      1.0  0.88058  0.13080  0.73625  1.0000
  H   H2515     1.0  0.90892  0.99262  0.64685  1.0000
  C   C1414     1.0  0.61466  0.47336  0.60985  1.0000
  H   H2516     1.0  0.94040  0.39022  0.62870  1.0000
  H   H2517     1.0  0.53771  0.43194  0.62343  1.0000
  C   C1415     1.0  0.72911  0.15250  0.73047  1.0000
  H   H2518     1.0  0.96952  0.13210  0.58916  1.0000
  H   H2519     1.0  0.83660  0.09519  0.71954  1.0000
  C   C1416     1.0  0.70698  0.45934  0.60606  1.0000
  C   C1417     1.0  0.74354  0.41905  0.60538  1.0000
  C   C1418     1.0  0.85009  0.99520  0.55444  1.0000
  H   H2520     1.0  0.65685  0.01204  0.64286  1.0000
  C   C1419     1.0  0.74911  0.29871  0.56685  1.0000
  H   H2521     1.0  0.55985  0.08497  0.65585  1.0000
  S   S321      1.0  0.68935  0.37148  0.51851  1.0000
  H   H2522     1.0  0.68848  0.45384  0.70184  1.0000
  C   C1420     1.0  0.91647  0.05213  0.51134  1.0000
  S   S322      1.0  0.75494  0.35794  0.52333  1.0000
  H   H2523     1.0  0.76800  0.29207  0.56404  1.0000
  H   H2524     1.0  0.74639  0.31467  0.55453  1.0000
  C   C1421     1.0  0.92051  0.42269  0.66746  1.0000
  N   N81       1.0  0.91994  0.25391  0.68677  1.0000
  C   C1422     1.0  0.57628  0.03015  0.69045  1.0000
  H   H2525     1.0  0.90997  0.33909  0.70869  1.0000
  C   C1423     1.0  0.96117  0.23012  0.68402  1.0000
  H   H2526     1.0  0.91104  0.05551  0.52809  1.0000
  C   C1424     1.0  0.76057  0.44627  0.54417  1.0000
  C   C1425     1.0  0.60631  0.31007  0.73643  1.0000
  H   H2527     1.0  0.73617  0.26404  0.71685  1.0000
  C   C1426     1.0  0.84777  0.41172  0.70481  1.0000
  H   H2528     1.0  0.60548  0.30391  0.72175  1.0000
  H   H2529     1.0  0.60782  0.00531  0.66673  1.0000
  H   H2530     1.0  0.63937  0.99267  0.63823  1.0000
  C   C1427     1.0  0.91014  0.22541  0.66668  1.0000
  C   C1428     1.0  0.95536  0.07432  0.71107  1.0000
  H   H2531     1.0  0.93138  0.11416  0.72390  1.0000
  H   H2532     1.0  0.88519  0.24583  0.72717  1.0000
  H   H2533     1.0  0.87410  0.98562  0.62892  1.0000
  H   H2534     1.0  0.55310  0.04748  0.65847  1.0000
  H   H2535     1.0  0.55885  0.07507  0.68444  1.0000
  H   H2536     1.0  0.92910  0.09280  0.58111  1.0000
  H   H2537     1.0  0.61175  0.42913  0.60723  1.0000
  H   H2538     1.0  0.66718  0.43134  0.60672  1.0000
  C   C1429     1.0  0.78715  0.44431  0.58614  1.0000
  H   H2539     1.0  0.93150  0.33432  0.67221  1.0000
  H   H2540     1.0  0.88935  0.10284  0.57117  1.0000
  H   H2541     1.0  0.88392  0.27630  0.71612  1.0000
  C   C1430     1.0  0.54182  0.44877  0.61329  1.0000
  H   H2542     1.0  0.56247  0.47229  0.50042  1.0000
  C   C1431     1.0  0.95427  0.12765  0.58449  1.0000
  H   H2543     1.0  0.77610  0.45415  0.54395  1.0000
  S   S323      1.0  0.71951  0.41473  0.49733  1.0000
  C   C1432     1.0  0.55845  0.44567  0.59161  1.0000
  H   H2544     1.0  0.86971  0.12596  0.58152  1.0000
  C   C1433     1.0  0.59542  0.44095  0.60528  1.0000
  H   H2545     1.0  0.89766  0.23761  0.65771  1.0000
  C   C1434     1.0  0.90927  0.23252  0.68839  1.0000
  H   H2546     1.0  0.57894  0.44409  0.69168  1.0000
  C   C1435     1.0  0.91338  0.28253  0.65060  1.0000
  H   H2547     1.0  0.96901  0.06529  0.69985  1.0000
  H   H2548     1.0  0.59982  0.06963  0.64594  1.0000
  H   H2549     1.0  0.87903  0.29241  0.64231  1.0000
  C   C1436     1.0  0.54834  0.01423  0.63863  1.0000
  H   H2550     1.0  0.95300  0.40162  0.65842  1.0000
  C   C1437     1.0  0.96614  0.06912  0.59102  1.0000
  H   H2551     1.0  0.94995  0.11655  0.55546  1.0000
  H   H2552     1.0  0.73677  0.33891  0.70588  1.0000
  H   H2553     1.0  0.93499  0.05507  0.50522  1.0000
  H   H2554     1.0  0.58255  0.46025  0.71626  1.0000
  C   C1438     1.0  0.59377  0.44470  0.67769  1.0000
  C   C1439     1.0  0.51851  0.46253  0.60922  1.0000
  H   H2555     1.0  0.77416  0.22100  0.72770  1.0000
  N   N82       1.0  0.75168  0.29155  0.72242  1.0000
  H   H2556     1.0  0.93735  0.98461  0.72442  1.0000
  H   H2557     1.0  0.76567  0.37612  0.71503  1.0000
  H   H2558     1.0  0.55734  0.03662  0.69405  1.0000
  C   C1440     1.0  0.75250  0.15551  0.72198  1.0000
  H   H2559     1.0  0.58987  0.45972  0.66489  1.0000
  H   H2560     1.0  0.61925  0.06271  0.73595  1.0000
  C   C1441     1.0  0.77643  0.98674  0.68296  1.0000
  H   H2561     1.0  0.69948  0.46019  0.67296  1.0000
  C   C1442     1.0  0.85794  0.99738  0.52943  1.0000
  H   H2562     1.0  0.60048  0.40743  0.68026  1.0000
  H   H2563     1.0  0.97957  0.17748  0.68659  1.0000
  C   C1443     1.0  0.97133  0.48048  0.65865  1.0000
  H   H2564     1.0  0.84735  0.01300  0.52188  1.0000
  H   H2565     1.0  0.53550  0.00247  0.70825  1.0000
  H   H2566     1.0  0.75074  0.42714  0.52360  1.0000
  C   C1444     1.0  0.56604  0.01329  0.65270  1.0000
  C   C1445     1.0  0.57044  0.03785  0.65295  1.0000
  H   H2567     1.0  0.83950  0.37706  0.71442  1.0000
  H   H2568     1.0  0.78140  0.07309  0.72706  1.0000
  H   H2569     1.0  0.97366  0.15493  0.72601  1.0000
  C   C1446     1.0  0.97242  0.45357  0.62708  1.0000
  H   H2570     1.0  0.60049  0.25010  0.73993  1.0000
  C   C1447     1.0  0.89063  0.39060  0.72221  1.0000
  C   C1448     1.0  0.87383  0.35465  0.73800  1.0000
  H   H2571     1.0  0.81490  0.01316  0.55386  1.0000
  C   C1449     1.0  0.96953  0.14515  0.54509  1.0000
  N   N83       1.0  0.61676  0.46483  0.69606  1.0000
  H   H2572     1.0  0.89714  0.43316  0.72980  1.0000
  H   H2573     1.0  0.81348  0.42391  0.72240  1.0000
  C   C1450     1.0  0.68473  0.46436  0.68612  1.0000
  C   C1451     1.0  0.98898  0.28657  0.70741  1.0000
  H   H2574     1.0  0.95763  0.31032  0.71317  1.0000
  H   H2575     1.0  0.90560  0.06436  0.50070  1.0000
  N   N84       1.0  0.95738  0.47663  0.62411  1.0000
  H   H2576     1.0  0.84379  0.34143  0.73249  1.0000
  C   C1452     1.0  0.75610  0.98227  0.69846  1.0000
  H   H2577     1.0  0.90849  0.38118  0.72242  1.0000
  H   H2578     1.0  0.71160  0.03655  0.73592  1.0000
  C   C1453     1.0  0.98738  0.32821  0.69770  1.0000
  H   H2579     1.0  0.49776  0.98879  0.71651  1.0000
  C   C1454     1.0  0.88908  0.99523  0.49720  1.0000
  H   H2580     1.0  0.91715  0.98136  0.52655  1.0000
  H   H2581     1.0  0.91929  0.02506  0.49425  1.0000
  C   C1455     1.0  0.72830  0.29938  0.73560  1.0000
  C   C1456     1.0  0.94257  0.99697  0.73222  1.0000
  H   H2582     1.0  0.98987  0.03871  0.58416  1.0000
  H   H2583     1.0  0.80034  0.47755  0.57538  1.0000
  H   H2584     1.0  0.69501  0.21992  0.73471  1.0000
  H   H2585     1.0  0.97641  0.14132  0.52860  1.0000
  H   H2586     1.0  0.97745  0.01714  0.50605  1.0000
  H   H2587     1.0  0.62184  0.31915  0.73304  1.0000
  H   H2588     1.0  0.81736  0.98218  0.55695  1.0000
  H   H2589     1.0  0.98863  0.04459  0.61054  1.0000
  H   H2590     1.0  0.52122  0.47911  0.59775  1.0000
  C   C1457     1.0  0.94667  0.10700  0.73171  1.0000
  C   C1458     1.0  0.68543  0.47655  0.60212  1.0000
  C   C1459     1.0  0.57485  0.40460  0.73873  1.0000
  C   C1460     1.0  0.60025  0.47367  0.73480  1.0000
  H   H2591     1.0  0.66017  0.46831  0.66549  1.0000
  H   H2592     1.0  0.59047  0.32248  0.74017  1.0000
  H   H2593     1.0  0.98091  0.08649  0.72267  1.0000
  H   H2594     1.0  0.61787  0.47378  0.73774  1.0000
  H   H2595     1.0  0.98844  0.23207  0.65467  1.0000
  H   H2596     1.0  0.85219  0.98279  0.52504  1.0000
  H   H2597     1.0  0.98944  0.45501  0.63053  1.0000
  H   H2598     1.0  0.75174  0.25571  0.73856  1.0000
  Fe  Fe158     1.0  0.98996  0.40204  0.73195  1.0000
  C   C1461     1.0  0.96577  0.98720  0.73930  1.0000
  N   N85       1.0  0.95505  0.12544  0.73923  1.0000
  C   C1462     1.0  0.91883  0.98093  0.63588  1.0000
  H   H2599     1.0  0.92160  0.14659  0.73981  1.0000
  S   S324      1.0  0.62200  0.99300  0.88461  1.0000
  Fe  Fe159     1.0  0.62476  0.05820  0.87824  1.0000
  S   S325      1.0  0.65316  0.03141  0.88936  1.0000
  S   S326      1.0  0.62425  0.09527  0.87889  1.0000
  Fe  Fe160     1.0  0.64871  0.01484  0.86305  1.0000
  S   S327      1.0  0.67808  0.00259  0.83784  1.0000
  Fe  Fe161     1.0  0.62396  0.01228  0.90988  1.0000
  H   H2600     1.0  0.62474  0.25398  0.83374  1.0000
  S   S328      1.0  0.62274  0.04340  0.85028  1.0000
  S   S329      1.0  0.59590  0.04035  0.90061  1.0000
  C   C1463     1.0  0.60076  0.07544  0.78301  1.0000
  C   C1464     1.0  0.54493  0.40360  0.77932  1.0000
  Fe  Fe162     1.0  0.85691  0.16339  0.74082  1.0000
  Fe  Fe163     1.0  0.59618  0.02288  0.87366  1.0000
  C   C1465     1.0  0.71803  0.15894  0.75016  1.0000
  H   H2601     1.0  0.89899  0.21100  0.75747  1.0000
  S   S330      1.0  0.62612  0.17386  0.79508  1.0000
  H   H2602     1.0  0.67836  0.25863  0.74356  1.0000
  C   C1466     1.0  0.77014  0.06060  0.76146  1.0000
  H   H2603     1.0  0.55010  0.05314  0.81039  1.0000
  C   C1467     1.0  0.98347  0.98449  0.78250  1.0000
  C   C1468     1.0  0.85848  0.31686  0.75706  1.0000
  H   H2604     1.0  0.61146  0.07673  0.92509  1.0000
  H   H2605     1.0  0.94848  0.26950  0.86110  1.0000
  S   S331      1.0  0.95969  0.17612  0.79938  1.0000
  H   H2606     1.0  0.95037  0.18846  0.90471  1.0000
  C   C1469     1.0  0.89915  0.41793  0.74309  1.0000
  H   H2607     1.0  0.58660  0.10007  0.81321  1.0000
  C   C1470     1.0  0.53823  0.99156  0.85510  1.0000
  H   H2608     1.0  0.59426  0.05609  0.94396  1.0000
  C   C1471     1.0  0.91896  0.25551  0.79920  1.0000
  H   H2609     1.0  0.68502  0.29913  0.76475  1.0000
  H   H2610     1.0  0.58251  0.20685  0.77058  1.0000
  H   H2611     1.0  0.96444  0.13924  0.77558  1.0000
  C   C1472     1.0  0.66434  0.99409  0.94783  1.0000
  C   C1473     1.0  0.62260  0.11633  0.85525  1.0000
  C   C1474     1.0  0.62026  0.13936  0.85688  1.0000
  C   C1475     1.0  0.62036  0.15681  0.83834  1.0000
  C   C1476     1.0  0.62323  0.15138  0.81794  1.0000
  C   C1477     1.0  0.62507  0.12833  0.81621  1.0000
  C   C1478     1.0  0.62460  0.11076  0.83496  1.0000
  H   H2612     1.0  0.61862  0.14372  0.87254  1.0000
  H   H2613     1.0  0.61886  0.17457  0.83976  1.0000
  H   H2614     1.0  0.62719  0.12407  0.80046  1.0000
  H   H2615     1.0  0.62642  0.09298  0.83364  1.0000
  S   S332      1.0  0.63308  0.98537  0.76437  1.0000
  C   C1479     1.0  0.98293  0.40182  0.98555  1.0000
  C   C1480     1.0  0.66606  0.99783  0.81708  1.0000
  C   C1481     1.0  0.64143  0.99276  0.95934  1.0000
  C   C1482     1.0  0.76887  0.31414  0.74387  1.0000
  H   H2616     1.0  0.98273  0.02804  0.78973  1.0000
  H   H2617     1.0  0.60519  0.09337  0.77712  1.0000
  H   H2618     1.0  0.99007  0.14252  0.75445  1.0000
  H   H2619     1.0  0.92606  0.17548  0.90276  1.0000
  C   C1483     1.0  0.92033  0.12587  0.77194  1.0000
  H   H2620     1.0  0.87682  0.19853  0.82685  1.0000
  H   H2621     1.0  0.59586  0.04911  0.98332  1.0000
  H   H2622     1.0  0.69637  0.28517  0.78878  1.0000
  C   C1484     1.0  0.73051  0.16796  0.76151  1.0000
  Fe  Fe164     1.0  0.63615  0.16445  0.76230  1.0000
  H   H2623     1.0  0.56594  0.23522  0.76568  1.0000
  H   H2624     1.0  0.50535  0.01641  0.93191  1.0000
  H   H2625     1.0  0.88955  0.15187  0.77120  1.0000
  H   H2626     1.0  0.79377  0.10108  0.76521  1.0000
  H   H2627     1.0  0.78879  0.33062  0.75875  1.0000
  H   H2628     1.0  0.60035  0.06967  0.76814  1.0000
  C   C1485     1.0  0.61156  0.06238  0.93941  1.0000
  H   H2629     1.0  0.97882  0.30783  0.76003  1.0000
  S   S333      1.0  0.60944  0.17125  0.74155  1.0000
  H   H2630     1.0  0.54342  0.07353  0.77136  1.0000
  H   H2631     1.0  0.99130  0.40180  0.84062  1.0000
  H   H2632     1.0  0.64777  0.06954  0.76338  1.0000
  H   H2633     1.0  0.92351  0.20077  0.86731  1.0000
  H   H2634     1.0  0.69997  0.15666  0.75680  1.0000
  H   H2635     1.0  0.96511  0.19669  0.83165  1.0000
  H   H2636     1.0  0.93840  0.23453  0.87301  1.0000
  H   H2637     1.0  0.99139  0.19075  0.85861  1.0000
  H   H2638     1.0  0.58472  0.47528  0.76847  1.0000
  C   C1486     1.0  0.70050  0.29621  0.77238  1.0000
  H   H2639     1.0  0.59216  0.07100  0.82646  1.0000
  H   H2640     1.0  0.92864  0.99995  0.74643  1.0000
  S   S334      1.0  0.56126  0.02097  0.86650  1.0000
  H   H2641     1.0  0.54743  0.07072  0.83933  1.0000
  C   C1487     1.0  0.85845  0.02638  0.74278  1.0000
  H   H2642     1.0  0.98621  0.28611  0.84926  1.0000
  H   H2643     1.0  0.67554  0.18136  0.79792  1.0000
  S   S335      1.0  0.76929  0.17998  0.76907  1.0000
  H   H2644     1.0  0.91774  0.41008  0.74081  1.0000
  C   C1488     1.0  0.89646  0.26515  0.74583  1.0000
  C   C1489     1.0  0.83247  0.10603  0.78081  1.0000
  C   C1490     1.0  0.63213  0.99388  0.80406  1.0000
  H   H2645     1.0  0.64703  0.26834  0.78573  1.0000
  S   S336      1.0  0.98444  0.39287  0.76838  1.0000
  H   H2646     1.0  0.92181  0.20523  0.90506  1.0000
  H   H2647     1.0  0.96642  0.21899  0.87413  1.0000
  H   H2648     1.0  0.89442  0.42384  0.75877  1.0000
  C   C1491     1.0  0.67654  0.24295  0.75655  1.0000
  H   H2649     1.0  0.49828  0.99479  0.96815  1.0000
  H   H2650     1.0  0.97013  0.40807  0.97472  1.0000
  H   H2651     1.0  0.79974  0.30081  0.75813  1.0000
  H   H2652     1.0  0.81685  0.11742  0.78718  1.0000
  H   H2653     1.0  0.71660  0.26788  0.75724  1.0000
  C   C1492     1.0  0.93114  0.18777  0.79640  1.0000
  C   C1493     1.0  0.53887  0.02164  0.93643  1.0000
  H   H2654     1.0  0.57630  0.04163  0.81965  1.0000
  C   C1494     1.0  0.55978  0.09274  0.78739  1.0000
  H   H2655     1.0  0.53347  0.40305  0.79507  1.0000
  C   C1495     1.0  0.88528  0.20588  0.79187  1.0000
  H   H2656     1.0  0.61639  0.04485  0.80411  1.0000
  H   H2657     1.0  0.55016  0.12369  0.74958  1.0000
  S   S337      1.0  0.51681  0.44293  0.76687  1.0000
  H   H2658     1.0  0.83440  0.08963  0.79280  1.0000
  N   N86       1.0  0.52327  0.98251  0.94173  1.0000
  H   H2659     1.0  0.98984  0.42215  0.87032  1.0000
  H   H2660     1.0  0.93999  0.09376  0.74592  1.0000
  C   C1496     1.0  0.98923  0.03549  0.77239  1.0000
  H   H2661     1.0  0.57244  0.04450  0.77217  1.0000
  H   H2662     1.0  0.55751  0.01422  0.93315  1.0000
  H   H2663     1.0  0.56576  0.11008  0.78319  1.0000
  N   N87       1.0  0.57727  0.07526  0.79816  1.0000
  H   H2664     1.0  0.59581  0.03022  0.78525  1.0000
  H   H2665     1.0  0.96428  0.09955  0.76647  1.0000
  H   H2666     1.0  0.98066  0.29553  0.82196  1.0000
  C   C1497     1.0  0.66549  0.04105  0.98576  1.0000
  H   H2667     1.0  0.88911  0.13130  0.79644  1.0000
  H   H2668     1.0  0.90798  0.25084  0.75390  1.0000
  H   H2669     1.0  0.59641  0.98378  0.85437  1.0000
  H   H2670     1.0  0.66651  0.05824  0.81420  1.0000
  C   C1498     1.0  0.83063  0.10153  0.75898  1.0000
  C   C1499     1.0  0.67833  0.98409  0.98192  1.0000
  H   H2671     1.0  0.87746  0.02466  0.74235  1.0000
  H   H2672     1.0  0.91250  0.11215  0.76836  1.0000
  H   H2673     1.0  0.65575  0.25436  0.82324  1.0000
  C   C1500     1.0  0.55408  0.08795  0.76676  1.0000
  C   C1501     1.0  0.80950  0.08849  0.76139  1.0000
  C   C1502     1.0  0.93424  0.13930  0.75071  1.0000
  H   H2674     1.0  0.84682  0.32449  0.77044  1.0000
  H   H2675     1.0  0.90794  0.24161  0.80212  1.0000
  S   S338      1.0  0.85677  0.21749  0.78898  1.0000
  C   C1503     1.0  0.67028  0.99095  0.78061  1.0000
  H   H2676     1.0  0.92414  0.24757  0.84037  1.0000
  C   C1504     1.0  0.89052  0.19783  0.81259  1.0000
  H   H2677     1.0  0.75641  0.31073  0.75959  1.0000
  H   H2678     1.0  0.61358  0.99318  0.80702  1.0000
  H   H2679     1.0  0.72204  0.17309  0.77667  1.0000
  C   C1505     1.0  0.56235  0.08891  0.85659  1.0000
  H   H2680     1.0  0.66790  0.99843  0.93027  1.0000
  H   H2681     1.0  0.84806  0.11476  0.77866  1.0000
  C   C1506     1.0  0.56942  0.05160  0.80505  1.0000
  H   H2682     1.0  0.57068  0.00299  0.78339  1.0000
  H   H2683     1.0  0.62796  0.07102  0.80193  1.0000
  H   H2684     1.0  0.94342  0.27863  0.83376  1.0000
  C   C1507     1.0  0.63358  0.25660  0.78886  1.0000
  H   H2685     1.0  0.54589  0.09150  0.86860  1.0000
  H   H2686     1.0  0.57320  0.07329  0.86369  1.0000
  H   H2687     1.0  0.57179  0.10406  0.85362  1.0000
  C   C1508     1.0  0.53985  0.10895  0.75531  1.0000
  H   H2688     1.0  0.86462  0.36012  0.75344  1.0000
  H   H2689     1.0  0.84744  0.09213  0.75231  1.0000
  H   H2690     1.0  0.86512  0.40929  0.74524  1.0000
  H   H2691     1.0  0.80898  0.07467  0.77628  1.0000
  C   C1509     1.0  0.55973  0.99593  0.85760  1.0000
  H   H2692     1.0  0.73625  0.28015  0.76728  1.0000
  H   H2693     1.0  0.60724  0.29717  0.77012  1.0000
  H   H2694     1.0  0.98095  0.38483  0.86702  1.0000
  H   H2695     1.0  0.98434  0.10392  0.79516  1.0000
  H   H2696     1.0  0.73532  0.05097  0.77448  1.0000
  H   H2697     1.0  0.63446  0.07596  0.95276  1.0000
  C   C1510     1.0  0.94186  0.24611  0.80691  1.0000
  C   C1511     1.0  0.57870  0.38652  0.75622  1.0000
  H   H2698     1.0  0.67914  0.24684  0.77170  1.0000
  C   C1512     1.0  0.57945  0.08328  0.81801  1.0000
  C   C1513     1.0  0.63901  0.23574  0.80712  1.0000
  H   H2699     1.0  0.77259  0.06284  0.77733  1.0000
  C   C1514     1.0  0.57673  0.03579  0.78805  1.0000
  H   H2700     1.0  0.69264  0.04151  0.80268  1.0000
  C   C1515     1.0  0.72152  0.28432  0.75858  1.0000
  H   H2701     1.0  0.90752  0.15360  0.78967  1.0000
  H   H2702     1.0  0.77663  0.04255  0.75965  1.0000
  H   H2703     1.0  0.63651  0.04266  0.76624  1.0000
  H   H2704     1.0  0.56975  0.00399  0.81110  1.0000
  C   C1516     1.0  0.64180  0.05401  0.77506  1.0000
  H   H2705     1.0  0.54503  0.10153  0.82979  1.0000
  C   C1517     1.0  0.51462  0.98252  0.96570  1.0000
  H   H2706     1.0  0.52268  0.00347  0.85884  1.0000
  C   C1518     1.0  0.69004  0.04803  0.97928  1.0000
  H   H2707     1.0  0.92885  0.22020  0.83362  1.0000
  H   H2708     1.0  0.65563  0.22505  0.80181  1.0000
  S   S339      1.0  0.83524  0.16833  0.77318  1.0000
  H   H2709     1.0  0.69130  0.06254  0.96503  1.0000
  H   H2710     1.0  0.96005  0.01459  0.75712  1.0000
  N   N88       1.0  0.63146  0.25075  0.76800  1.0000
  H   H2711     1.0  0.60376  0.08610  0.96078  1.0000
  H   H2712     1.0  0.69535  0.17605  0.81638  1.0000
  H   H2713     1.0  0.95181  0.18410  0.86704  1.0000
  H   H2714     1.0  0.68449  0.07024  0.78861  1.0000
  H   H2715     1.0  0.73596  0.08153  0.76458  1.0000
  H   H2716     1.0  0.77580  0.13577  0.80529  1.0000
  H   H2717     1.0  0.97170  0.30023  0.96121  1.0000
  Fe  Fe165     1.0  0.80683  0.18452  0.75474  1.0000
  C   C1519     1.0  0.97486  0.21083  0.83150  1.0000
  S   S340      1.0  0.61782  0.99801  0.94592  1.0000
  H   H2718     1.0  0.76439  0.12723  0.78530  1.0000
  C   C1520     1.0  0.95137  0.22121  0.86593  1.0000
  C   C1521     1.0  0.95704  0.27226  0.84369  1.0000
  C   C1522     1.0  0.90044  0.14170  0.78288  1.0000
  C   C1523     1.0  0.60739  0.29001  0.75574  1.0000
  C   C1524     1.0  0.90292  0.20476  0.77348  1.0000
  H   H2719     1.0  0.70178  0.05433  0.88623  1.0000
  C   C1525     1.0  0.65241  0.23484  0.75955  1.0000
  H   H2720     1.0  0.52963  0.00845  0.91204  1.0000
  C   C1526     1.0  0.53676  0.04640  0.92349  1.0000
  H   H2721     1.0  0.70286  0.08020  0.89555  1.0000
  H   H2722     1.0  0.62526  0.04829  0.93476  1.0000
  C   C1527     1.0  0.93748  0.23567  0.83167  1.0000
  H   H2723     1.0  0.54266  0.09431  0.79873  1.0000
  H   H2724     1.0  0.81346  0.04299  0.75923  1.0000
  C   C1528     1.0  0.52350  0.00726  0.92981  1.0000
  H   H2725     1.0  0.51848  0.05486  0.92682  1.0000
  C   C1529     1.0  0.62154  0.06082  0.79275  1.0000
  H   H2726     1.0  0.70050  0.99070  0.95021  1.0000
  C   C1530     1.0  0.97954  0.12984  0.76616  1.0000
  H   H2727     1.0  0.67591  0.06814  0.90143  1.0000
  H   H2728     1.0  0.95249  0.26047  0.80251  1.0000
  H   H2729     1.0  0.93922  0.19543  0.76148  1.0000
  C   C1531     1.0  0.93424  0.19160  0.89797  1.0000
  H   H2730     1.0  0.65652  0.04414  0.78252  1.0000
  H   H2731     1.0  0.59126  0.28199  0.75863  1.0000
  H   H2732     1.0  0.59470  0.24846  0.78147  1.0000
  C   C1532     1.0  0.98578  0.31309  0.98382  1.0000
  C   C1533     1.0  0.58061  0.22329  0.75859  1.0000
  H   H2733     1.0  0.97593  0.27936  0.98573  1.0000
  C   C1534     1.0  0.56360  0.38612  0.77641  1.0000
  H   H2734     1.0  0.69856  0.06267  0.74584  1.0000
  H   H2735     1.0  0.65129  0.23233  0.74334  1.0000
  C   C1535     1.0  0.56484  0.01401  0.79573  1.0000
  N   N89       1.0  0.70360  0.10523  0.82869  1.0000
  C   C1536     1.0  0.70772  0.09156  0.85056  1.0000
  C   C1537     1.0  0.72706  0.10727  0.81355  1.0000
  C   C1538     1.0  0.69051  0.12853  0.83145  1.0000
  C   C1539     1.0  0.68928  0.09344  0.81918  1.0000
  C   C1540     1.0  0.69879  0.06815  0.81738  1.0000
  C   C1541     1.0  0.68560  0.08591  0.86800  1.0000
  C   C1542     1.0  0.68592  0.14521  0.81017  1.0000
  C   C1543     1.0  0.74170  0.12434  0.81731  1.0000
  C   C1544     1.0  0.76588  0.12303  0.80265  1.0000
  C   C1545     1.0  0.68468  0.05911  0.80493  1.0000
  C   C1546     1.0  0.69207  0.07125  0.88904  1.0000
  C   C1547     1.0  0.68009  0.17017  0.81306  1.0000
  H   H2736     1.0  0.71749  0.10098  0.85769  1.0000
  H   H2737     1.0  0.71910  0.07504  0.84883  1.0000
  H   H2738     1.0  0.73809  0.09022  0.81480  1.0000
  H   H2739     1.0  0.72521  0.11215  0.79622  1.0000
  H   H2740     1.0  0.69953  0.13697  0.84022  1.0000
  H   H2741     1.0  0.67294  0.12682  0.84194  1.0000
  H   H2742     1.0  0.67107  0.09381  0.82861  1.0000
  H   H2743     1.0  0.68764  0.10311  0.80253  1.0000
  H   H2744     1.0  0.69774  0.05680  0.83373  1.0000
  H   H2745     1.0  0.71718  0.06656  0.80861  1.0000
  H   H2746     1.0  0.67481  0.10186  0.87213  1.0000
  H   H2747     1.0  0.67478  0.07621  0.86238  1.0000
  H   H2748     1.0  0.67116  0.14056  0.80499  1.0000
  H   H2749     1.0  0.70103  0.14428  0.79669  1.0000
  H   H2750     1.0  0.73323  0.14236  0.81348  1.0000
  H   H2751     1.0  0.74404  0.12054  0.83437  1.0000
  H   H2752     1.0  0.77573  0.10560  0.80641  1.0000
  C   C1548     1.0  0.82099  0.05432  0.74391  1.0000
  C   C1549     1.0  0.55684  0.08597  0.83547  1.0000
  C   C1550     1.0  0.97236  0.29137  0.83944  1.0000
  H   H2753     1.0  0.54239  0.04674  0.90577  1.0000
  H   H2754     1.0  0.56636  0.37218  0.78993  1.0000
  H   H2755     1.0  0.93937  0.15468  0.75427  1.0000
  H   H2756     1.0  0.61705  0.26658  0.79581  1.0000
  C   C1551     1.0  0.64619  0.99054  0.78416  1.0000
  C   C1552     1.0  0.94003  0.19860  0.87320  1.0000
  H   H2757     1.0  0.69886  0.99464  0.79449  1.0000
  C   C1553     1.0  0.75402  0.17041  0.75336  1.0000
  H   H2758     1.0  0.74107  0.06236  0.74569  1.0000
  C   C1554     1.0  0.61006  0.23882  0.77239  1.0000
  C   C1555     1.0  0.91337  0.18837  0.81484  1.0000
  C   C1556     1.0  0.92587  0.19613  0.77576  1.0000
  H   H2759     1.0  0.49335  0.99703  0.90825  1.0000
  H   H2760     1.0  0.91730  0.18167  0.83085  1.0000
  C   C1557     1.0  0.54082  0.42159  0.76201  1.0000
  H   H2761     1.0  0.65250  0.21732  0.77007  1.0000
  C   C1558     1.0  0.60324  0.23412  0.75218  1.0000
  H   H2762     1.0  0.90919  0.26939  0.80770  1.0000
  C   C1559     1.0  0.61670  0.07082  0.95811  1.0000
  H   H2763     1.0  0.54807  0.05638  0.92824  1.0000
  C   C1560     1.0  0.61449  0.05194  0.97901  1.0000
  H   H2764     1.0  0.85048  0.01414  0.75720  1.0000
  H   H2765     1.0  0.98156  0.21770  0.81405  1.0000
  H   H2766     1.0  0.70280  0.03316  0.97489  1.0000
  H   H2767     1.0  0.93158  0.11783  0.78389  1.0000
  H   H2768     1.0  0.63105  0.99981  0.83578  1.0000
  C   C1561     1.0  0.98322  0.29374  0.97324  1.0000
  C   C1562     1.0  0.68024  0.99450  0.79714  1.0000
  H   H2769     1.0  0.61251  0.22179  0.78337  1.0000
  Fe  Fe166     1.0  0.84684  0.20331  0.76370  1.0000
  H   H2770     1.0  0.66188  0.03571  0.97168  1.0000
  S   S341      1.0  0.65230  0.13041  0.75379  1.0000
  H   H2771     1.0  0.64477  0.28216  0.74922  1.0000
  H   H2772     1.0  0.62416  0.03549  0.97486  1.0000
  S   S342      1.0  0.60131  0.36334  0.75385  1.0000
  H   H2773     1.0  0.95131  0.33134  0.98276  1.0000
  C   C1563     1.0  0.74400  0.06419  0.76154  1.0000
  C   C1564     1.0  0.97176  0.11395  0.75412  1.0000
  C   C1565     1.0  0.97179  0.24979  0.83787  1.0000
  H   H2774     1.0  0.92279  0.26278  0.78149  1.0000
  H   H2775     1.0  0.70425  0.31299  0.77422  1.0000
  H   H2776     1.0  0.53346  0.02262  0.95384  1.0000
  H   H2777     1.0  0.88471  0.38651  0.75771  1.0000
  N   N90       1.0  0.95883  0.22937  0.84176  1.0000
  C   C1566     1.0  0.64203  0.99757  0.82042  1.0000
  H   H2778     1.0  0.59214  0.44645  0.76335  1.0000
  H   H2779     1.0  0.87894  0.26610  0.75661  1.0000
  H   H2780     1.0  0.96849  0.99597  0.78989  1.0000
  C   C1567     1.0  0.63708  0.98682  0.98210  1.0000
  H   H2781     1.0  0.96630  0.36674  0.97878  1.0000
  H   H2782     1.0  0.95099  0.23265  0.79763  1.0000
  H   H2783     1.0  0.54557  0.01831  0.79830  1.0000
  H   H2784     1.0  0.64500  0.22854  0.84005  1.0000
  S   S343      1.0  0.81652  0.22008  0.74804  1.0000
  C   C1568     1.0  0.69631  0.22432  0.75010  1.0000
  H   H2785     1.0  0.98810  0.10590  0.74482  1.0000
  C   C1569     1.0  0.64125  0.24375  0.82723  1.0000
  C   C1570     1.0  0.62970  0.27268  0.75117  1.0000
  H   H2786     1.0  0.62489  0.22462  0.81215  1.0000
  H   H2787     1.0  0.66499  0.17202  0.82663  1.0000
  C   C1571     1.0  0.68278  0.98962  0.95912  1.0000
  H   H2788     1.0  0.77665  0.27805  0.74361  1.0000
  H   H2789     1.0  0.65015  0.07639  0.97956  1.0000
  H   H2790     1.0  0.85012  0.05445  0.75932  1.0000
  H   H2791     1.0  0.61867  0.10502  0.97875  1.0000
  H   H2792     1.0  0.99098  0.06733  0.78162  1.0000
  H   H2793     1.0  0.68127  0.98822  0.76530  1.0000
  C   C1572     1.0  0.97524  0.00541  0.74737  1.0000
  H   H2794     1.0  0.87561  0.30989  0.76166  1.0000
  H   H2795     1.0  0.61701  0.22197  0.74437  1.0000
  H   H2796     1.0  0.69561  0.20855  0.76306  1.0000
  H   H2797     1.0  0.56993  0.08371  0.75474  1.0000
  H   H2798     1.0  0.52759  0.98855  0.97235  1.0000
  H   H2799     1.0  0.98590  0.24560  0.84743  1.0000
  H   H2800     1.0  0.85043  0.30249  0.75492  1.0000
  H   H2801     1.0  0.97413  0.04287  0.76446  1.0000
  C   C1573     1.0  0.84742  0.05113  0.74394  1.0000
  C   C1574     1.0  0.79189  0.31715  0.74889  1.0000
  H   H2802     1.0  0.98084  0.25384  0.82061  1.0000
  H   H2803     1.0  0.56688  0.46458  0.75495  1.0000
  H   H2804     1.0  0.71346  0.23041  0.74776  1.0000
  H   H2805     1.0  0.82867  0.11849  0.74778  1.0000
  H   H2806     1.0  0.56135  0.98395  0.90482  1.0000
  Fe  Fe167     1.0  0.98659  0.18946  0.77057  1.0000
  C   C1575     1.0  0.58507  0.46439  0.75669  1.0000
  H   H2807     1.0  0.52338  0.11395  0.76641  1.0000
  H   H2808     1.0  0.96155  0.30717  0.84399  1.0000
  H   H2809     1.0  0.77264  0.09485  0.74270  1.0000
  H   H2810     1.0  0.68050  0.04356  0.74185  1.0000
  C   C1576     1.0  0.78303  0.07758  0.74239  1.0000
  H   H2811     1.0  0.90376  0.28146  0.74363  1.0000
  H   H2812     1.0  0.53547  0.10487  0.74092  1.0000
  N   N91       1.0  0.80834  0.07854  0.74229  1.0000
  H   H2813     1.0  0.57644  0.21961  0.74393  1.0000
  H   H2814     1.0  0.97390  0.98202  0.82766  1.0000
  C   C1577     1.0  0.88329  0.40050  0.74326  1.0000
  H   H2815     1.0  0.58929  0.02543  0.74167  1.0000
  H   H2816     1.0  0.50522  0.99232  0.74102  1.0000
  C   C1578     1.0  0.55572  0.42206  0.74159  1.0000
  H   H2817     1.0  0.89169  0.34723  0.74071  1.0000
  H   H2818     1.0  0.63550  0.90312  0.15185  1.0000
  H   H2819     1.0  0.51454  0.76609  0.02458  1.0000
  H   H2820     1.0  0.55607  0.88892  0.10013  1.0000
  H   H2821     1.0  0.67896  0.96058  0.23305  1.0000
  H   H2822     1.0  0.63138  0.94962  0.21185  1.0000
  H   H2823     1.0  0.69652  0.88991  0.10110  1.0000
  Fe  Fe168     1.0  0.96605  0.93237  0.22035  1.0000
  S   S344      1.0  0.53131  0.81681  0.04819  1.0000
  Fe  Fe169     1.0  0.57261  0.53558  0.20651  1.0000
  S   S345      1.0  0.54538  0.51324  0.20847  1.0000
  S   S346      1.0  0.58404  0.56392  0.17832  1.0000
  H   H2824     1.0  0.55647  0.83106  0.10259  1.0000
  H   H2825     1.0  0.56052  0.96688  0.12194  1.0000
  H   H2826     1.0  0.51996  0.81414  0.00819  1.0000
  C   C1579     1.0  0.60373  0.93592  0.08233  1.0000
  S   S347      1.0  0.98588  0.94958  0.18843  1.0000
  H   H2827     1.0  0.49518  0.80804  0.08781  1.0000
  Fe  Fe170     1.0  0.52387  0.68962  0.17817  1.0000
  S   S348      1.0  0.53166  0.69628  0.14169  1.0000
  S   S349      1.0  0.52366  0.65525  0.20123  1.0000
  H   H2828     1.0  0.67207  0.91232  0.10144  1.0000
  Fe  Fe171     1.0  0.54434  0.72849  0.14396  1.0000
  S   S350      1.0  0.57452  0.74493  0.12145  1.0000
  S   S351      1.0  0.54007  0.71975  0.18044  1.0000
  S   S352      1.0  0.54345  0.87052  0.06856  1.0000
  H   H2829     1.0  0.85234  0.94998  0.21188  1.0000
  Fe  Fe172     1.0  0.57334  0.88558  0.04411  1.0000
  Fe  Fe173     1.0  0.54116  0.85227  0.04271  1.0000
  H   H2830     1.0  0.64590  0.88073  0.18682  1.0000
  C   C1580     1.0  0.56449  0.76372  0.09924  1.0000
  C   C1581     1.0  0.57453  0.78392  0.08929  1.0000
  H   H2831     1.0  0.71566  0.96763  0.19022  1.0000
  C   C1582     1.0  0.54529  0.79599  0.06673  1.0000
  C   C1583     1.0  0.53614  0.77521  0.07576  1.0000
  C   C1584     1.0  0.54548  0.75927  0.09221  1.0000
  C   C1585     1.0  0.66890  0.94656  0.14758  1.0000
  H   H2832     1.0  0.64568  0.93610  0.00003  1.0000
  H   H2833     1.0  0.53789  0.74353  0.09954  1.0000
  C   C1586     1.0  0.56600  0.58993  0.18153  1.0000
  C   C1587     1.0  0.57435  0.61116  0.17233  1.0000
  C   C1588     1.0  0.56089  0.63170  0.17717  1.0000
  C   C1589     1.0  0.53921  0.63090  0.19143  1.0000
  C   C1590     1.0  0.53047  0.60985  0.19965  1.0000
  C   C1591     1.0  0.54366  0.58948  0.19451  1.0000
  H   H2834     1.0  0.59151  0.61163  0.16203  1.0000
  H   H2835     1.0  0.56766  0.64797  0.17059  1.0000
  H   H2836     1.0  0.51368  0.60916  0.21048  1.0000
  H   H2837     1.0  0.53666  0.57333  0.20098  1.0000
  H   H2838     1.0  0.67620  0.89189  0.08379  1.0000
  H   H2839     1.0  0.66683  0.88003  0.13362  1.0000
  H   H2840     1.0  0.67010  0.86026  0.11581  1.0000
  C   C1592     1.0  0.53146  0.76923  0.01340  1.0000
  Fe  Fe174     1.0  0.49706  0.89994  0.21820  1.0000
  H   H2841     1.0  0.59141  0.83424  0.14702  1.0000
  C   C1593     1.0  0.67547  0.95398  0.18269  1.0000
  H   H2842     1.0  0.61514  0.87923  0.19833  1.0000
  H   H2843     1.0  0.57190  0.95780  0.00738  1.0000
  Fe  Fe175     1.0  0.54903  0.89432  0.00637  1.0000
  H   H2844     1.0  0.60935  0.80788  0.12169  1.0000
  H   H2845     1.0  0.64242  0.85851  0.15927  1.0000
  C   C1594     1.0  0.88530  0.97422  0.23488  1.0000
  H   H2846     1.0  0.49700  0.94428  0.01464  1.0000
  S   S353      1.0  0.59633  0.50682  0.22272  1.0000
  C   C1595     1.0  0.55400  0.96647  0.22295  1.0000
  Fe  Fe176     1.0  0.50799  0.92837  0.17283  1.0000
  H   H2847     1.0  0.64844  0.97215  0.16473  1.0000
  H   H2848     1.0  0.68293  0.48319  0.20503  1.0000
  H   H2849     1.0  0.58418  0.87264  0.14920  1.0000
  H   H2850     1.0  0.59410  0.89837  0.13347  1.0000
  C   C1596     1.0  0.86725  0.95250  0.21759  1.0000
  C   C1597     1.0  0.59788  0.92174  0.07042  1.0000
  C   C1598     1.0  0.74424  0.95799  0.14035  1.0000
  C   C1599     1.0  0.73848  0.96615  0.11968  1.0000
  C   C1600     1.0  0.57229  0.95974  0.20677  1.0000
  C   C1601     1.0  0.61558  0.90955  0.05739  1.0000
  H   H2851     1.0  0.65249  0.90380  0.04474  1.0000
  H   H2852     1.0  0.53167  0.79880  0.11666  1.0000
  S   S354      1.0  0.76971  0.95597  0.17150  1.0000
  C   C1602     1.0  0.67783  0.89409  0.09996  1.0000
  C   C1603     1.0  0.93219  0.94985  0.16358  1.0000
  H   H2853     1.0  0.68163  0.95826  0.13762  1.0000
  C   C1604     1.0  0.56474  0.80022  0.07323  1.0000
  Fe  Fe177     1.0  0.54441  0.91785  0.20071  1.0000
  H   H2854     1.0  0.60278  0.79269  0.14942  1.0000
  H   H2855     1.0  0.65035  0.90507  0.00673  1.0000
  C   C1605     1.0  0.62584  0.84502  0.13039  1.0000
  C   C1606     1.0  0.63699  0.88386  0.11740  1.0000
  H   H2856     1.0  0.51125  0.62550  0.13592  1.0000
  H   H2857     1.0  0.58945  0.58194  0.22250  1.0000
  H   H2858     1.0  0.92383  0.96749  0.13266  1.0000
  S   S355      1.0  0.55597  0.54765  0.23734  1.0000
  H   H2859     1.0  0.53559  0.97413  0.15472  1.0000
  H   H2860     1.0  0.61280  0.62375  0.21391  1.0000
  H   H2861     1.0  0.54533  0.84065  0.12801  1.0000
  H   H2862     1.0  0.65548  0.94686  0.13805  1.0000
  C   C1607     1.0  0.56226  0.89031  0.11458  1.0000
  C   C1608     1.0  0.61403  0.80495  0.13789  1.0000
  C   C1609     1.0  0.51301  0.80842  0.99599  1.0000
  H   H2863     1.0  0.60190  0.66645  0.19772  1.0000
  C   C1610     1.0  0.65534  0.91921  0.22090  1.0000
  H   H2864     1.0  0.66231  0.93141  0.06301  1.0000
  S   S356      1.0  0.57686  0.93168  0.20190  1.0000
  H   H2865     1.0  0.95116  0.94843  0.15645  1.0000
  H   H2866     1.0  0.54964  0.88351  0.12934  1.0000
  H   H2867     1.0  0.72499  0.95931  0.11533  1.0000
  H   H2868     1.0  0.66221  0.50178  0.22071  1.0000
  H   H2869     1.0  0.90546  0.92695  0.17119  1.0000
  H   H2870     1.0  0.63251  0.79704  0.13684  1.0000
  H   H2871     1.0  0.69243  0.90473  0.99683  1.0000
  C   C1611     1.0  0.50372  0.92459  0.12207  1.0000
  H   H2872     1.0  0.51631  0.83425  0.09421  1.0000
  C   C1612     1.0  0.49165  0.94600  0.12549  1.0000
  H   H2873     1.0  0.60512  0.90141  0.16342  1.0000
  H   H2874     1.0  0.58464  0.85824  0.11586  1.0000
  C   C1613     1.0  0.62790  0.88934  0.18602  1.0000
  S   S357      1.0  0.57297  0.86443  0.01996  1.0000
  H   H2875     1.0  0.62598  0.90659  0.19000  1.0000
  H   H2876     1.0  0.59813  0.88217  0.09913  1.0000
  H   H2877     1.0  0.61391  0.82359  0.16246  1.0000
  C   C1614     1.0  0.62302  0.89211  0.16332  1.0000
  C   C1615     1.0  0.63577  0.85037  0.99621  1.0000
  S   S358      1.0  0.54857  0.84721  0.17187  1.0000
  S   S359      1.0  0.53410  0.88282  0.21720  1.0000
  H   H2878     1.0  0.52136  0.77170  0.07054  1.0000
  C   C1616     1.0  0.51263  0.64069  0.14230  1.0000
  H   H2879     1.0  0.52029  0.80970  0.14095  1.0000
  C   C1617     1.0  0.62621  0.57674  0.22198  1.0000
  C   C1618     1.0  0.50473  0.78792  0.19398  1.0000
  C   C1619     1.0  0.54115  0.96899  0.08819  1.0000
  H   H2880     1.0  0.58366  0.62212  0.21338  1.0000
  S   S360      1.0  0.96985  0.95852  0.23849  1.0000
  H   H2881     1.0  0.67801  0.92872  0.15082  1.0000
  C   C1620     1.0  0.52682  0.81470  0.12329  1.0000
  C   C1621     1.0  0.63873  0.91333  0.05461  1.0000
  H   H2882     1.0  0.57993  0.91907  0.07238  1.0000
  S   S361      1.0  0.70040  0.95954  0.06018  1.0000
  S   S362      1.0  0.93240  0.91960  0.22100  1.0000
  C   C1622     1.0  0.88754  0.93643  0.21618  1.0000
  C   C1623     1.0  0.72105  0.97383  0.21984  1.0000
  H   H2883     1.0  0.56230  0.81277  0.12749  1.0000
  S   S363      1.0  0.54542  0.91316  0.16709  1.0000
  Fe  Fe178     1.0  0.49663  0.71768  0.14458  1.0000
  Fe  Fe179     1.0  0.52115  0.89958  0.05109  1.0000
  C   C1624     1.0  0.92439  0.92681  0.16425  1.0000
  H   H2884     1.0  0.56276  0.90879  0.11390  1.0000
  C   C1625     1.0  0.86605  0.97128  0.22720  1.0000
  H   H2885     1.0  0.58148  0.68375  0.21488  1.0000
  S   S364      1.0  0.49487  0.89439  0.18568  1.0000
  S   S365      1.0  0.63500  0.95484  0.09614  1.0000
  S   S366      1.0  0.50972  0.75035  0.14393  1.0000
  Fe  Fe180     1.0  0.56721  0.48566  0.22822  1.0000
  H   H2886     1.0  0.54188  0.77690  0.02150  1.0000
  Fe  Fe181     1.0  0.53234  0.87956  0.18383  1.0000
  C   C1626     1.0  0.62514  0.86833  0.15710  1.0000
  C   C1627     1.0  0.62704  0.93920  0.07985  1.0000
  H   H2887     1.0  0.62978  0.58977  0.20674  1.0000
  C   C1628     1.0  0.63084  0.55312  0.21587  1.0000
  H   H2888     1.0  0.65216  0.48229  0.20844  1.0000
  H   H2889     1.0  0.93407  0.91284  0.17465  1.0000
  C   C1629     1.0  0.52740  0.78493  0.18177  1.0000
  H   H2890     1.0  0.64389  0.94299  0.17764  1.0000
  H   H2891     1.0  0.51320  0.96799  0.01055  1.0000
  C   C1630     1.0  0.59616  0.87953  0.13401  1.0000
  H   H2892     1.0  0.65940  0.91385  0.20501  1.0000
  H   H2893     1.0  0.55862  0.80045  0.16637  1.0000
  H   H2894     1.0  0.53437  0.76885  0.17667  1.0000
  H   H2895     1.0  0.61902  0.55215  0.20520  1.0000
  C   C1631     1.0  0.54904  0.82557  0.12009  1.0000
  H   H2896     1.0  0.60210  0.97000  0.18250  1.0000
  S   S367      1.0  0.61002  0.88765  0.04629  1.0000
  C   C1632     1.0  0.50957  0.82709  0.19401  1.0000
  H   H2897     1.0  0.73053  0.95635  0.22435  1.0000
  S   S368      1.0  0.50754  0.93551  0.20537  1.0000
  N   N92       1.0  0.62105  0.86912  0.13474  1.0000
  H   H2898     1.0  0.89984  0.96742  0.15510  1.0000
  C   C1633     1.0  0.58643  0.87649  0.11476  1.0000
  H   H2899     1.0  0.49518  0.65886  0.16753  1.0000
  C   C1634     1.0  0.54113  0.80291  0.17582  1.0000
  H   H2900     1.0  0.61220  0.85863  0.16969  1.0000
  C   C1635     1.0  0.50838  0.83157  0.11184  1.0000
  C   C1636     1.0  0.61007  0.82756  0.14586  1.0000
  H   H2901     1.0  0.64265  0.94923  0.23491  1.0000
  C   C1637     1.0  0.90589  0.95875  0.23259  1.0000
  H   H2902     1.0  0.51269  0.90046  0.10051  1.0000
  C   C1638     1.0  0.53201  0.82420  0.18146  1.0000
  H   H2903     1.0  0.58924  0.78740  0.09467  1.0000
  H   H2904     1.0  0.54117  0.75244  0.01023  1.0000
  H   H2905     1.0  0.64398  0.83734  0.13178  1.0000
  C   C1639     1.0  0.68127  0.92131  0.99848  1.0000
  H   H2906     1.0  0.92806  0.92306  0.14767  1.0000
  H   H2907     1.0  0.62479  0.84533  0.11332  1.0000
  H   H2908     1.0  0.63515  0.88265  0.10095  1.0000
  C   C1640     1.0  0.66341  0.87809  0.11803  1.0000
  H   H2909     1.0  0.63175  0.90242  0.11799  1.0000
  S   S369      1.0  0.51689  0.88035  0.02688  1.0000
  H   H2910     1.0  0.67092  0.91380  0.22845  1.0000
  H   H2911     1.0  0.63170  0.85366  0.01301  1.0000
  H   H2912     1.0  0.55762  0.97059  0.07591  1.0000
  H   H2913     1.0  0.62822  0.53934  0.23068  1.0000
  N   N93       1.0  0.66576  0.96065  0.20444  1.0000
  H   H2914     1.0  0.54230  0.95154  0.09870  1.0000
  C   C1641     1.0  0.64785  0.94554  0.21824  1.0000
  C   C1642     1.0  0.68564  0.95800  0.21607  1.0000
  C   C1643     1.0  0.64434  0.92874  0.06520  1.0000
  H   H2915     1.0  0.49246  0.62854  0.17379  1.0000
  C   C1644     1.0  0.65727  0.95438  0.16888  1.0000
  Fe  Fe182     1.0  0.50440  0.73951  0.18002  1.0000
  H   H2916     1.0  0.57203  0.81615  0.06614  1.0000
  H   H2917     1.0  0.73512  0.94486  0.15195  1.0000
  H   H2918     1.0  0.92959  0.95251  0.18040  1.0000
  H   H2919     1.0  0.51308  0.65615  0.12896  1.0000
  H   H2920     1.0  0.59031  0.94405  0.09363  1.0000
  H   H2921     1.0  0.55295  0.59612  0.23410  1.0000
  C   C1645     1.0  0.60065  0.58165  0.23422  1.0000
  H   H2922     1.0  0.52929  0.63754  0.14811  1.0000
  H   H2923     1.0  0.68610  0.93672  0.18462  1.0000
  Fe  Fe183     1.0  0.53002  0.52399  0.24029  1.0000
  H   H2924     1.0  0.51319  0.91385  0.13401  1.0000
  C   C1646     1.0  0.59505  0.62370  0.22430  1.0000
  S   S370      1.0  0.55109  0.91631  0.02917  1.0000
  H   H2925     1.0  0.88816  0.92145  0.20946  1.0000
  C   C1647     1.0  0.90698  0.93963  0.22347  1.0000
  H   H2926     1.0  0.64910  0.55010  0.20693  1.0000
  H   H2927     1.0  0.60223  0.65171  0.23732  1.0000
  H   H2928     1.0  0.52658  0.97088  0.07957  1.0000
  C   C1648     1.0  0.91858  0.96998  0.14979  1.0000
  C   C1649     1.0  0.58559  0.66662  0.21029  1.0000
  C   C1650     1.0  0.50351  0.91704  0.10312  1.0000
  H   H2929     1.0  0.57104  0.66418  0.20328  1.0000
  C   C1651     1.0  0.58802  0.97516  0.19508  1.0000
  H   H2930     1.0  0.50281  0.84339  0.19858  1.0000
  H   H2931     1.0  0.50680  0.84843  0.11675  1.0000
  H   H2932     1.0  0.68793  0.96587  0.17250  1.0000
  H   H2933     1.0  0.49535  0.80386  0.00454  1.0000
  H   H2934     1.0  0.60910  0.93441  0.00395  1.0000
  H   H2935     1.0  0.49354  0.86623  0.99959  1.0000
  H   H2936     1.0  0.62168  0.89433  0.99792  1.0000
  H   H2937     1.0  0.63898  0.57673  0.23203  1.0000
  C   C1652     1.0  0.63578  0.90603  0.23547  1.0000
  H   H2938     1.0  0.49673  0.49726  0.23351  1.0000
  C   C1653     1.0  0.49217  0.64442  0.16101  1.0000
  H   H2939     1.0  0.69485  0.94013  0.21776  1.0000
  C   C1654     1.0  0.70480  0.97383  0.20476  1.0000
  H   H2940     1.0  0.61959  0.91092  0.22871  1.0000
  H   H2941     1.0  0.49966  0.78948  0.11210  1.0000
  C   C1655     1.0  0.59933  0.93494  0.99120  1.0000
  C   C1656     1.0  0.49596  0.80892  0.20046  1.0000
  H   H2942     1.0  0.58982  0.91975  0.99597  1.0000
  H   H2943     1.0  0.68046  0.92448  0.01491  1.0000
  C   C1657     1.0  0.50029  0.96140  0.00433  1.0000
  C   C1658     1.0  0.66592  0.48444  0.21659  1.0000
  C   C1659     1.0  0.76197  0.96668  0.14593  1.0000
  C   C1660     1.0  0.65670  0.92051  0.99538  1.0000
  H   H2944     1.0  0.54740  0.62545  0.23715  1.0000
  H   H2945     1.0  0.64907  0.83494  0.99560  1.0000
  C   C1661     1.0  0.58834  0.64780  0.23034  1.0000
  Fe  Fe184     1.0  0.66467  0.97382  0.07635  1.0000
  H   H2946     1.0  0.54185  0.95459  0.23208  1.0000
  H   H2947     1.0  0.92067  0.96122  0.23844  1.0000
  H   H2948     1.0  0.61975  0.84666  0.99231  1.0000
  H   H2949     1.0  0.64113  0.88724  0.23658  1.0000
  C   C1662     1.0  0.52754  0.78518  0.99198  1.0000
  C   C1663     1.0  0.58091  0.95624  0.99060  1.0000
  H   H2950     1.0  0.57785  0.97679  0.14808  1.0000
  H   H2951     1.0  0.65195  0.97743  0.01083  1.0000
  H   H2952     1.0  0.49234  0.86209  0.07839  1.0000
  H   H2953     1.0  0.62119  0.97853  0.14287  1.0000
  H   H2954     1.0  0.71123  0.98005  0.23472  1.0000
  S   S371      1.0  0.70152  0.97925  0.99580  1.0000
  H   H2955     1.0  0.50319  0.61190  0.32023  1.0000
  C   C1664     1.0  0.97736  0.94391  0.29939  1.0000
  C   C1665     1.0  0.88689  0.97840  0.29194  1.0000
  H   H2956     1.0  0.56802  0.61335  0.45481  1.0000
  H   H2957     1.0  0.77006  0.96759  0.27544  1.0000
  C   C1666     1.0  0.77722  0.97704  0.28478  1.0000
  S   S372      1.0  0.96041  0.96812  0.35506  1.0000
  C   C1667     1.0  0.64982  0.52588  0.48810  1.0000
  H   H2958     1.0  0.49514  0.65568  0.45334  1.0000
  S   S373      1.0  0.59750  0.52005  0.27788  1.0000
  S   S374      1.0  0.54920  0.49458  0.26034  1.0000
  C   C1668     1.0  0.66805  0.51003  0.47473  1.0000
  H   H2959     1.0  0.58544  0.49262  0.42671  1.0000
  H   H2960     1.0  0.65080  0.58774  0.27557  1.0000
  H   H2961     1.0  0.50855  0.59223  0.42105  1.0000
  H   H2962     1.0  0.59819  0.51111  0.38802  1.0000
  H   H2963     1.0  0.63194  0.90967  0.25211  1.0000
  H   H2964     1.0  0.61873  0.48135  0.45370  1.0000
  C   C1669     1.0  0.61169  0.60514  0.25646  1.0000
  H   H2965     1.0  0.54000  0.48822  0.36303  1.0000
  H   H2966     1.0  0.52516  0.62061  0.48281  1.0000
  C   C1670     1.0  0.50260  0.66410  0.48137  1.0000
  H   H2967     1.0  0.62884  0.60304  0.29369  1.0000
  H   H2968     1.0  0.89534  0.96606  0.28118  1.0000
  H   H2969     1.0  0.54034  0.48565  0.46341  1.0000
  H   H2970     1.0  0.53959  0.59250  0.41493  1.0000
  S   S375      1.0  0.51647  0.52360  0.39542  1.0000
  C   C1671     1.0  0.52105  0.62836  0.46646  1.0000
  C   C1672     1.0  0.57996  0.50737  0.39433  1.0000
  H   H2971     1.0  0.95774  0.94606  0.45692  1.0000
  S   S376      1.0  0.49296  0.53960  0.24903  1.0000
  H   H2972     1.0  0.60180  0.58706  0.44174  1.0000
  H   H2973     1.0  0.62022  0.56790  0.26962  1.0000
  C   C1673     1.0  0.56496  0.60032  0.44650  1.0000
  H   H2974     1.0  0.67811  0.49773  0.30230  1.0000
  H   H2975     1.0  0.50302  0.63208  0.42966  1.0000
  H   H2976     1.0  0.76502  0.97748  0.30061  1.0000
  H   H2977     1.0  0.53527  0.62747  0.38593  1.0000
  C   C1674     1.0  0.49806  0.59851  0.46412  1.0000
  H   H2978     1.0  0.53955  0.57693  0.45024  1.0000
  H   H2979     1.0  0.68222  0.52027  0.46493  1.0000
  H   H2980     1.0  0.56630  0.60795  0.42896  1.0000
  C   C1675     1.0  0.51134  0.52934  0.48058  1.0000
  C   C1676     1.0  0.52250  0.60355  0.41569  1.0000
  S   S377      1.0  0.58025  0.52168  0.48016  1.0000
  C   C1677     1.0  0.58476  0.58049  0.44865  1.0000
  C   C1678     1.0  0.95862  0.95090  0.47178  1.0000
  H   H2981     1.0  0.60742  0.53570  0.31301  1.0000
  H   H2982     1.0  0.59843  0.58308  0.28756  1.0000
  C   C1679     1.0  0.67985  0.48716  0.44658  1.0000
  H   H2983     1.0  0.98184  0.86363  0.31140  1.0000
  H   H2984     1.0  0.57369  0.50292  0.38107  1.0000
  C   C1680     1.0  0.53278  0.52518  0.48721  1.0000
  H   H2985     1.0  0.59672  0.56638  0.24734  1.0000
  H   H2986     1.0  0.64116  0.49682  0.42312  1.0000
  H   H2987     1.0  0.52345  0.61340  0.27446  1.0000
  H   H2988     1.0  0.57173  0.64894  0.24236  1.0000
  C   C1681     1.0  0.62835  0.53211  0.41179  1.0000
  C   C1682     1.0  0.51057  0.53469  0.45847  1.0000
  H   H2989     1.0  0.88117  0.96838  0.30856  1.0000
  C   C1683     1.0  0.51970  0.62063  0.43111  1.0000
  C   C1684     1.0  0.55358  0.52592  0.47176  1.0000
  C   C1685     1.0  0.55290  0.53083  0.44963  1.0000
  C   C1686     1.0  0.53138  0.53570  0.44299  1.0000
  C   C1687     1.0  0.50709  0.50212  0.31425  1.0000
  C   C1688     1.0  0.97626  0.95613  0.33295  1.0000
  H   H2990     1.0  0.56891  0.53172  0.43762  1.0000
  H   H2991     1.0  0.53091  0.54079  0.42593  1.0000
  S   S378      1.0  0.53311  0.57292  0.34802  1.0000
  C   C1689     1.0  0.54990  0.60735  0.24598  1.0000
  H   H2992     1.0  0.63231  0.54970  0.41080  1.0000
  H   H2993     1.0  0.58332  0.56732  0.43972  1.0000
  C   C1690     1.0  0.63365  0.58710  0.28695  1.0000
  H   H2994     1.0  0.62823  0.49130  0.48461  1.0000
  H   H2995     1.0  0.62744  0.52155  0.45403  1.0000
  H   H2996     1.0  0.54123  0.58485  0.47428  1.0000
  C   C1691     1.0  0.57933  0.53390  0.29784  1.0000
  C   C1692     1.0  0.58892  0.54000  0.31322  1.0000
  C   C1693     1.0  0.57467  0.55217  0.32854  1.0000
  C   C1694     1.0  0.55071  0.55755  0.32895  1.0000
  C   C1695     1.0  0.54101  0.55097  0.31390  1.0000
  C   C1696     1.0  0.55541  0.53945  0.29813  1.0000
  C   C1697     1.0  0.52715  0.60262  0.26197  1.0000
  H   H2997     1.0  0.58216  0.55723  0.34020  1.0000
  H   H2998     1.0  0.52250  0.55517  0.31414  1.0000
  H   H2999     1.0  0.54800  0.53489  0.28617  1.0000
  H   H3000     1.0  0.51725  0.51174  0.29927  1.0000
  H   H3001     1.0  0.96633  0.88913  0.32066  1.0000
  C   C1698     1.0  0.95619  0.97413  0.47283  1.0000
  C   C1699     1.0  0.54085  0.59193  0.45688  1.0000
  H   H3002     1.0  0.96948  0.86242  0.34006  1.0000
  H   H3003     1.0  0.52326  0.60375  0.38192  1.0000
  C   C1700     1.0  0.96472  0.95293  0.31748  1.0000
  H   H3004     1.0  0.54270  0.49690  0.42634  1.0000
  S   S379      1.0  0.98278  0.95311  0.41016  1.0000
  H   H3005     1.0  0.61029  0.53044  0.42107  1.0000
  H   H3006     1.0  0.51729  0.49848  0.32735  1.0000
  H   H3007     1.0  0.50625  0.48911  0.43961  1.0000
  C   C1701     1.0  0.49398  0.58820  0.48883  1.0000
  C   C1702     1.0  0.57905  0.48740  0.41398  1.0000
  H   H3008     1.0  0.50395  0.62709  0.39209  1.0000
  H   H3009     1.0  0.67079  0.55309  0.48522  1.0000
  H   H3010     1.0  0.94601  0.95733  0.31956  1.0000
  H   H3011     1.0  0.60601  0.62052  0.26405  1.0000
  C   C1703     1.0  0.61495  0.58437  0.27537  1.0000
  H   H3012     1.0  0.62941  0.52971  0.39504  1.0000
  H   H3013     1.0  0.53579  0.63825  0.45778  1.0000
  Fe  Fe185     1.0  0.98236  0.97439  0.37668  1.0000
  H   H3014     1.0  0.79441  0.96757  0.28762  1.0000
  C   C1704     1.0  0.52116  0.61638  0.39253  1.0000
  C   C1705     1.0  0.97827  0.87309  0.32490  1.0000
  H   H3015     1.0  0.96844  0.94131  0.28751  1.0000
  H   H3016     1.0  0.56733  0.61610  0.26822  1.0000
  H   H3017     1.0  0.63528  0.57215  0.30058  1.0000
  H   H3018     1.0  0.56956  0.58626  0.26929  1.0000
  H   H3019     1.0  0.52800  0.58415  0.27004  1.0000
  N   N94       1.0  0.51990  0.60986  0.45466  1.0000
  C   C1706     1.0  0.49903  0.64636  0.46934  1.0000
  N   N95       1.0  0.59454  0.60346  0.24317  1.0000
  H   H3020     1.0  0.63842  0.53829  0.47818  1.0000
  N   N96       1.0  0.65898  0.49898  0.46011  1.0000
  H   H3021     1.0  0.65341  0.53425  0.44240  1.0000
  C   C1707     1.0  0.64589  0.51781  0.44561  1.0000
  H   H3022     1.0  0.58433  0.57238  0.46601  1.0000
  H   H3023     1.0  0.51743  0.67354  0.47204  1.0000
  H   H3024     1.0  0.64273  0.48480  0.29809  1.0000
  H   H3025     1.0  0.66329  0.51538  0.41212  1.0000
  H   H3026     1.0  0.53349  0.63215  0.42433  1.0000
  Fe  Fe186     1.0  0.49284  0.50377  0.38688  1.0000
  C   C1708     1.0  0.57064  0.60315  0.25773  1.0000
  C   C1709     1.0  0.64573  0.51394  0.42267  1.0000
  Fe  Fe187     1.0  0.50567  0.55196  0.36901  1.0000
  H   H3027     1.0  0.69052  0.50031  0.43556  1.0000
  Fe  Fe188     1.0  0.57708  0.51727  0.25369  1.0000
  H   H3028     1.0  0.56904  0.52313  0.39890  1.0000
  H   H3029     1.0  0.63656  0.48400  0.25536  1.0000
  H   H3030     1.0  0.51271  0.60693  0.25289  1.0000
  H   H3031     1.0  0.49825  0.58397  0.45620  1.0000
  H   H3032     1.0  0.66313  0.49011  0.27266  1.0000
  C   C1710     1.0  0.55386  0.48106  0.42243  1.0000
  H   H3033     1.0  0.62900  0.60812  0.24590  1.0000
  H   H3034     1.0  0.49494  0.48407  0.29497  1.0000
  C   C1711     1.0  0.64294  0.48220  0.47431  1.0000
  H   H3035     1.0  0.67607  0.49668  0.48700  1.0000
  H   H3036     1.0  0.96393  0.91584  0.48938  1.0000
  C   C1712     1.0  0.96203  0.93383  0.49013  1.0000
  C   C1713     1.0  0.69061  0.59900  0.55312  1.0000
  S   S380      1.0  0.98503  0.92094  0.63114  1.0000
  H   H3037     1.0  0.72710  0.58663  0.55379  1.0000
  N   N97       1.0  0.50505  0.59366  0.62811  1.0000
  H   H3038     1.0  0.50032  0.68446  0.73808  1.0000
  S   S381      1.0  0.54161  0.56180  0.51822  1.0000
  C   C1714     1.0  0.62379  0.59941  0.57276  1.0000
  C   C1715     1.0  0.92364  0.94251  0.62819  1.0000
  H   H3039     1.0  0.49448  0.80015  0.65977  1.0000
  H   H3040     1.0  0.63933  0.76564  0.70166  1.0000
  H   H3041     1.0  0.57246  0.50434  0.61921  1.0000
  H   H3042     1.0  0.65120  0.63673  0.56848  1.0000
  C   C1716     1.0  0.49964  0.59650  0.60585  1.0000
  C   C1717     1.0  0.91433  0.92912  0.68363  1.0000
  H   H3043     1.0  0.63520  0.80840  0.69354  1.0000
  H   H3044     1.0  0.58560  0.68058  0.71029  1.0000
  Fe  Fe189     1.0  0.54328  0.54436  0.55246  1.0000
  S   S382      1.0  0.51143  0.53687  0.57797  1.0000
  S   S383      1.0  0.59817  0.56166  0.51061  1.0000
  H   H3045     1.0  0.49530  0.52858  0.49263  1.0000
  H   H3046     1.0  0.62130  0.58277  0.62929  1.0000
  C   C1718     1.0  0.64643  0.60063  0.53594  1.0000
  H   H3047     1.0  0.53357  0.78206  0.63950  1.0000
  Fe  Fe190     1.0  0.98549  0.93692  0.55143  1.0000
  H   H3048     1.0  0.99137  0.53047  0.58052  1.0000
  H   H3049     1.0  0.63765  0.59235  0.49829  1.0000
  H   H3050     1.0  0.70590  0.50339  0.54604  1.0000
  Fe  Fe191     1.0  0.52432  0.49394  0.69297  1.0000
  S   S384      1.0  0.53812  0.49446  0.72226  1.0000
  H   H3051     1.0  0.94729  0.50507  0.64111  1.0000
  H   H3052     1.0  0.85776  0.97849  0.56319  1.0000
  C   C1719     1.0  0.51390  0.61286  0.58724  1.0000
  Fe  Fe192     1.0  0.51019  0.52431  0.72619  1.0000
  C   C1720     1.0  0.96831  0.49360  0.60491  1.0000
  H   H3053     1.0  0.62283  0.58112  0.57287  1.0000
  H   H3054     1.0  0.63847  0.51536  0.50150  1.0000
  Fe  Fe193     1.0  0.57450  0.68033  0.59508  1.0000
  S   S385      1.0  0.59564  0.66659  0.62099  1.0000
  S   S386      1.0  0.59096  0.68483  0.55952  1.0000
  Fe  Fe194     1.0  0.52930  0.68555  0.62752  1.0000
  S   S387      1.0  0.54614  0.67135  0.65633  1.0000
  H   H3055     1.0  0.49825  0.57042  0.65937  1.0000
  Fe  Fe195     1.0  0.57344  0.69391  0.63794  1.0000
  S   S388      1.0  0.58802  0.71237  0.65747  1.0000
  Fe  Fe196     1.0  0.56664  0.64545  0.63712  1.0000
  S   S389      1.0  0.57597  0.60760  0.64875  1.0000
  S   S390      1.0  0.55509  0.71000  0.61027  1.0000
  S   S391      1.0  0.54694  0.65724  0.61005  1.0000
  C   C1721     1.0  0.53205  0.57190  0.71114  1.0000
  C   C1722     1.0  0.53166  0.59582  0.70717  1.0000
  C   C1723     1.0  0.54526  0.60711  0.68806  1.0000
  C   C1724     1.0  0.55952  0.59436  0.67326  1.0000
  C   C1725     1.0  0.56025  0.57045  0.67760  1.0000
  C   C1726     1.0  0.54632  0.55930  0.69630  1.0000
  H   H3056     1.0  0.61785  0.56607  0.61080  1.0000
  H   H3057     1.0  0.54456  0.62557  0.68461  1.0000
  H   H3058     1.0  0.57117  0.56054  0.66622  1.0000
  H   H3059     1.0  0.54673  0.54087  0.69920  1.0000
  H   H3060     1.0  0.58850  0.48845  0.68417  1.0000
  H   H3061     1.0  0.62293  0.92284  0.73972  1.0000
  H   H3062     1.0  0.88114  0.96726  0.66560  1.0000
  H   H3063     1.0  0.90354  0.95010  0.51829  1.0000
  H   H3064     1.0  0.70812  0.56460  0.56394  1.0000
  H   H3065     1.0  0.89786  0.93712  0.69278  1.0000
  H   H3066     1.0  0.92977  0.90739  0.64658  1.0000
  S   S392      1.0  0.61041  0.84650  0.71536  1.0000
  H   H3067     1.0  0.60151  0.60831  0.60237  1.0000
  C   C1727     1.0  0.95214  0.48606  0.64476  1.0000
  C   C1728     1.0  0.55235  0.78492  0.66331  1.0000
  C   C1729     1.0  0.54638  0.77353  0.64920  1.0000
  C   C1730     1.0  0.55694  0.75110  0.64755  1.0000
  C   C1731     1.0  0.57406  0.74025  0.65952  1.0000
  C   C1732     1.0  0.58036  0.75183  0.67333  1.0000
  C   C1733     1.0  0.56939  0.77407  0.67533  1.0000
  H   H3068     1.0  0.89727  0.94129  0.56812  1.0000
  H   H3069     1.0  0.55198  0.74237  0.63684  1.0000
  H   H3070     1.0  0.59359  0.74345  0.68261  1.0000
  H   H3071     1.0  0.57426  0.78289  0.68600  1.0000
  H   H3072     1.0  0.51362  0.64956  0.70728  1.0000
  H   H3073     1.0  0.83735  0.97248  0.63031  1.0000
  S   S393      1.0  0.62513  0.53796  0.56250  1.0000
  H   H3074     1.0  0.51001  0.59743  0.56111  1.0000
  H   H3075     1.0  0.53320  0.52108  0.50436  1.0000
  C   C1734     1.0  0.57653  0.66070  0.51129  1.0000
  H   H3076     1.0  0.52509  0.72048  0.71688  1.0000
  H   H3077     1.0  0.92511  0.94091  0.54951  1.0000
  H   H3078     1.0  0.94772  0.90639  0.60833  1.0000
  N   N98       1.0  0.64542  0.60741  0.55723  1.0000
  H   H3079     1.0  0.91938  0.91442  0.60087  1.0000
  H   H3080     1.0  0.66888  0.67103  0.54740  1.0000
  Fe  Fe197     1.0  0.56576  0.58437  0.52203  1.0000
  H   H3081     1.0  0.50234  0.50298  0.65580  1.0000
  H   H3082     1.0  0.50727  0.64737  0.65689  1.0000
  C   C1735     1.0  0.55426  0.66572  0.71072  1.0000
  H   H3083     1.0  0.50472  0.76187  0.72671  1.0000
  C   C1736     1.0  0.58184  0.66750  0.54541  1.0000
  C   C1737     1.0  0.57393  0.64648  0.55613  1.0000
  S   S394      1.0  0.54985  0.48932  0.66266  1.0000
  C   C1738     1.0  0.49353  0.57388  0.64310  1.0000
  H   H3084     1.0  0.57336  0.64064  0.57332  1.0000
  H   H3085     1.0  0.56167  0.61631  0.55274  1.0000
  C   C1739     1.0  0.52145  0.52342  0.60181  1.0000
  C   C1740     1.0  0.50581  0.51785  0.62153  1.0000
  C   C1741     1.0  0.51434  0.50733  0.64053  1.0000
  C   C1742     1.0  0.53843  0.50217  0.63955  1.0000
  C   C1743     1.0  0.55389  0.50760  0.61984  1.0000
  C   C1744     1.0  0.54544  0.51827  0.60106  1.0000
  H   H3086     1.0  0.64815  0.80997  0.58363  1.0000
  H   H3087     1.0  0.49297  0.77187  0.69167  1.0000
  H   H3088     1.0  0.87651  0.95254  0.53770  1.0000
  H   H3089     1.0  0.55764  0.52299  0.58615  1.0000
  Fe  Fe198     1.0  0.54127  0.82620  0.69426  1.0000
  H   H3090     1.0  0.67404  0.53141  0.56085  1.0000
  C   C1745     1.0  0.70967  0.58282  0.56350  1.0000
  H   H3091     1.0  0.64909  0.54866  0.50994  1.0000
  C   C1746     1.0  0.89247  0.48688  0.61649  1.0000
  H   H3092     1.0  0.67523  0.52853  0.50671  1.0000
  H   H3093     1.0  0.64233  0.48199  0.70316  1.0000
  H   H3094     1.0  0.61446  0.65281  0.69276  1.0000
  H   H3095     1.0  0.66530  0.57558  0.56985  1.0000
  H   H3096     1.0  0.50699  0.57291  0.49212  1.0000
  C   C1747     1.0  0.64851  0.79366  0.59595  1.0000
  Fe  Fe199     1.0  0.99053  0.94073  0.59649  1.0000
  H   H3097     1.0  0.64917  0.58149  0.53800  1.0000
  H   H3098     1.0  0.66019  0.80952  0.62780  1.0000
  H   H3099     1.0  0.56867  0.72836  0.73074  1.0000
  H   H3100     1.0  0.91737  0.95081  0.61293  1.0000
  C   C1748     1.0  0.64156  0.81538  0.62663  1.0000
  H   H3101     1.0  0.61702  0.62701  0.52824  1.0000
  C   C1749     1.0  0.62442  0.60939  0.52585  1.0000
  C   C1750     1.0  0.89514  0.95502  0.53414  1.0000
  H   H3102     1.0  0.92579  0.88732  0.61879  1.0000
  C   C1751     1.0  0.96392  0.94007  0.50915  1.0000
  H   H3103     1.0  0.95562  0.97484  0.61886  1.0000
  S   S395      1.0  0.56469  0.56906  0.55717  1.0000
  H   H3104     1.0  0.92028  0.50765  0.60495  1.0000
  H   H3105     1.0  0.96914  0.48800  0.58948  1.0000
  H   H3106     1.0  0.51121  0.63043  0.59072  1.0000
  H   H3107     1.0  0.91013  0.91485  0.67775  1.0000
  H   H3108     1.0  0.90596  0.92040  0.55084  1.0000
  C   C1752     1.0  0.50286  0.65602  0.72167  1.0000
  H   H3109     1.0  0.94273  0.94234  0.62355  1.0000
  H   H3110     1.0  0.53946  0.97360  0.70343  1.0000
  C   C1753     1.0  0.54254  0.69137  0.73755  1.0000
  H   H3111     1.0  0.69311  0.59622  0.53635  1.0000
  C   C1754     1.0  0.62597  0.92067  0.69014  1.0000
  H   H3112     1.0  0.93505  0.93262  0.70623  1.0000
  H   H3113     1.0  0.51373  0.71370  0.65815  1.0000
  C   C1755     1.0  0.62041  0.49718  0.66145  1.0000
  H   H3114     1.0  0.60874  0.76692  0.70135  1.0000
  S   S396      1.0  0.57366  0.51783  0.54358  1.0000
  C   C1756     1.0  0.56756  0.63251  0.54440  1.0000
  S   S397      1.0  0.50887  0.83624  0.71779  1.0000
  H   H3115     1.0  0.58988  0.92870  0.68732  1.0000
  H   H3116     1.0  0.50622  0.65554  0.49771  1.0000
  H   H3117     1.0  0.66165  0.60647  0.52361  1.0000
  H   H3118     1.0  0.95710  0.51052  0.60354  1.0000
  C   C1757     1.0  0.49620  0.61583  0.63613  1.0000
  C   C1758     1.0  0.88767  0.95697  0.65263  1.0000
  H   H3119     1.0  0.66677  0.78728  0.59789  1.0000
  C   C1759     1.0  0.49220  0.63824  0.66594  1.0000
  H   H3120     1.0  0.66712  0.68079  0.51914  1.0000
  H   H3121     1.0  0.58960  0.69064  0.51454  1.0000
  H   H3122     1.0  0.55497  0.71206  0.70491  1.0000
  C   C1760     1.0  0.58336  0.67446  0.52293  1.0000
  H   H3123     1.0  0.51702  0.62648  0.55259  1.0000
  H   H3124     1.0  0.91113  0.50074  0.63407  1.0000
  C   C1761     1.0  0.51300  0.67649  0.72537  1.0000
  C   C1762     1.0  0.56879  0.63960  0.52198  1.0000
  C   C1763     1.0  0.49523  0.61440  0.66064  1.0000
  H   H3125     1.0  0.64083  0.68065  0.53965  1.0000
  S   S398      1.0  0.56154  0.80807  0.71991  1.0000
  H   H3126     1.0  0.62583  0.64149  0.55757  1.0000
  C   C1764     1.0  0.64428  0.63312  0.55517  1.0000
  C   C1765     1.0  0.65685  0.64681  0.53330  1.0000
  Fe  Fe200     1.0  0.52486  0.86807  0.71501  1.0000
  C   C1766     1.0  0.54279  0.71417  0.72036  1.0000
  C   C1767     1.0  0.50668  0.61460  0.56563  1.0000
  H   H3127     1.0  0.49209  0.83033  0.67978  1.0000
  H   H3128     1.0  0.61080  0.59792  0.53379  1.0000
  N   N99       1.0  0.62772  0.82016  0.64825  1.0000
  C   C1768     1.0  0.63792  0.83791  0.65520  1.0000
  C   C1769     1.0  0.62972  0.79782  0.66478  1.0000
  C   C1770     1.0  0.60217  0.82764  0.64777  1.0000
  C   C1771     1.0  0.59629  0.84984  0.63115  1.0000
  C   C1772     1.0  0.62254  0.79980  0.68903  1.0000
  C   C1773     1.0  0.64800  0.85773  0.63724  1.0000
  C   C1774     1.0  0.65233  0.87689  0.64715  1.0000
  C   C1775     1.0  0.57100  0.85298  0.62845  1.0000
  H   H3129     1.0  0.50182  0.57952  0.60106  1.0000
  H   H3130     1.0  0.62477  0.84564  0.66783  1.0000
  H   H3131     1.0  0.65293  0.82956  0.66311  1.0000
  H   H3132     1.0  0.64802  0.78901  0.66250  1.0000
  H   H3133     1.0  0.61889  0.78562  0.66248  1.0000
  H   H3134     1.0  0.59408  0.81354  0.64507  1.0000
  H   H3135     1.0  0.59232  0.83074  0.66390  1.0000
  H   H3136     1.0  0.60730  0.84971  0.61482  1.0000
  H   H3137     1.0  0.59859  0.86506  0.63699  1.0000
  H   H3138     1.0  0.61496  0.80305  0.61485  1.0000
  H   H3139     1.0  0.60519  0.80990  0.69232  1.0000
  H   H3140     1.0  0.96084  0.96823  0.52528  1.0000
  H   H3141     1.0  0.63647  0.86558  0.62559  1.0000
  H   H3142     1.0  0.66419  0.87000  0.65884  1.0000
  H   H3143     1.0  0.66049  0.89037  0.63414  1.0000
  H   H3144     1.0  0.56739  0.83805  0.62296  1.0000
  H   H3145     1.0  0.55885  0.85494  0.64397  1.0000
  H   H3146     1.0  0.56763  0.86876  0.61611  1.0000
  C   C1776     1.0  0.96064  0.96330  0.51031  1.0000
  H   H3147     1.0  0.68350  0.48291  0.68632  1.0000
  C   C1777     1.0  0.49524  0.71492  0.66489  1.0000
  H   H3148     1.0  0.62299  0.48443  0.65098  1.0000
  H   H3149     1.0  0.51309  0.68979  0.71021  1.0000
  H   H3150     1.0  0.54660  0.97875  0.72753  1.0000
  H   H3151     1.0  0.66100  0.90730  0.69447  1.0000
  C   C1778     1.0  0.64690  0.51653  0.55402  1.0000
  C   C1779     1.0  0.87322  0.96692  0.63461  1.0000
  H   H3152     1.0  0.64701  0.64824  0.52030  1.0000
  C   C1780     1.0  0.66613  0.59448  0.56663  1.0000
  H   H3153     1.0  0.84553  0.94499  0.64690  1.0000
  H   H3154     1.0  0.61718  0.77837  0.72131  1.0000
  C   C1781     1.0  0.61615  0.87514  0.70599  1.0000
  C   C1782     1.0  0.66998  0.51775  0.55460  1.0000
  H   H3155     1.0  0.64197  0.83119  0.61378  1.0000
  C   C1783     1.0  0.90656  0.93845  0.55174  1.0000
  S   S399      1.0  0.53854  0.81283  0.66525  1.0000
  H   H3156     1.0  0.52046  0.60557  0.71857  1.0000
  H   H3157     1.0  0.92580  0.96198  0.67300  1.0000
  H   H3158     1.0  0.65257  0.86686  0.70744  1.0000
  H   H3159     1.0  0.88289  0.93952  0.66023  1.0000
  C   C1784     1.0  0.64354  0.90328  0.69625  1.0000
  H   H3160     1.0  0.64581  0.57437  0.60935  1.0000
  H   H3161     1.0  0.55143  0.67917  0.69618  1.0000
  C   C1785     1.0  0.64168  0.49891  0.54585  1.0000
  H   H3162     1.0  0.57763  0.66627  0.49395  1.0000
  Fe  Fe201     1.0  0.57400  0.53761  0.50952  1.0000
  H   H3163     1.0  0.67472  0.63855  0.52784  1.0000
  C   C1786     1.0  0.92549  0.94764  0.66490  1.0000
  C   C1787     1.0  0.60725  0.51930  0.65049  1.0000
  C   C1788     1.0  0.62985  0.60966  0.50148  1.0000
  Fe  Fe202     1.0  0.57309  0.84242  0.71683  1.0000
  C   C1789     1.0  0.84753  0.96358  0.64300  1.0000
  H   H3164     1.0  0.61948  0.49085  0.60225  1.0000
  S   S400      1.0  0.56153  0.62204  0.50689  1.0000
  H   H3165     1.0  0.58096  0.88882  0.70231  1.0000
  C   C1790     1.0  0.68797  0.50189  0.54627  1.0000
  H   H3166     1.0  0.90101  0.91492  0.63983  1.0000
  C   C1791     1.0  0.95670  0.98027  0.49220  1.0000
  C   C1792     1.0  0.63872  0.88045  0.70371  1.0000
  C   C1793     1.0  0.62195  0.77617  0.70416  1.0000
  H   H3167     1.0  0.61689  0.52493  0.63366  1.0000
  C   C1794     1.0  0.59141  0.94597  0.73698  1.0000
  H   H3168     1.0  0.58956  0.51649  0.64961  1.0000
  N   N100      1.0  0.91377  0.95649  0.64553  1.0000
  H   H3169     1.0  0.94414  0.94100  0.65946  1.0000
  S   S401      1.0  0.74080  0.96017  0.69750  1.0000
  C   C1795     1.0  0.66201  0.53987  0.49807  1.0000
  C   C1796     1.0  0.53099  0.58858  0.62739  1.0000
  C   C1797     1.0  0.54351  0.56704  0.61831  1.0000
  H   H3170     1.0  0.51044  0.94657  0.72514  1.0000
  S   S402      1.0  0.96211  0.95378  0.57735  1.0000
  H   H3171     1.0  0.60789  0.60888  0.56691  1.0000
  C   C1798     1.0  0.56991  0.56672  0.61297  1.0000
  H   H3172     1.0  0.96480  0.51329  0.66920  1.0000
  S   S403      1.0  0.55535  0.85951  0.68915  1.0000
  H   H3173     1.0  0.59228  0.66356  0.67681  1.0000
  H   H3174     1.0  0.94697  0.90975  0.69140  1.0000
  H   H3175     1.0  0.60566  0.53321  0.65957  1.0000
  H   H3176     1.0  0.50098  0.79640  0.69803  1.0000
  H   H3177     1.0  0.49931  0.76425  0.64353  1.0000
  H   H3178     1.0  0.51130  0.60483  0.66578  1.0000
  H   H3179     1.0  0.53990  0.60377  0.61827  1.0000
  H   H3180     1.0  0.53472  0.58558  0.64391  1.0000
  H   H3181     1.0  0.53814  0.56611  0.60330  1.0000
  H   H3182     1.0  0.53950  0.55136  0.63072  1.0000
  H   H3183     1.0  0.87959  0.95841  0.62050  1.0000
  H   H3184     1.0  0.53279  0.60647  0.58501  1.0000
  H   H3185     1.0  0.69073  0.49340  0.59283  1.0000
  H   H3186     1.0  0.50724  0.62937  0.62674  1.0000
  S   S404      1.0  0.51412  0.55759  0.73406  1.0000
  H   H3187     1.0  0.70848  0.58515  0.58030  1.0000
  H   H3188     1.0  0.57485  0.58171  0.59998  1.0000
  H   H3189     1.0  0.57634  0.56718  0.62764  1.0000
  H   H3190     1.0  0.57843  0.55075  0.60713  1.0000
  S   S405      1.0  0.97150  0.91917  0.53113  1.0000
  C   C1799     1.0  0.62680  0.58008  0.61232  1.0000
  C   C1800     1.0  0.93062  0.91887  0.69961  1.0000
  H   H3191     1.0  0.66563  0.59883  0.58253  1.0000
  C   C1801     1.0  0.60712  0.48821  0.68472  1.0000
  C   C1802     1.0  0.60350  0.91530  0.69209  1.0000
  H   H3192     1.0  0.64206  0.62232  0.49273  1.0000
  H   H3193     1.0  0.63560  0.88502  0.65574  1.0000
  S   S406      1.0  0.63188  0.94895  0.67875  1.0000
  S   S407      1.0  0.67382  0.94899  0.72172  1.0000
  H   H3194     1.0  0.62383  0.49798  0.54536  1.0000
  C   C1803     1.0  0.65851  0.67128  0.53507  1.0000
  H   H3195     1.0  0.64200  0.78065  0.58994  1.0000
  H   H3196     1.0  0.49817  0.72689  0.69302  1.0000
  H   H3197     1.0  0.60694  0.50148  0.69415  1.0000
  S   S408      1.0  0.49924  0.52599  0.69499  1.0000
  C   C1804     1.0  0.62030  0.60251  0.59665  1.0000
  C   C1805     1.0  0.63300  0.79730  0.61766  1.0000
  H   H3198     1.0  0.92196  0.90635  0.71332  1.0000
  Fe  Fe203     1.0  0.59500  0.54417  0.54561  1.0000
  H   H3199     1.0  0.63762  0.50137  0.66213  1.0000
  C   C1806     1.0  0.59848  0.89267  0.70041  1.0000
  C   C1807     1.0  0.55028  0.73294  0.72866  1.0000
  H   H3200     1.0  0.66499  0.85099  0.62787  1.0000
  C   C1808     1.0  0.92868  0.90568  0.61424  1.0000
  C   C1809     1.0  0.96562  0.49461  0.67643  1.0000
  C   C1810     1.0  0.91972  0.91695  0.63402  1.0000
  H   H3201     1.0  0.63337  0.78034  0.62898  1.0000
  H   H3202     1.0  0.69343  0.61684  0.55265  1.0000
  Fe  Fe204     1.0  0.65688  0.96242  0.69266  1.0000
  H   H3203     1.0  0.98883  0.48355  0.64892  1.0000
  H   H3204     1.0  0.62969  0.61617  0.59819  1.0000
  H   H3205     1.0  0.97950  0.48987  0.68621  1.0000
  C   C1811     1.0  0.91511  0.49372  0.61902  1.0000
  H   H3206     1.0  0.58457  0.65209  0.72669  1.0000
  H   H3207     1.0  0.50031  0.55774  0.63697  1.0000
  C   C1812     1.0  0.59577  0.65312  0.69261  1.0000
  H   H3208     1.0  0.59983  0.95673  0.72168  1.0000
  Fe  Fe205     1.0  0.70199  0.97070  0.70224  1.0000
  C   C1813     1.0  0.58048  0.66340  0.71151  1.0000
  H   H3209     1.0  0.55129  0.64944  0.70714  1.0000
  H   H3210     1.0  0.59242  0.63523  0.69395  1.0000
  H   H3211     1.0  0.95247  0.97947  0.64589  1.0000
  H   H3212     1.0  0.59268  0.49169  0.72919  1.0000
  H   H3213     1.0  0.61351  0.61478  0.49505  1.0000
  H   H3214     1.0  0.78267  0.97648  0.67058  1.0000
  H   H3215     1.0  0.87901  0.50221  0.61521  1.0000
  H   H3216     1.0  0.88308  0.97901  0.49646  1.0000
  N   N101      1.0  0.53706  0.67100  0.73069  1.0000
  C   C1814     1.0  0.89841  0.98019  0.53325  1.0000
  C   C1815     1.0  0.50648  0.95617  0.73867  1.0000
  H   H3217     1.0  0.58244  0.93348  0.73272  1.0000
  H   H3218     1.0  0.49529  0.60065  0.49855  1.0000
  H   H3219     1.0  0.54890  0.74945  0.71674  1.0000
  S   S409      1.0  0.50721  0.90445  0.70880  1.0000
  H   H3220     1.0  0.84015  0.97086  0.65780  1.0000
  H   H3221     1.0  0.94873  0.49099  0.68743  1.0000
  H   H3222     1.0  0.50212  0.64159  0.73590  1.0000
  C   C1816     1.0  0.65967  0.48258  0.53808  1.0000
  C   C1817     1.0  0.68287  0.48432  0.53800  1.0000
  H   H3223     1.0  0.49830  0.87279  0.66755  1.0000
  C   C1818     1.0  0.50967  0.95894  0.98074  1.0000
  Fe  Fe206     1.0  0.53038  0.82060  0.74318  1.0000
  H   H3224     1.0  0.50183  0.65518  0.76689  1.0000
  C   C1819     1.0  0.53674  0.97174  0.84784  1.0000
  C   C1820     1.0  0.51210  0.82492  0.91615  1.0000
  C   C1821     1.0  0.64865  0.93336  0.81725  1.0000
  C   C1822     1.0  0.52208  0.78764  0.81506  1.0000
  H   H3225     1.0  0.62846  0.90525  0.82717  1.0000
  H   H3226     1.0  0.50002  0.96959  0.81481  1.0000
  H   H3227     1.0  0.65875  0.92640  0.83035  1.0000
  H   H3228     1.0  0.50895  0.85265  0.81613  1.0000
  H   H3229     1.0  0.55564  0.64769  0.75400  1.0000
  H   H3230     1.0  0.52689  0.78307  0.84800  1.0000
  H   H3231     1.0  0.56688  0.87086  0.83878  1.0000
  S   S410      1.0  0.51774  0.79427  0.77262  1.0000
  C   C1823     1.0  0.51247  0.90497  0.96851  1.0000
  H   H3232     1.0  0.64619  0.84611  0.74666  1.0000
  H   H3233     1.0  0.54485  0.78740  0.98140  1.0000
  C   C1824     1.0  0.64722  0.93392  0.92574  1.0000
  H   H3234     1.0  0.52091  0.48648  0.80081  1.0000
  C   C1825     1.0  0.55964  0.96687  0.91558  1.0000
  H   H3235     1.0  0.66040  0.94196  0.80273  1.0000
  N   N102      1.0  0.61489  0.90530  0.78652  1.0000
  H   H3236     1.0  0.52073  0.94934  0.74780  1.0000
  C   C1826     1.0  0.54737  0.96917  0.93895  1.0000
  H   H3237     1.0  0.65441  0.90145  0.80681  1.0000
  C   C1827     1.0  0.62894  0.87224  0.76518  1.0000
  H   H3238     1.0  0.63417  0.94627  0.82293  1.0000
  H   H3239     1.0  0.61857  0.94671  0.75317  1.0000
  H   H3240     1.0  0.50934  0.83824  0.90155  1.0000
  S   S411      1.0  0.54372  0.85346  0.74254  1.0000
  H   H3241     1.0  0.51748  0.87654  0.78012  1.0000
  H   H3242     1.0  0.66107  0.93762  0.96212  1.0000
  S   S412      1.0  0.52013  0.82832  0.85738  1.0000
  H   H3243     1.0  0.50149  0.94699  0.90237  1.0000
  H   H3244     1.0  0.65500  0.89846  0.94033  1.0000
  H   H3245     1.0  0.52940  0.84943  0.98771  1.0000
  H   H3246     1.0  0.52982  0.81530  0.91247  1.0000
  C   C1828     1.0  0.50085  0.88655  0.77639  1.0000
  H   H3247     1.0  0.52835  0.80684  0.95250  1.0000
  H   H3248     1.0  0.55822  0.90741  0.92560  1.0000
  H   H3249     1.0  0.61806  0.88003  0.75284  1.0000
  S   S413      1.0  0.52643  0.88423  0.87426  1.0000
  C   C1829     1.0  0.64027  0.91230  0.94315  1.0000
  H   H3250     1.0  0.53884  0.73559  0.74438  1.0000
  H   H3251     1.0  0.55817  0.82307  0.95261  1.0000
  H   H3252     1.0  0.50825  0.90528  0.98562  1.0000
  H   H3253     1.0  0.59439  0.90091  0.81944  1.0000
  H   H3254     1.0  0.62269  0.95141  0.96344  1.0000
  H   H3255     1.0  0.52699  0.90637  0.90667  1.0000
  H   H3256     1.0  0.51216  0.96095  0.77838  1.0000
  H   H3257     1.0  0.49776  0.80751  0.95985  1.0000
  H   H3258     1.0  0.61969  0.85944  0.77804  1.0000
  H   H3259     1.0  0.53810  0.63426  0.74338  1.0000
  H   H3260     1.0  0.52013  0.96850  0.84590  1.0000
  C   C1830     1.0  0.54055  0.90646  0.93466  1.0000
  H   H3261     1.0  0.49674  0.48240  0.79039  1.0000
  H   H3262     1.0  0.58886  0.97218  0.98286  1.0000
  H   H3263     1.0  0.63623  0.93290  0.77993  1.0000
  C   C1831     1.0  0.57840  0.96113  0.84468  1.0000
  H   H3264     1.0  0.56015  0.81812  0.98096  1.0000
  H   H3265     1.0  0.58998  0.90598  0.76638  1.0000
  H   H3266     1.0  0.63406  0.94924  0.92748  1.0000
  C   C1832     1.0  0.64981  0.92980  0.90278  1.0000
  H   H3267     1.0  0.67213  0.90808  0.96566  1.0000
  H   H3268     1.0  0.50790  0.62946  0.80125  1.0000
  C   C1833     1.0  0.58414  0.95376  0.91525  1.0000
  C   C1834     1.0  0.62460  0.92313  0.79379  1.0000
  C   C1835     1.0  0.58017  0.88085  0.80396  1.0000
  C   C1836     1.0  0.51279  0.82695  0.79690  1.0000
  H   H3269     1.0  0.56779  0.95471  0.98145  1.0000
  H   H3270     1.0  0.49884  0.81299  0.91952  1.0000
  H   H3271     1.0  0.58386  0.87250  0.78979  1.0000
  H   H3272     1.0  0.50328  0.52372  0.78337  1.0000
  H   H3273     1.0  0.96297  0.97146  0.75194  1.0000
  H   H3274     1.0  0.64917  0.86653  0.96361  1.0000
  H   H3275     1.0  0.61015  0.93613  0.79975  1.0000
  H   H3276     1.0  0.61107  0.88967  0.97615  1.0000
  C   C1837     1.0  0.51979  0.65127  0.77008  1.0000
  C   C1838     1.0  0.52275  0.79533  0.83380  1.0000
  H   H3277     1.0  0.59478  0.96304  0.92157  1.0000
  C   C1839     1.0  0.57159  0.86309  0.82411  1.0000
  C   C1840     1.0  0.52121  0.62826  0.78618  1.0000
  H   H3278     1.0  0.56557  0.89500  0.80184  1.0000
  C   C1841     1.0  0.63915  0.91386  0.81192  1.0000
  C   C1842     1.0  0.60163  0.89073  0.80651  1.0000
  H   H3279     1.0  0.58343  0.93616  0.92536  1.0000
  C   C1843     1.0  0.51831  0.81888  0.83412  1.0000
  C   C1844     1.0  0.59868  0.91803  0.77149  1.0000
  H   H3280     1.0  0.49858  0.52207  0.81231  1.0000
  H   H3281     1.0  0.52942  0.69533  0.75200  1.0000
  H   H3282     1.0  0.66177  0.84948  0.76631  1.0000
  H   H3283     1.0  0.64653  0.90179  0.76218  1.0000
  H   H3284     1.0  0.64650  0.88123  0.78665  1.0000
  C   C1845     1.0  0.55560  0.83120  0.96682  1.0000
  C   C1846     1.0  0.63513  0.89074  0.77516  1.0000
  H   H3285     1.0  0.62493  0.90687  0.93934  1.0000
  H   H3286     1.0  0.61369  0.87623  0.81381  1.0000
  H   H3287     1.0  0.49661  0.95132  0.97578  1.0000
  H   H3288     1.0  0.55587  0.85687  0.82210  1.0000
  C   C1847     1.0  0.50526  0.91102  0.76541  1.0000
  Fe  Fe207     1.0  0.52478  0.91403  0.84614  1.0000
  H   H3289     1.0  0.58520  0.84805  0.82651  1.0000
  H   H3290     1.0  0.66422  0.93811  0.92703  1.0000
  H   H3291     1.0  0.49226  0.84711  0.93693  1.0000
  C   C1848     1.0  0.52288  0.90554  0.92394  1.0000
  C   C1849     1.0  0.51288  0.83461  0.81578  1.0000
  H   H3292     1.0  0.97563  0.96949  0.78141  1.0000
  H   H3293     1.0  0.58433  0.92904  0.78038  1.0000
  N   N103      1.0  0.63497  0.91509  0.96653  1.0000
  H   H3294     1.0  0.59264  0.95229  0.89831  1.0000
  C   C1850     1.0  0.53543  0.90579  0.95703  1.0000
  H   H3295     1.0  0.66337  0.91500  0.89990  1.0000
  H   H3296     1.0  0.54677  0.95132  0.94820  1.0000
  C   C1851     1.0  0.61546  0.93483  0.96864  1.0000
  C   C1852     1.0  0.65105  0.85889  0.75422  1.0000
  C   C1853     1.0  0.62706  0.89297  0.98059  1.0000
  H   H3297     1.0  0.65515  0.94532  0.89069  1.0000
  C   C1854     1.0  0.64515  0.87104  0.97987  1.0000
  H   H3298     1.0  0.51816  0.91007  0.75003  1.0000
  S   S414      1.0  0.55789  0.90648  0.97018  1.0000
  H   H3299     1.0  0.57840  0.95737  0.74645  1.0000
  S   S415      1.0  0.55596  0.93291  0.83122  1.0000
  H   H3300     1.0  0.52739  0.85851  0.96016  1.0000
  H   H3301     1.0  0.59101  0.83973  0.95709  1.0000
  H   H3302     1.0  0.50882  0.83902  0.78265  1.0000
  N   N104      1.0  0.51134  0.82781  0.97641  1.0000
  H   H3303     1.0  0.63298  0.92641  0.90025  1.0000
  H   H3304     1.0  0.49384  0.94059  0.79656  1.0000
  C   C1855     1.0  0.53024  0.84283  0.97279  1.0000
  C   C1856     1.0  0.55691  0.95664  0.84234  1.0000
  C   C1857     1.0  0.51200  0.81844  0.95649  1.0000
  C   C1858     1.0  0.50002  0.90401  0.93550  1.0000
  H   H3305     1.0  0.51778  0.61435  0.77911  1.0000
  H   H3306     1.0  0.52583  0.94658  0.98064  1.0000
  H   H3307     1.0  0.53872  0.62374  0.79053  1.0000
  H   H3308     1.0  0.59401  0.94953  0.84042  1.0000
  C   C1859     1.0  0.57299  0.84858  0.96115  1.0000
  C   C1860     1.0  0.51750  0.80355  0.79647  1.0000
  C   C1861     1.0  0.49357  0.51569  0.79948  1.0000
  H   H3309     1.0  0.60341  0.93547  0.95754  1.0000
  C   C1862     1.0  0.50163  0.48979  0.80269  1.0000
  H   H3310     1.0  0.97511  0.95371  0.82202  1.0000
  C   C1863     1.0  0.60991  0.93338  0.75006  1.0000
  C   C1864     1.0  0.65688  0.92032  0.97143  1.0000
  H   H3311     1.0  0.57184  0.85665  0.97520  1.0000
  H   H3312     1.0  0.52249  0.66465  0.77817  1.0000
  S   S416      1.0  0.51141  0.89458  0.82693  1.0000
  H   H3313     1.0  0.51349  0.91770  0.77594  1.0000
  H   H3314     1.0  0.52575  0.76948  0.81480  1.0000
  H   H3315     1.0  0.56957  0.86216  0.94691  1.0000
  C   C1865     1.0  0.53855  0.65030  0.74897  1.0000
  H   H3316     1.0  0.54998  0.95688  0.90898  1.0000
  H   H3317     1.0  0.49372  0.48086  0.81918  1.0000
  H   H3318     1.0  0.52328  0.84817  0.93093  1.0000
  Fe  Fe208     1.0  0.50941  0.86624  0.85656  1.0000
  C   C1866     1.0  0.50964  0.83655  0.93531  1.0000
  H   H3319     1.0  0.66162  0.87074  0.74138  1.0000
  C   C1867     1.0  0.98566  0.96726  0.82185  1.0000
  H   H3320     1.0  0.51155  0.95216  0.93721  1.0000
  H   H3321     1.0  0.66156  0.87342  0.98398  1.0000
  H   H3322     1.0  0.51804  0.77633  0.98405  1.0000
  H   H3323     1.0  0.55910  0.97641  0.94606  1.0000
  H   H3324     1.0  0.49897  0.74102  0.79420  1.0000
  C   C1868     1.0  0.50659  0.97117  0.93425  1.0000
  H   H3325     1.0  0.68944  0.93542  0.98633  1.0000
  H   H3326     1.0  0.55960  0.68727  0.74288  1.0000
  H   H3327     1.0  0.49455  0.87844  0.76539  1.0000
  C   C1869     1.0  0.49415  0.95848  0.78716  1.0000
  C   C1870     1.0  0.49476  0.90421  0.95773  1.0000
  C   C1871     1.0  0.50356  0.97960  0.91027  1.0000
  C   C1872     1.0  0.57977  0.98054  0.85260  1.0000
  H   H3328     1.0  0.52045  0.98068  0.89879  1.0000
