data_image0
_chemical_formula_structural       S4FeS2FeS2FeSFeS3C2HC4H2C6H4C2HCH4CHNHCH6CHC2H4CHNCH2CH3C2H3CH5FeCH5C3H2C2H4CHC2H2CHC4H5NC2H4C3H4C2HCNCHCH8CHC3H4CH4C2H4CHCH2C3HNH2CH2CHCH2CH3FeC2H2CH7CH3C2H2CH3CH2CH3CH3CH3CH2SHCSHFeS2HFeHS2FeS2H4CHCHC8H7SH7SH3C2H5CNC2NC11H18CH4C2H3SFeCHCH3CH3CH5C3H3SH2CHFeS2FeS2FeSFeS3FeS2FeSFeSFeS3C6H6C2H4C2H4CH3C5HCH3NCH4C3HCH3CH2CHCH2CHCH2CHCH4CH2CH5CH2NCHNHC2H4C3HCH4CHCH2CHCH3CH2CH8C2SH7C2H2C4HCH4CH4C2H3CHC2H7CH3CH3CS4FeS2FeS2FeSFeS3CHC6H3CHCHC2HC6H4CHNCH2C2HC3H7C3H4CHCH2CH2C2H2CH2CNCH2C2H9C2H4CHNH2C2H3CH2C2HCHCH2CFeSH2FeH4FeH3CH2CH2CHFeH3CH8C2H8CSC2H3C2H4CHC3HCH3CHCH7SH2NC3H2CHCH3CH2CSHSCFeSHSFeCSH2C4H4C6H4CH2CH3CHCH4CH6CHCH4CH7CH2CH2C3NHCNH9C2SH3C3HC2H5CFeH2NH2C2H8CFeCHCH2SHCH2CHCHCH6SHC2HSCSHFeS2FeS2C4FeSCH4SC6H4CH4NHCHCHSH6CH2FeH2CH2FeH4C2HCHCH4CHCH2CH6CHNC8HC3H16CH5CSFeH3C2H5CH2S2HFeS2CHFeS2FeS2FeSFeS3CHCHC3HC7HCHC11H13NC10H11CH6CH6CHCNC11H25CH12CH2CH2SH2C2H2C3HFeHC2H2CH2CFeHFeH3NHNH2CH2SC3HC2H2CH2C2H4C2H2CH12CHC2H3CFeS2FeS2FeSFeHS2FeS2FeS2FeHFeHS2C3H3C2H2C4H2C6H9CH2C2H11CNC3HCHC2H5CHS2C2H3CH2CH2CHC2H9C2H3CHNHSHC2HCH4CHCH3C2HCHFeS2FeS2H4S2H4C7H5CH5NCH2CHCH4CSH4CHFeH12C3H2C2HC3HCH4CNSC3H2C3HNH6C3HCH2CHC2HCH5C2H4CH2FeCH3CHCHSH2S2FeS2FeS2FeSFeS3FeS2H2CHCH2C7H3CH2NHC6H4CHCH4CH2C2HC2H6C2HCH11CFeCH2C3H3CSHC2H3CHC7H8CH2NHCH2CH4CHC2FeCHC2H5CH2CHC2H5CH2NH4C2NH8C3H4FeCHC2SHC2H4C2H2C2HCH2SH2C2H3SH
_chemical_formula_sum              "S128 Fe64 C576 H1024 N32"
_cell_length_a       30.8987
_cell_length_b       61.0739
_cell_length_c       41.603
_cell_angle_alpha    89.8752
_cell_angle_beta     106.945
_cell_angle_gamma    90.1147

_space_group_name_H-M_alt    "P 1"
_space_group_IT_number       1

loop_
  _space_group_symop_operation_xyz
  'x, y, z'

loop_
  _atom_site_type_symbol
  _atom_site_label
  _atom_site_symmetry_multiplicity
  _atom_site_fract_x
  _atom_site_fract_y
  _atom_site_fract_z
  _atom_site_occupancy
  S   S1        1.0  0.41343  0.19882  0.19724  1.0000
  S   S2        1.0  0.45248  0.24444  0.15174  1.0000
  S   S3        1.0  0.03976  0.22145  0.34252  1.0000
  S   S4        1.0  0.08375  0.27427  0.31788  1.0000
  Fe  Fe1       1.0  0.11841  0.11266  0.10159  1.0000
  S   S5        1.0  0.08859  0.09188  0.13436  1.0000
  S   S6        1.0  0.08240  0.12813  0.05120  1.0000
  Fe  Fe2       1.0  0.21530  0.10703  0.14683  1.0000
  S   S7        1.0  0.19249  0.08519  0.18272  1.0000
  S   S8        1.0  0.28989  0.11343  0.15076  1.0000
  Fe  Fe3       1.0  0.14624  0.06842  0.13743  1.0000
  S   S9        1.0  0.12315  0.03238  0.12758  1.0000
  Fe  Fe4       1.0  0.13662  0.10997  0.17742  1.0000
  S   S10       1.0  0.12291  0.11897  0.22690  1.0000
  S   S11       1.0  0.17294  0.08836  0.10172  1.0000
  S   S12       1.0  0.16244  0.13270  0.14438  1.0000
  C   C1        1.0  0.14544  0.00563  0.14015  1.0000
  C   C2        1.0  0.18907  0.00213  0.16166  1.0000
  H   H1        1.0  0.21117  0.01597  0.17065  1.0000
  C   C3        1.0  0.02544  0.17114  0.24587  1.0000
  C   C4        1.0  0.05824  0.15185  0.20688  1.0000
  C   C5        1.0  0.08590  0.13961  0.23340  1.0000
  C   C6        1.0  0.08373  0.14352  0.26622  1.0000
  H   H2        1.0  0.04804  0.01667  0.20571  1.0000
  H   H3        1.0  0.05960  0.14905  0.18151  1.0000
  C   C7        1.0  0.37928  0.17516  0.18297  1.0000
  C   C8        1.0  0.39600  0.15640  0.17148  1.0000
  C   C9        1.0  0.36804  0.13782  0.16145  1.0000
  C   C10       1.0  0.32310  0.13761  0.16298  1.0000
  C   C11       1.0  0.30625  0.15641  0.17432  1.0000
  C   C12       1.0  0.33429  0.17496  0.18447  1.0000
  H   H4        1.0  0.43075  0.15608  0.17084  1.0000
  H   H5        1.0  0.38156  0.12336  0.15290  1.0000
  H   H6        1.0  0.27188  0.15651  0.17581  1.0000
  H   H7        1.0  0.32113  0.18921  0.19383  1.0000
  C   C13       1.0  0.45987  0.30309  0.23233  1.0000
  C   C14       1.0  0.13094  0.19898  0.30529  1.0000
  H   H8        1.0  0.21267  0.20933  0.23522  1.0000
  C   C15       1.0  0.19316  0.17596  0.22431  1.0000
  H   H9        1.0  0.22882  0.17050  0.22940  1.0000
  H   H10       1.0  0.17395  0.16275  0.23251  1.0000
  H   H11       1.0  0.17878  0.17847  0.19679  1.0000
  H   H12       1.0  0.18872  0.19269  0.34914  1.0000
  C   C16       1.0  0.19144  0.19714  0.24345  1.0000
  H   H13       1.0  0.13634  0.18031  0.35066  1.0000
  N   N1        1.0  0.33502  0.19866  0.07236  1.0000
  H   H14       1.0  0.37276  0.22662  0.09828  1.0000
  C   C17       1.0  0.04023  0.29759  0.42269  1.0000
  H   H15       1.0  0.07693  0.24178  0.26372  1.0000
  H   H16       1.0  0.13834  0.18427  0.29224  1.0000
  H   H17       1.0  0.14465  0.20932  0.35743  1.0000
  H   H18       1.0  0.20646  0.19358  0.27054  1.0000
  H   H19       1.0  0.06590  0.21410  0.25105  1.0000
  H   H20       1.0  0.08480  0.26662  0.39082  1.0000
  C   C18       1.0  0.22663  0.26970  0.25644  1.0000
  H   H21       1.0  0.14247  0.23406  0.30774  1.0000
  C   C19       1.0  0.15159  0.19519  0.34298  1.0000
  C   C20       1.0  0.14235  0.20569  0.23559  1.0000
  H   H22       1.0  0.11992  0.19170  0.23736  1.0000
  H   H23       1.0  0.09389  0.20036  0.30059  1.0000
  H   H24       1.0  0.08516  0.18966  0.43932  1.0000
  H   H25       1.0  0.18785  0.21810  0.30270  1.0000
  C   C21       1.0  0.15058  0.21991  0.29358  1.0000
  H   H26       1.0  0.13209  0.21007  0.20847  1.0000
  N   N2        1.0  0.13474  0.22475  0.25635  1.0000
  C   C22       1.0  0.20644  0.25025  0.27035  1.0000
  H   H27       1.0  0.22914  0.23607  0.27188  1.0000
  H   H28       1.0  0.20665  0.25457  0.29634  1.0000
  C   C23       1.0  0.08437  0.22896  0.24702  1.0000
  H   H29       1.0  0.20569  0.28461  0.25540  1.0000
  H   H30       1.0  0.08375  0.01953  0.17946  1.0000
  H   H31       1.0  0.10499  0.13414  0.28690  1.0000
  C   C24       1.0  0.06142  0.23590  0.20999  1.0000
  C   C25       1.0  0.15725  0.24537  0.24854  1.0000
  H   H32       1.0  0.15698  0.24547  0.22170  1.0000
  H   H33       1.0  0.06139  0.22206  0.19271  1.0000
  H   H34       1.0  0.13763  0.26016  0.25166  1.0000
  C   C26       1.0  0.01214  0.24247  0.20475  1.0000
  H   H35       1.0  0.07880  0.25005  0.20245  1.0000
  H   H36       1.0  0.10129  0.99511  0.01231  1.0000
  H   H37       1.0  0.22903  0.26602  0.23087  1.0000
  H   H38       1.0  0.26125  0.27318  0.27303  1.0000
  H   H39       1.0  0.39609  0.16937  0.11111  1.0000
  Fe  Fe5       1.0  0.02183  0.25614  0.32539  1.0000
  C   C27       1.0  0.10200  0.27150  0.41731  1.0000
  H   H40       1.0  0.15447  0.20646  0.43262  1.0000
  H   H41       1.0  0.37120  0.17818  0.04605  1.0000
  H   H42       1.0  0.23523  0.15030  0.04996  1.0000
  H   H43       1.0  0.14418  0.03600  0.33365  1.0000
  H   H44       1.0  0.33301  0.22514  0.16431  1.0000
  C   C28       1.0  0.37815  0.19046  0.06644  1.0000
  C   C29       1.0  0.41305  0.18036  0.09748  1.0000
  C   C30       1.0  0.30898  0.21173  0.04206  1.0000
  H   H45       1.0  0.29620  0.23996  0.09079  1.0000
  H   H46       1.0  0.35309  0.24857  0.14628  1.0000
  C   C31       1.0  0.34810  0.21420  0.10192  1.0000
  C   C32       1.0  0.30736  0.15791  0.06345  1.0000
  H   H47       1.0  0.36587  0.20519  0.12531  1.0000
  H   H48       1.0  0.11840  0.28733  0.41502  1.0000
  H   H49       1.0  0.31587  0.17714  0.10774  1.0000
  H   H50       1.0  0.29551  0.24762  0.14801  1.0000
  C   C33       1.0  0.30613  0.18053  0.08019  1.0000
  H   H51       1.0  0.33913  0.14919  0.07653  1.0000
  C   C34       1.0  0.32361  0.23769  0.14414  1.0000
  C   C35       1.0  0.26785  0.14349  0.06571  1.0000
  H   H52       1.0  0.28000  0.21565  0.10924  1.0000
  H   H53       1.0  0.27018  0.18590  0.07378  1.0000
  C   C36       1.0  0.30858  0.22677  0.10963  1.0000
  H   H54       1.0  0.41046  0.27959  0.20579  1.0000
  C   C37       1.0  0.41732  0.29304  0.22345  1.0000
  C   C38       1.0  0.15943  0.03205  0.22900  1.0000
  C   C39       1.0  0.10604  0.03058  0.26379  1.0000
  C   C40       1.0  0.08412  0.01635  0.20592  1.0000
  H   H55       1.0  0.16187  0.03416  0.20297  1.0000
  H   H56       1.0  0.14820  0.08359  0.01441  1.0000
  H   H57       1.0  0.10995  0.06962  0.22974  1.0000
  H   H58       1.0  0.02580  0.29799  0.39492  1.0000
  H   H59       1.0  0.11043  0.98631  0.05509  1.0000
  N   N3        1.0  0.11066  0.03399  0.22889  1.0000
  C   C41       1.0  0.15791  0.30005  0.32013  1.0000
  C   C42       1.0  0.09254  0.05583  0.21382  1.0000
  H   H60       1.0  0.13171  0.98945  0.20677  1.0000
  H   H61       1.0  0.05175  0.16167  0.29774  1.0000
  H   H62       1.0  0.19633  0.04446  0.27890  1.0000
  H   H63       1.0  0.04165  0.09102  0.22919  1.0000
  C   C43       1.0  0.02808  0.16747  0.21311  1.0000
  C   C44       1.0  0.16509  0.24916  0.41158  1.0000
  C   C45       1.0  0.10073  0.99245  0.21450  1.0000
  H   H64       1.0  0.25377  0.02814  0.25632  1.0000
  H   H65       1.0  0.19082  0.25786  0.35377  1.0000
  H   H66       1.0  0.22347  0.27115  0.42817  1.0000
  H   H67       1.0  0.32174  0.19105  0.00206  1.0000
  C   C46       1.0  0.19557  0.26775  0.40498  1.0000
  C   C47       1.0  0.21729  0.26117  0.37779  1.0000
  H   H68       1.0  0.23868  0.24637  0.38551  1.0000
  C   C48       1.0  0.99980  0.20725  0.48919  1.0000
  N   N4        1.0  0.13643  0.25447  0.43438  1.0000
  C   C49       1.0  0.29332  0.19936  0.00819  1.0000
  H   H69       1.0  0.26694  0.18716  0.00891  1.0000
  C   C50       1.0  0.16540  0.26151  0.46880  1.0000
  H   H70       1.0  0.10852  0.98905  0.24179  1.0000
  H   H71       1.0  0.18888  0.23559  0.42207  1.0000
  H   H72       1.0  0.27184  0.12671  0.05675  1.0000
  H   H73       1.0  0.35182  0.30018  0.10041  1.0000
  H   H74       1.0  0.26671  0.14231  0.09208  1.0000
  H   H75       1.0  0.09492  0.06965  0.04285  1.0000
  H   H76       1.0  0.18373  0.06527  0.24648  1.0000
  H   H77       1.0  0.03845  0.26261  0.42675  1.0000
  C   C51       1.0  0.02754  0.02296  0.00976  1.0000
  H   H78       1.0  0.05065  0.01075  0.06169  1.0000
  C   C52       1.0  0.06413  0.27582  0.43408  1.0000
  C   C53       1.0  0.44924  0.16721  0.08764  1.0000
  C   C54       1.0  0.05373  0.15921  0.27247  1.0000
  H   H79       1.0  0.19830  0.25264  0.47544  1.0000
  H   H80       1.0  0.00449  0.11135  0.06978  1.0000
  H   H81       1.0  0.99875  0.01127  0.00588  1.0000
  H   H82       1.0  0.26457  0.05695  0.26428  1.0000
  C   C55       1.0  0.01490  0.05312  0.04733  1.0000
  H   H83       1.0  0.32954  0.22614  0.03869  1.0000
  H   H84       1.0  0.08362  0.98962  0.11236  1.0000
  H   H85       1.0  0.14934  0.25661  0.48852  1.0000
  H   H86       1.0  0.08660  0.22921  0.41362  1.0000
  C   C56       1.0  0.17566  0.28639  0.47433  1.0000
  C   C57       1.0  0.11229  0.19527  0.46173  1.0000
  H   H87       1.0  0.43043  0.19352  0.11492  1.0000
  H   H88       1.0  0.39565  0.20410  0.05744  1.0000
  H   H89       1.0  0.27743  0.21845  0.04587  1.0000
  H   H90       1.0  0.17290  0.01547  0.23724  1.0000
  C   C58       1.0  0.04057  0.05884  0.20632  1.0000
  H   H91       1.0  0.13745  0.06205  0.28615  1.0000
  C   C59       1.0  0.11233  0.04515  0.32225  1.0000
  H   H92       1.0  0.13433  0.18106  0.47216  1.0000
  H   H93       1.0  0.10042  0.05835  0.18957  1.0000
  C   C60       1.0  0.19359  0.04793  0.25220  1.0000
  C   C61       1.0  0.06497  0.01398  0.04060  1.0000
  C   C62       1.0  0.11202  0.08181  0.99983  1.0000
  H   H94       1.0  0.13216  0.01879  0.27802  1.0000
  N   N5        1.0  0.01187  0.04624  0.01188  1.0000
  H   H95       1.0  0.11278  0.06024  0.33720  1.0000
  H   H96       1.0  0.00651  0.17666  0.19235  1.0000
  C   C63       1.0  0.10847  0.05133  0.28590  1.0000
  H   H97       1.0  0.24076  0.04741  0.22185  1.0000
  H   H98       1.0  0.02647  0.03849  0.11407  1.0000
  C   C64       1.0  0.08967  0.06454  0.01643  1.0000
  H   H99       1.0  0.09671  0.20110  0.48110  1.0000
  C   C65       1.0  0.03878  0.06214  0.99741  1.0000
  H   H100      1.0  0.07311  0.02261  0.26258  1.0000
  H   H101      1.0  0.01225  0.29966  0.43420  1.0000
  C   C66       1.0  0.02635  0.12164  0.02755  1.0000
  H   H102      1.0  0.03900  0.09170  0.18524  1.0000
  H   H103      1.0  0.16382  0.28846  0.30231  1.0000
  H   H104      1.0  0.30583  0.15922  0.03665  1.0000
  Fe  Fe6       1.0  0.47433  0.21527  0.18566  1.0000
  C   C67       1.0  0.11983  0.29741  0.33190  1.0000
  C   C68       1.0  0.24097  0.04487  0.24834  1.0000
  H   H105      1.0  0.04952  0.05091  0.06460  1.0000
  H   H106      1.0  0.08301  0.03495  0.32344  1.0000
  C   C69       1.0  0.11757  0.98726  0.12865  1.0000
  H   H107      1.0  0.34953  0.29372  0.22806  1.0000
  H   H108      1.0  0.18818  0.29375  0.45442  1.0000
  H   H109      1.0  0.07742  0.27588  0.46190  1.0000
  H   H110      1.0  0.46699  0.17765  0.07358  1.0000
  H   H111      1.0  0.02308  0.05119  0.18171  1.0000
  H   H112      1.0  0.09340  0.02554  0.04996  1.0000
  H   H113      1.0  0.14293  0.24338  0.38681  1.0000
  C   C70       1.0  0.02704  0.08297  0.20446  1.0000
  H   H114      1.0  0.07737  0.06130  0.27637  1.0000
  H   H115      1.0  0.16854  0.21751  0.47464  1.0000
  H   H116      1.0  0.02772  0.05085  0.22569  1.0000
  C   C71       1.0  0.08461  0.99250  0.03233  1.0000
  C   C72       1.0  0.11094  0.23388  0.43812  1.0000
  H   H117      1.0  0.31704  0.29145  0.12620  1.0000
  H   H118      1.0  0.37732  0.28710  0.14056  1.0000
  C   C73       1.0  0.46022  0.22444  0.00195  1.0000
  H   H119      1.0  0.44423  0.20900  0.00435  1.0000
  H   H120      1.0  0.43382  0.15293  0.07195  1.0000
  H   H121      1.0  0.08987  0.23680  0.45534  1.0000
  C   C74       1.0  0.35035  0.29853  0.12667  1.0000
  H   H122      1.0  0.47454  0.16110  0.11071  1.0000
  H   H123      1.0  0.00732  0.19018  0.48643  1.0000
  C   C75       1.0  0.14030  0.21341  0.45204  1.0000
  H   H124      1.0  0.17645  0.28301  0.39649  1.0000
  H   H125      1.0  0.99640  0.24707  0.17806  1.0000
  H   H126      1.0  0.06425  0.31146  0.43074  1.0000
  C   C76       1.0  0.38278  0.30111  0.23612  1.0000
  H   H127      1.0  0.00887  0.07098  0.04810  1.0000
  H   H128      1.0  0.10762  0.04897  0.01565  1.0000
  H   H129      1.0  0.01015  0.25675  0.22076  1.0000
  C   C77       1.0  0.48162  0.23653  0.03109  1.0000
  H   H130      1.0  0.09542  0.09795  0.99929  1.0000
  H   H131      1.0  0.02332  0.07874  0.99553  1.0000
  H   H132      1.0  0.23893  0.27477  0.37352  1.0000
  C   C78       1.0  0.11253  0.31278  0.35469  1.0000
  H   H133      1.0  0.99497  0.06388  0.10616  1.0000
  H   H134      1.0  0.08314  0.31126  0.36362  1.0000
  S   S13       1.0  0.48208  0.22559  0.07099  1.0000
  H   H135      1.0  0.14464  0.29542  0.47463  1.0000
  C   C79       1.0  0.99485  0.11350  0.04280  1.0000
  S   S14       1.0  0.99535  0.21057  0.42207  1.0000
  H   H136      1.0  0.24375  0.28271  0.50859  1.0000
  Fe  Fe7       1.0  0.40083  0.22184  0.81386  1.0000
  S   S15       1.0  0.41451  0.25754  0.82558  1.0000
  S   S16       1.0  0.33031  0.20883  0.78300  1.0000
  H   H137      1.0  0.29750  0.22745  0.97668  1.0000
  Fe  Fe8       1.0  0.46372  0.24602  0.87455  1.0000
  H   H138      1.0  0.44739  0.17170  0.92151  1.0000
  S   S17       1.0  0.45740  0.21809  0.78977  1.0000
  S   S18       1.0  0.44709  0.21042  0.86437  1.0000
  Fe  Fe9       1.0  0.05454  0.23910  0.69231  1.0000
  S   S19       1.0  0.03514  0.21218  0.65367  1.0000
  S   S20       1.0  0.12532  0.24496  0.73062  1.0000
  H   H139      1.0  0.25695  0.26349  0.72353  1.0000
  H   H140      1.0  0.24689  0.29207  0.71774  1.0000
  H   H141      1.0  0.00397  0.20385  0.54197  1.0000
  H   H142      1.0  0.27236  0.28548  0.77389  1.0000
  C   C80       1.0  0.34132  0.26097  0.72747  1.0000
  H   H143      1.0  0.04987  0.09769  0.80032  1.0000
  C   C81       1.0  0.04406  0.11562  0.80056  1.0000
  H   H144      1.0  0.00761  0.11878  0.78812  1.0000
  C   C82       1.0  0.21114  0.29058  0.50801  1.0000
  C   C83       1.0  0.19139  0.26773  0.66607  1.0000
  C   C84       1.0  0.27418  0.21998  0.76784  1.0000
  C   C85       1.0  0.25811  0.23616  0.78525  1.0000
  C   C86       1.0  0.21285  0.24360  0.77329  1.0000
  C   C87       1.0  0.18251  0.23499  0.74383  1.0000
  C   C88       1.0  0.19863  0.21890  0.72625  1.0000
  C   C89       1.0  0.24389  0.21138  0.73831  1.0000
  H   H145      1.0  0.28020  0.24253  0.80852  1.0000
  H   H146      1.0  0.20101  0.25597  0.78730  1.0000
  H   H147      1.0  0.17618  0.21215  0.70343  1.0000
  H   H148      1.0  0.25551  0.19872  0.72468  1.0000
  H   H149      1.0  0.06342  0.12093  0.75595  1.0000
  H   H150      1.0  0.17369  0.26732  0.63870  1.0000
  H   H151      1.0  0.25736  0.26323  0.65999  1.0000
  S   S21       1.0  0.47593  0.27328  0.75696  1.0000
  H   H152      1.0  0.26053  0.20583  0.95535  1.0000
  H   H153      1.0  0.36787  0.21739  0.72721  1.0000
  H   H154      1.0  0.17280  0.27905  0.67823  1.0000
  H   H155      1.0  0.03005  0.15549  0.76653  1.0000
  H   H156      1.0  0.36631  0.21619  0.68369  1.0000
  H   H157      1.0  0.40600  0.23420  0.71191  1.0000
  H   H158      1.0  0.03706  0.13136  0.98058  1.0000
  S   S22       1.0  0.01401  0.26496  0.65697  1.0000
  H   H159      1.0  0.31487  0.31248  0.74755  1.0000
  H   H160      1.0  0.32327  0.26979  0.78902  1.0000
  H   H161      1.0  0.24263  0.22365  0.98350  1.0000
  C   C90       1.0  0.33597  0.24550  0.69717  1.0000
  C   C91       1.0  0.45900  0.23219  0.96968  1.0000
  H   H162      1.0  0.33094  0.25118  0.74649  1.0000
  H   H163      1.0  0.34017  0.25421  0.67492  1.0000
  H   H164      1.0  0.31735  0.28809  0.66919  1.0000
  H   H165      1.0  0.23928  0.29121  0.65889  1.0000
  H   H166      1.0  0.04466  0.19353  0.80547  1.0000
  C   C92       1.0  0.27222  0.21512  0.97927  1.0000
  N   N6        1.0  0.31541  0.28222  0.72044  1.0000
  C   C93       1.0  0.32456  0.30100  0.81250  1.0000
  C   C94       1.0  0.37126  0.22724  0.70562  1.0000
  N   N7        1.0  0.09729  0.16657  0.76860  1.0000
  C   C95       1.0  0.08201  0.19006  0.76834  1.0000
  C   C96       1.0  0.09178  0.15946  0.73287  1.0000
  C   C97       1.0  0.06561  0.15260  0.78168  1.0000
  C   C98       1.0  0.14527  0.16300  0.79057  1.0000
  C   C99       1.0  0.17891  0.18244  0.79415  1.0000
  C   C100      1.0  0.07771  0.19872  0.80236  1.0000
  C   C101      1.0  0.07328  0.12747  0.78196  1.0000
  C   C102      1.0  0.11919  0.17228  0.71325  1.0000
  C   C103      1.0  0.10823  0.16409  0.67705  1.0000
  C   C104      1.0  0.22758  0.17522  0.81105  1.0000
  C   C105      1.0  0.07991  0.22370  0.80415  1.0000
  H   H167      1.0  0.04836  0.19224  0.74937  1.0000
  H   H168      1.0  0.10464  0.20131  0.75978  1.0000
  H   H169      1.0  0.10208  0.14210  0.73210  1.0000
  H   H170      1.0  0.05530  0.16031  0.71796  1.0000
  H   H171      1.0  0.31226  0.29391  0.83285  1.0000
  H   H172      1.0  0.06752  0.15722  0.80792  1.0000
  H   H173      1.0  0.14565  0.15880  0.81674  1.0000
  H   H174      1.0  0.16024  0.14850  0.78161  1.0000
  H   H175      1.0  0.17087  0.19563  0.80978  1.0000
  H   H176      1.0  0.17772  0.18975  0.76970  1.0000
  H   H177      1.0  0.37608  0.30766  0.64890  1.0000
  H   H178      1.0  0.10472  0.19210  0.82395  1.0000
  H   H179      1.0  0.10916  0.12325  0.79443  1.0000
  H   H180      1.0  0.11835  0.14668  0.67651  1.0000
  H   H181      1.0  0.11140  0.19001  0.71214  1.0000
  H   H182      1.0  0.15595  0.16973  0.72487  1.0000
  H   H183      1.0  0.48854  0.30382  0.54300  1.0000
  H   H184      1.0  0.12701  0.17404  0.66313  1.0000
  C   C106      1.0  0.30984  0.28637  0.78143  1.0000
  H   H185      1.0  0.25044  0.18965  0.81490  1.0000
  H   H186      1.0  0.23068  0.16768  0.83594  1.0000
  H   H187      1.0  0.23876  0.16333  0.79493  1.0000
  H   H188      1.0  0.05236  0.23102  0.78361  1.0000
  C   C107      1.0  0.47921  0.25220  0.96605  1.0000
  C   C108      1.0  0.01307  0.12480  0.99255  1.0000
  H   H189      1.0  0.44193  0.22283  0.94756  1.0000
  H   H190      1.0  0.47664  0.14676  0.93920  1.0000
  H   H191      1.0  0.11002  0.07696  0.97372  1.0000
  S   S23       1.0  0.47814  0.26294  0.92588  1.0000
  Fe  Fe10      1.0  0.47177  0.25362  0.80273  1.0000
  C   C109      1.0  0.24032  0.27525  0.67199  1.0000
  H   H192      1.0  0.30211  0.23761  0.69063  1.0000
  C   C110      1.0  0.32761  0.29537  0.75266  1.0000
  H   H193      1.0  0.03744  0.05748  0.97131  1.0000
  H   H194      1.0  0.19040  0.25101  0.67631  1.0000
  H   H195      1.0  0.37799  0.26417  0.73931  1.0000
  C   C111      1.0  0.26481  0.27809  0.71005  1.0000
  H   H196      1.0  0.39820  0.28494  0.70060  1.0000
  H   H197      1.0  0.07145  0.16562  0.66403  1.0000
  H   H198      1.0  0.05255  0.12112  0.82712  1.0000
  C   C112      1.0  0.32844  0.29584  0.69431  1.0000
  H   H199      1.0  0.36501  0.29665  0.76341  1.0000
  H   H200      1.0  0.07597  0.22928  0.82852  1.0000
  H   H201      1.0  0.19941  0.28414  0.52905  1.0000
  H   H202      1.0  0.11298  0.22971  0.80206  1.0000
  H   H203      1.0  0.03949  0.02102  0.98711  1.0000
  C   C113      1.0  0.99797  0.21495  0.52083  1.0000
  C   C114      1.0  0.37975  0.30045  0.70106  1.0000
  C   C115      1.0  0.38841  0.31541  0.67407  1.0000
  H   H204      1.0  0.36205  0.30216  0.82177  1.0000
  H   H205      1.0  0.21701  0.30848  0.51165  1.0000
  H   H206      1.0  0.46702  0.15306  0.89531  1.0000
  S   S24       1.0  0.99586  0.23263  0.71323  1.0000
  H   H207      1.0  0.31040  0.31186  0.69118  1.0000
  H   H208      1.0  0.39466  0.30858  0.72559  1.0000
  C   C116      1.0  0.47503  0.16023  0.92091  1.0000
  H   H209      1.0  0.46671  0.29587  0.49964  1.0000
  Fe  Fe11      1.0  0.34423  0.35548  0.31038  1.0000
  S   S25       1.0  0.34545  0.34320  0.36178  1.0000
  S   S26       1.0  0.34383  0.33055  0.26919  1.0000
  Fe  Fe12      1.0  0.32661  0.40396  0.32798  1.0000
  S   S27       1.0  0.32590  0.39423  0.37996  1.0000
  S   S28       1.0  0.31945  0.43895  0.30543  1.0000
  Fe  Fe13      1.0  0.38662  0.37352  0.38118  1.0000
  S   S29       1.0  0.45540  0.37693  0.42037  1.0000
  Fe  Fe14      1.0  0.28425  0.36465  0.35568  1.0000
  S   S30       1.0  0.21964  0.35507  0.36950  1.0000
  S   S31       1.0  0.38920  0.38440  0.32989  1.0000
  S   S32       1.0  0.28110  0.37578  0.30350  1.0000
  Fe  Fe15      1.0  0.37878  0.61201  0.36066  1.0000
  S   S33       1.0  0.37425  0.58806  0.31882  1.0000
  S   S34       1.0  0.44721  0.62063  0.39707  1.0000
  Fe  Fe16      1.0  0.27670  0.62319  0.33653  1.0000
  S   S35       1.0  0.26470  0.59926  0.29349  1.0000
  Fe  Fe17      1.0  0.31131  0.57557  0.33005  1.0000
  S   S36       1.0  0.30173  0.53982  0.34597  1.0000
  Fe  Fe18      1.0  0.32913  0.61336  0.28568  1.0000
  S   S37       1.0  0.33160  0.62655  0.23463  1.0000
  S   S38       1.0  0.31851  0.59883  0.37375  1.0000
  S   S39       1.0  0.33835  0.63792  0.32671  1.0000
  C   C117      1.0  0.31638  0.46691  0.31800  1.0000
  C   C118      1.0  0.30981  0.47272  0.34881  1.0000
  C   C119      1.0  0.30508  0.49498  0.35661  1.0000
  C   C120      1.0  0.30827  0.51197  0.33436  1.0000
  C   C121      1.0  0.31578  0.50620  0.30386  1.0000
  C   C122      1.0  0.31926  0.48389  0.29566  1.0000
  H   H210      1.0  0.30812  0.46010  0.36660  1.0000
  H   H211      1.0  0.29901  0.49910  0.38019  1.0000
  H   H212      1.0  0.31812  0.51891  0.28629  1.0000
  H   H213      1.0  0.32426  0.47976  0.27172  1.0000
  H   H214      1.0  0.39405  0.60363  0.43896  1.0000
  H   H215      1.0  0.21860  0.46568  0.25750  1.0000
  C   C123      1.0  0.39636  0.38144  0.20235  1.0000
  C   C124      1.0  0.36898  0.38412  0.22736  1.0000
  H   H216      1.0  0.39816  0.34610  0.20622  1.0000
  H   H217      1.0  0.47229  0.34573  0.20176  1.0000
  H   H218      1.0  0.43236  0.38399  0.21665  1.0000
  H   H219      1.0  0.37398  0.40084  0.23828  1.0000
  C   C125      1.0  0.37279  0.64473  0.22699  1.0000
  C   C126      1.0  0.31156  0.64527  0.44088  1.0000
  H   H220      1.0  0.25438  0.43256  0.35852  1.0000
  H   H221      1.0  0.24374  0.44223  0.24338  1.0000
  H   H222      1.0  0.19532  0.45550  0.21534  1.0000
  H   H223      1.0  0.38267  0.54172  0.40149  1.0000
  C   C127      1.0  0.21135  0.45062  0.24187  1.0000
  H   H224      1.0  0.21350  0.44410  0.30480  1.0000
  H   H225      1.0  0.23071  0.41849  0.29274  1.0000
  H   H226      1.0  0.22201  0.39829  0.34146  1.0000
  C   C128      1.0  0.40680  0.54780  0.42518  1.0000
  C   C129      1.0  0.22210  0.42978  0.36456  1.0000
  C   C130      1.0  0.38478  0.54483  0.45402  1.0000
  C   C131      1.0  0.20031  0.42872  0.29106  1.0000
  C   C132      1.0  0.17975  0.43530  0.25360  1.0000
  H   H227      1.0  0.14690  0.44382  0.24950  1.0000
  C   C133      1.0  0.19619  0.41076  0.34248  1.0000
  H   H228      1.0  0.18248  0.38643  0.28630  1.0000
  H   H229      1.0  0.14040  0.44948  0.30792  1.0000
  H   H230      1.0  0.17453  0.42062  0.23724  1.0000
  N   N8        1.0  0.16885  0.41704  0.30734  1.0000
  C   C134      1.0  0.15276  0.39641  0.28742  1.0000
  H   H231      1.0  0.40862  0.56572  0.42121  1.0000
  H   H232      1.0  0.20263  0.44529  0.35976  1.0000
  H   H233      1.0  0.13395  0.40040  0.26098  1.0000
  H   H234      1.0  0.17505  0.40248  0.35627  1.0000
  C   C135      1.0  0.12055  0.38130  0.29978  1.0000
  C   C136      1.0  0.06323  0.44224  0.32810  1.0000
  C   C137      1.0  0.12964  0.43198  0.30672  1.0000
  H   H235      1.0  0.10281  0.43038  0.28224  1.0000
  C   C138      1.0  0.10703  0.42906  0.33530  1.0000
  H   H236      1.0  0.08724  0.38937  0.29570  1.0000
  H   H237      1.0  0.09540  0.36300  0.25294  1.0000
  H   H238      1.0  0.09892  0.41178  0.33898  1.0000
  C   C139      1.0  0.23346  0.42444  0.40202  1.0000
  H   H239      1.0  0.12991  0.43502  0.35950  1.0000
  H   H240      1.0  0.40696  0.35386  0.46119  1.0000
  C   C140      1.0  0.18190  0.33265  0.35454  1.0000
  H   H241      1.0  0.13745  0.34195  0.38363  1.0000
  C   C141      1.0  0.14342  0.33022  0.36596  1.0000
  H   H242      1.0  0.45106  0.46858  0.42743  1.0000
  H   H243      1.0  0.08974  0.34907  0.28982  1.0000
  C   C142      1.0  0.33772  0.55513  0.44482  1.0000
  H   H244      1.0  0.42284  0.63972  0.27459  1.0000
  C   C143      1.0  0.42874  0.60533  0.45424  1.0000
  H   H245      1.0  0.14441  0.35106  0.28288  1.0000
  H   H246      1.0  0.20204  0.42336  0.40978  1.0000
  C   C144      1.0  0.11205  0.35984  0.28003  1.0000
  H   H247      1.0  0.13451  0.37693  0.32664  1.0000
  C   C145      1.0  0.18335  0.62020  0.40959  1.0000
  H   H248      1.0  0.25527  0.43755  0.41685  1.0000
  H   H249      1.0  0.17045  0.60610  0.42101  1.0000
  H   H250      1.0  0.25179  0.40862  0.40773  1.0000
  H   H251      1.0  0.17340  0.61815  0.38184  1.0000
  C   C146      1.0  0.41497  0.64805  0.25061  1.0000
  H   H252      1.0  0.30848  0.39212  0.07204  1.0000
  H   H253      1.0  0.47226  0.41326  0.47785  1.0000
  C   C147      1.0  0.46809  0.32054  0.25541  1.0000
  H   H254      1.0  0.03211  0.63476  0.35915  1.0000
  H   H255      1.0  0.39945  0.43182  0.45126  1.0000
  H   H256      1.0  0.38068  0.50563  0.41279  1.0000
  H   H257      1.0  0.35162  0.35656  0.17486  1.0000
  H   H258      1.0  0.33015  0.37491  0.12798  1.0000
  C   C148      1.0  0.38869  0.35847  0.18575  1.0000
  H   H259      1.0  0.38567  0.39452  0.18315  1.0000
  H   H260      1.0  0.22086  0.62022  0.41893  1.0000
  N   N9        1.0  0.41360  0.35368  0.16024  1.0000
  C   C149      1.0  0.44100  0.59959  0.48845  1.0000
  H   H261      1.0  0.15195  0.63160  0.30363  1.0000
  N   N10       1.0  0.45276  0.53752  0.43069  1.0000
  H   H262      1.0  0.47343  0.37261  0.18563  1.0000
  C   C150      1.0  0.46373  0.35543  0.17806  1.0000
  C   C151      1.0  0.48607  0.54901  0.45960  1.0000
  H   H263      1.0  0.10696  0.64375  0.37654  1.0000
  H   H264      1.0  0.33982  0.57301  0.44067  1.0000
  H   H265      1.0  0.30835  0.62715  0.44015  1.0000
  H   H266      1.0  0.36521  0.38912  0.06909  1.0000
  C   C152      1.0  0.34473  0.39127  0.08683  1.0000
  C   C153      1.0  0.46602  0.53974  0.39866  1.0000
  C   C154      1.0  0.47141  0.36784  0.46253  1.0000
  H   H267      1.0  0.33229  0.38164  0.21487  1.0000
  C   C155      1.0  0.44105  0.35731  0.47660  1.0000
  H   H268      1.0  0.31527  0.54750  0.42168  1.0000
  H   H269      1.0  0.37781  0.42267  0.48519  1.0000
  H   H270      1.0  0.38087  0.52730  0.45951  1.0000
  H   H271      1.0  0.42751  0.31882  0.16417  1.0000
  C   C156      1.0  0.46134  0.61334  0.43997  1.0000
  H   H272      1.0  0.41067  0.47437  0.45043  1.0000
  C   C157      1.0  0.45203  0.51352  0.43915  1.0000
  H   H273      1.0  0.35415  0.40698  0.10053  1.0000
  H   H274      1.0  0.48423  0.56704  0.45579  1.0000
  C   C158      1.0  0.35629  0.32085  0.14399  1.0000
  H   H275      1.0  0.38039  0.37215  0.24826  1.0000
  C   C159      1.0  0.47520  0.56339  0.38862  1.0000
  H   H276      1.0  0.44030  0.34212  0.28568  1.0000
  H   H277      1.0  0.44862  0.51131  0.46488  1.0000
  H   H278      1.0  0.06993  0.45991  0.32523  1.0000
  C   C160      1.0  0.41738  0.47568  0.42569  1.0000
  H   H279      1.0  0.38219  0.64503  0.44587  1.0000
  H   H280      1.0  0.42053  0.36579  0.11313  1.0000
  C   C161      1.0  0.41499  0.49958  0.41436  1.0000
  H   H281      1.0  0.39135  0.46598  0.40709  1.0000
  H   H282      1.0  0.03812  0.43625  0.30484  1.0000
  H   H283      1.0  0.34086  0.35707  0.09641  1.0000
  H   H284      1.0  0.32867  0.33165  0.12976  1.0000
  H   H285      1.0  0.21803  0.31907  0.32222  1.0000
  H   H286      1.0  0.47704  0.54638  0.48332  1.0000
  H   H287      1.0  0.40537  0.55286  0.47737  1.0000
  H   H288      1.0  0.09834  0.62673  0.40899  1.0000
  C   C162      1.0  0.40248  0.37002  0.13181  1.0000
  C   C163      1.0  0.40391  0.33049  0.14716  1.0000
  S   S40       1.0  0.23372  0.64943  0.35273  1.0000
  H   H289      1.0  0.44439  0.57355  0.38432  1.0000
  H   H290      1.0  0.46145  0.55620  0.33520  1.0000
  H   H291      1.0  0.49004  0.33053  0.14974  1.0000
  H   H292      1.0  0.34607  0.64454  0.40313  1.0000
  H   H293      1.0  0.41910  0.49990  0.38874  1.0000
  H   H294      1.0  0.32244  0.55257  0.46561  1.0000
  H   H295      1.0  0.17661  0.64343  0.44646  1.0000
  C   C164      1.0  0.43379  0.32834  0.26863  1.0000
  C   C165      1.0  0.35203  0.37209  0.11152  1.0000
  H   H296      1.0  0.00967  0.63462  0.39442  1.0000
  H   H297      1.0  0.13322  0.63681  0.47824  1.0000
  C   C166      1.0  0.39051  0.31902  0.25832  1.0000
  C   C167      1.0  0.01533  0.64494  0.37411  1.0000
  C   C168      1.0  0.48862  0.56356  0.35606  1.0000
  C   C169      1.0  0.16497  0.64176  0.41886  1.0000
  H   H298      1.0  0.41534  0.38655  0.14118  1.0000
  C   C170      1.0  0.40176  0.41896  0.47057  1.0000
  H   H299      1.0  0.43872  0.53314  0.37703  1.0000
  H   H300      1.0  0.39171  0.40311  0.45739  1.0000
  H   H301      1.0  0.41065  0.32882  0.12239  1.0000
  H   H302      1.0  0.04848  0.44036  0.34933  1.0000
  C   C171      1.0  0.11264  0.64277  0.40429  1.0000
  H   H303      1.0  0.35204  0.31834  0.16935  1.0000
  H   H304      1.0  0.48491  0.50580  0.43997  1.0000
  H   H305      1.0  0.07330  0.64597  0.28303  1.0000
  H   H306      1.0  0.05633  0.63998  0.44363  1.0000
  C   C172      1.0  0.14397  0.64753  0.31168  1.0000
  C   C173      1.0  0.18883  0.31743  0.33143  1.0000
  H   H307      1.0  0.46867  0.45081  0.49320  1.0000
  H   H308      1.0  0.49246  0.35821  0.13536  1.0000
  H   H309      1.0  0.45111  0.40329  0.51114  1.0000
  C   C174      1.0  0.45485  0.35132  0.51079  1.0000
  H   H310      1.0  0.43128  0.34307  0.52152  1.0000
  C   C175      1.0  0.46957  0.40653  0.60890  1.0000
  C   C176      1.0  0.46605  0.43891  0.51279  1.0000
  H   H311      1.0  0.43876  0.44539  0.52264  1.0000
  H   H312      1.0  0.07349  0.63665  0.50745  1.0000
  H   H313      1.0  0.43463  0.41745  0.55929  1.0000
  H   H314      1.0  0.41559  0.59337  0.49932  1.0000
  H   H315      1.0  0.37141  0.33145  0.67372  1.0000
  H   H316      1.0  0.31013  0.31768  0.80665  1.0000
  H   H317      1.0  0.47525  0.38950  0.60168  1.0000
  C   C177      1.0  0.46541  0.42221  0.57952  1.0000
  H   H318      1.0  0.43797  0.40685  0.61649  1.0000
  H   H319      1.0  0.46034  0.43888  0.58822  1.0000
  H   H320      1.0  0.49305  0.46486  0.56775  1.0000
  C   C178      1.0  0.48592  0.60182  0.50869  1.0000
  H   H321      1.0  0.49184  0.48358  0.51649  1.0000
  H   H322      1.0  0.12629  0.64770  0.53329  1.0000
  H   H323      1.0  0.42536  0.31838  0.67962  1.0000
  C   C179      1.0  0.45010  0.41719  0.49378  1.0000
  S   S41       1.0  0.42337  0.79102  0.18143  1.0000
  S   S42       1.0  0.43158  0.73692  0.13147  1.0000
  S   S43       1.0  0.03393  0.74037  0.35042  1.0000
  S   S44       1.0  0.03033  0.68532  0.29667  1.0000
  Fe  Fe19      1.0  0.18939  0.85889  0.12830  1.0000
  S   S45       1.0  0.20519  0.87139  0.18099  1.0000
  S   S46       1.0  0.23999  0.84139  0.10633  1.0000
  Fe  Fe20      1.0  0.09026  0.87419  0.11217  1.0000
  S   S47       1.0  0.10050  0.88738  0.16455  1.0000
  S   S48       1.0  0.01818  0.87709  0.07791  1.0000
  Fe  Fe21      1.0  0.16515  0.90160  0.15834  1.0000
  S   S49       1.0  0.19710  0.93550  0.17417  1.0000
  Fe  Fe22      1.0  0.13899  0.85606  0.18188  1.0000
  S   S50       1.0  0.13883  0.82956  0.22098  1.0000
  S   S51       1.0  0.15281  0.88982  0.10522  1.0000
  S   S52       1.0  0.12505  0.84229  0.12979  1.0000
  C   C180      1.0  0.17637  0.96226  0.16009  1.0000
  H   H324      1.0  0.11089  0.95189  0.12932  1.0000
  C   C181      1.0  0.03700  0.80624  0.27618  1.0000
  C   C182      1.0  0.06537  0.79137  0.26665  1.0000
  C   C183      1.0  0.09558  0.79873  0.24916  1.0000
  C   C184      1.0  0.09733  0.82094  0.24044  1.0000
  C   C185      1.0  0.06824  0.83573  0.24930  1.0000
  C   C186      1.0  0.03838  0.82841  0.26711  1.0000
  H   H325      1.0  0.06482  0.77429  0.27347  1.0000
  H   H326      1.0  0.11820  0.78716  0.24275  1.0000
  H   H327      1.0  0.06989  0.85293  0.24356  1.0000
  C   C187      1.0  0.38262  0.92812  0.20512  1.0000
  H   H328      1.0  0.06959  0.86336  0.03254  1.0000
  C   C188      1.0  0.08780  0.67627  0.31062  1.0000
  H   H329      1.0  0.29403  0.87682  0.17530  1.0000
  C   C189      1.0  0.12194  0.68870  0.33247  1.0000
  C   C190      1.0  0.32127  0.88823  0.18884  1.0000
  H   H330      1.0  0.11391  0.70464  0.34046  1.0000
  C   C191      1.0  0.37150  0.80413  0.15986  1.0000
  C   C192      1.0  0.35231  0.80259  0.12505  1.0000
  C   C193      1.0  0.31159  0.81370  0.10914  1.0000
  C   C194      1.0  0.28896  0.82604  0.12783  1.0000
  C   C195      1.0  0.30752  0.82705  0.16272  1.0000
  C   C196      1.0  0.34892  0.81653  0.17850  1.0000
  H   H331      1.0  0.36925  0.79318  0.11029  1.0000
  H   H332      1.0  0.29774  0.81287  0.08210  1.0000
  H   H333      1.0  0.29034  0.83628  0.17742  1.0000
  H   H334      1.0  0.36348  0.81790  0.20541  1.0000
  C   C197      1.0  0.43840  0.67223  0.21141  1.0000
  H   H335      1.0  0.34141  0.70004  0.23688  1.0000
  N   N11       1.0  0.39675  0.68606  0.41865  1.0000
  C   C198      1.0  0.39580  0.67785  0.38420  1.0000
  H   H336      1.0  0.37598  0.71662  0.39185  1.0000
  H   H337      1.0  0.39807  0.74708  0.20253  1.0000
  C   C199      1.0  0.37714  0.73625  0.21374  1.0000
  C   C200      1.0  0.34929  0.87592  0.22088  1.0000
  H   H338      1.0  0.29075  0.71338  0.14470  1.0000
  C   C201      1.0  0.27697  0.77652  0.20354  1.0000
  C   C202      1.0  0.31690  0.72536  0.14276  1.0000
  C   C203      1.0  0.30676  0.73124  0.10553  1.0000
  H   H339      1.0  0.27944  0.75184  0.15409  1.0000
  H   H340      1.0  0.33648  0.75886  0.15732  1.0000
  H   H341      1.0  0.27309  0.78368  0.17827  1.0000
  H   H342      1.0  0.30959  0.71636  0.09096  1.0000
  H   H343      1.0  0.27194  0.73787  0.09563  1.0000
  H   H344      1.0  0.33119  0.74364  0.10173  1.0000
  H   H345      1.0  0.24881  0.76482  0.20159  1.0000
  C   C204      1.0  0.03418  0.86443  0.01844  1.0000
  C   C205      1.0  0.09258  0.78593  0.14685  1.0000
  C   C206      1.0  0.17785  0.65975  0.33423  1.0000
  H   H346      1.0  0.29976  0.80728  0.22983  1.0000
  H   H347      1.0  0.34973  0.77661  0.21266  1.0000
  H   H348      1.0  0.33729  0.72056  0.43364  1.0000
  H   H349      1.0  0.26214  0.72797  0.19355  1.0000
  C   C207      1.0  0.31486  0.74593  0.16387  1.0000
  H   H350      1.0  0.40708  0.91472  0.16616  1.0000
  C   C208      1.0  0.27598  0.90119  0.11418  1.0000
  H   H351      1.0  0.36410  0.94135  0.18835  1.0000
  H   H352      1.0  0.45861  0.72582  0.29080  1.0000
  C   C209      1.0  0.37461  0.72294  0.44182  1.0000
  H   H353      1.0  0.35063  0.71749  0.15077  1.0000
  H   H354      1.0  0.30348  0.92453  0.15338  1.0000
  C   C210      1.0  0.12660  0.72246  0.43366  1.0000
  C   C211      1.0  0.31731  0.91166  0.14017  1.0000
  H   H355      1.0  0.33725  0.92074  0.12607  1.0000
  H   H356      1.0  0.26509  0.69306  0.24402  1.0000
  C   C212      1.0  0.39590  0.71085  0.41734  1.0000
  H   H357      1.0  0.28679  0.88968  0.09740  1.0000
  H   H358      1.0  0.23925  0.80380  0.21533  1.0000
  C   C213      1.0  0.29671  0.72701  0.21162  1.0000
  N   N12       1.0  0.32802  0.74299  0.20155  1.0000
  C   C214      1.0  0.31095  0.70252  0.21512  1.0000
  H   H359      1.0  0.24251  0.68904  0.19903  1.0000
  H   H360      1.0  0.31899  0.69644  0.19257  1.0000
  C   C215      1.0  0.27341  0.68807  0.22085  1.0000
  C   C216      1.0  0.32379  0.76510  0.21670  1.0000
  H   H361      1.0  0.11614  0.79443  0.16859  1.0000
  H   H362      1.0  0.38233  0.71962  0.20485  1.0000
  H   H363      1.0  0.09664  0.79282  0.12316  1.0000
  H   H364      1.0  0.10184  0.76832  0.14823  1.0000
  H   H365      1.0  0.05225  0.82003  0.17068  1.0000
  H   H366      1.0  0.28479  0.67075  0.22387  1.0000
  H   H367      1.0  0.29216  0.73157  0.23636  1.0000
  H   H368      1.0  0.04012  0.82132  0.12669  1.0000
  H   H369      1.0  0.25462  0.89209  0.12693  1.0000
  C   C217      1.0  0.38962  0.90818  0.18407  1.0000
  C   C218      1.0  0.27190  0.79522  0.22657  1.0000
  H   H370      1.0  0.33109  0.76368  0.24444  1.0000
  H   H371      1.0  0.27192  0.78878  0.25156  1.0000
  H   H372      1.0  0.37518  0.73086  0.26596  1.0000
  H   H373      1.0  0.36255  0.68171  0.36561  1.0000
  C   C219      1.0  0.39880  0.73705  0.25241  1.0000
  H   H374      1.0  0.30320  0.90199  0.19692  1.0000
  N   N13       1.0  0.34715  0.89617  0.16536  1.0000
  H   H375      1.0  0.32951  0.86646  0.13635  1.0000
  H   H376      1.0  0.38258  0.86539  0.16704  1.0000
  C   C220      1.0  0.35996  0.87648  0.14831  1.0000
  C   C221      1.0  0.38457  0.88121  0.12146  1.0000
  H   H377      1.0  0.41439  0.89673  0.20058  1.0000
  H   H378      1.0  0.36577  0.89313  0.10237  1.0000
  H   H379      1.0  0.37572  0.88664  0.23707  1.0000
  C   C222      1.0  0.38982  0.86019  0.10303  1.0000
  H   H380      1.0  0.41900  0.88778  0.13347  1.0000
  H   H381      1.0  0.36605  0.86128  0.21432  1.0000
  C   C223      1.0  0.13290  0.96576  0.13835  1.0000
  C   C224      1.0  0.16645  0.68039  0.34444  1.0000
  H   H382      1.0  0.38823  0.67737  0.16388  1.0000
  C   C225      1.0  0.42798  0.93753  0.22589  1.0000
  H   H383      1.0  0.12539  0.68536  0.39653  1.0000
  C   C226      1.0  0.99704  0.85497  0.17418  1.0000
  H   H384      1.0  0.15738  0.71945  0.45498  1.0000
  H   H385      1.0  0.05245  0.66800  0.45221  1.0000
  C   C227      1.0  0.39576  0.66947  0.18817  1.0000
  Fe  Fe23      1.0  0.99656  0.71485  0.31389  1.0000
  S   S53       1.0  0.48233  0.68764  0.20211  1.0000
  H   H386      1.0  0.23171  0.92968  0.10721  1.0000
  H   H387      1.0  0.36695  0.75585  0.45900  1.0000
  Fe  Fe24      1.0  0.48516  0.71695  0.16811  1.0000
  H   H388      1.0  0.44847  0.94283  0.20930  1.0000
  H   H389      1.0  0.46986  0.68553  0.43851  1.0000
  H   H390      1.0  0.42053  0.75096  0.45127  1.0000
  H   H391      1.0  0.31710  0.65076  0.46721  1.0000
  Fe  Fe25      1.0  0.48258  0.74161  0.10213  1.0000
  H   H392      1.0  0.02240  0.67701  0.39712  1.0000
  H   H393      1.0  0.13956  0.66614  0.48444  1.0000
  H   H394      1.0  0.43442  0.70594  0.25871  1.0000
  C   C228      1.0  0.31929  0.86823  0.24215  1.0000
  H   H395      1.0  0.03434  0.85358  0.18036  1.0000
  H   H396      1.0  0.14935  0.67996  0.43947  1.0000
  C   C229      1.0  0.04373  0.78838  0.14773  1.0000
  H   H397      1.0  0.32396  0.68308  0.40646  1.0000
  H   H398      1.0  0.44722  0.92515  0.24408  1.0000
  C   C230      1.0  0.04446  0.66553  0.38824  1.0000
  H   H399      1.0  0.08448  0.70080  0.45209  1.0000
  Fe  Fe26      1.0  0.46475  0.76614  0.16124  1.0000
  H   H400      1.0  0.04138  0.78042  0.17118  1.0000
  H   H401      1.0  0.21861  0.91081  0.07243  1.0000
  H   H402      1.0  0.30125  0.88230  0.24925  1.0000
  C   C231      1.0  0.03009  0.81286  0.14712  1.0000
  H   H403      1.0  0.26684  0.92865  0.07909  1.0000
  H   H404      1.0  0.19224  0.69004  0.36181  1.0000
  H   H405      1.0  0.40879  0.86369  0.08467  1.0000
  H   H406      1.0  0.48072  0.66326  0.26071  1.0000
  H   H407      1.0  0.36308  0.92370  0.22270  1.0000
  H   H408      1.0  0.06401  0.70728  0.40778  1.0000
  H   H409      1.0  0.40764  0.75427  0.26034  1.0000
  H   H410      1.0  0.42207  0.95199  0.24021  1.0000
  C   C232      1.0  0.43366  0.68657  0.36975  1.0000
  C   C233      1.0  0.20425  0.98063  0.17165  1.0000
  H   H411      1.0  0.07953  0.95905  0.20042  1.0000
  H   H412      1.0  0.23794  0.97821  0.18844  1.0000
  H   H413      1.0  0.43075  0.71739  0.42120  1.0000
  H   H414      1.0  0.46630  0.72882  0.24966  1.0000
  H   H415      1.0  0.13648  0.72561  0.41043  1.0000
  H   H416      1.0  0.40866  0.84760  0.12106  1.0000
  H   H417      1.0  0.39460  0.68221  0.31705  1.0000
  H   H418      1.0  0.05770  0.97994  0.02404  1.0000
  C   C234      1.0  0.24663  0.91874  0.09194  1.0000
  S   S54       1.0  0.45725  0.74682  0.04460  1.0000
  C   C235      1.0  0.38362  0.74757  0.44203  1.0000
  C   C236      1.0  0.09927  0.65572  0.30010  1.0000
  H   H419      1.0  0.41471  0.67721  0.48833  1.0000
  H   H420      1.0  0.45488  0.68439  0.32438  1.0000
  H   H421      1.0  0.44416  0.66006  0.43988  1.0000
  C   C237      1.0  0.11642  0.68194  0.41999  1.0000
  C   C238      1.0  0.35485  0.67732  0.42607  1.0000
  H   H422      1.0  0.34045  0.86032  0.26549  1.0000
  H   H423      1.0  0.39874  0.65977  0.38436  1.0000
  H   H424      1.0  0.10933  0.73729  0.43927  1.0000
  H   H425      1.0  0.01678  0.84009  0.27448  1.0000
  C   C239      1.0  0.44223  0.72358  0.26348  1.0000
  H   H426      1.0  0.35608  0.85349  0.08916  1.0000
  C   C240      1.0  0.44776  0.66141  0.24262  1.0000
  C   C241      1.0  0.47021  0.73794  0.00753  1.0000
  C   C242      1.0  0.09430  0.70295  0.42867  1.0000
  H   H427      1.0  0.29408  0.85605  0.22824  1.0000
  C   C243      1.0  0.00234  0.87058  0.03468  1.0000
  H   H428      1.0  0.35152  0.68382  0.45006  1.0000
  H   H429      1.0  0.43313  0.70470  0.36800  1.0000
  H   H430      1.0  0.46750  0.68133  0.38565  1.0000
  C   C244      1.0  0.42806  0.67761  0.33444  1.0000
  H   H431      1.0  0.02191  0.77931  0.12595  1.0000
  C   C245      1.0  0.43976  0.67788  0.44346  1.0000
  H   H432      1.0  0.43123  0.65947  0.33517  1.0000
  H   H433      1.0  0.36977  0.75454  0.41638  1.0000
  H   H434      1.0  0.38772  0.71690  0.46791  1.0000
  H   H435      1.0  0.99849  0.92025  0.02010  1.0000
  H   H436      1.0  0.00366  0.88849  0.19209  1.0000
  H   H437      1.0  0.05145  0.67388  0.36648  1.0000
  H   H438      1.0  0.18069  0.65523  0.40811  1.0000
  S   S55       1.0  0.00001  0.79822  0.29995  1.0000
  H   H439      1.0  0.99608  0.81271  0.19794  1.0000
  H   H440      1.0  0.02357  0.95235  0.05747  1.0000
  N   N14       1.0  0.08823  0.66135  0.41564  1.0000
  C   C246      1.0  0.11529  0.65232  0.47970  1.0000
  C   C247      1.0  0.36348  0.65553  0.19576  1.0000
  C   C248      1.0  0.44514  0.68207  0.48111  1.0000
  H   H441      1.0  0.45247  0.69965  0.48689  1.0000
  H   H442      1.0  0.03470  0.97668  0.20456  1.0000
  C   C249      1.0  0.06528  0.97585  0.19573  1.0000
  H   H443      1.0  0.05550  0.97898  0.16825  1.0000
  C   C250      1.0  0.07588  0.65551  0.44715  1.0000
  H   H444      1.0  0.00078  0.93082  0.07733  1.0000
  H   H445      1.0  0.33114  0.65294  0.17719  1.0000
  H   H446      1.0  0.27950  0.65239  0.42479  1.0000
  C   C251      1.0  0.35135  0.65205  0.42822  1.0000
  H   H447      1.0  0.99501  0.80522  0.07988  1.0000
  H   H448      1.0  0.99501  0.88595  0.14749  1.0000
  C   C252      1.0  0.23007  0.69832  0.83615  1.0000
  S   S56       1.0  0.45159  0.75245  0.76628  1.0000
  H   H449      1.0  0.22174  0.77221  0.63564  1.0000
  S   S57       1.0  0.44358  0.76032  0.84105  1.0000
  C   C253      1.0  0.27213  0.74830  0.65794  1.0000
  Fe  Fe27      1.0  0.40023  0.74429  0.79343  1.0000
  S   S58       1.0  0.32489  0.75502  0.77411  1.0000
  H   H450      1.0  0.30050  0.75965  0.65859  1.0000
  S   S59       1.0  0.42951  0.71070  0.80857  1.0000
  Fe  Fe28      1.0  0.04923  0.72578  0.68496  1.0000
  C   C254      1.0  0.09759  0.65055  0.51034  1.0000
  S   S60       1.0  0.12488  0.71583  0.70660  1.0000
  H   H451      1.0  0.15076  0.70161  0.63197  1.0000
  H   H452      1.0  0.26573  0.74887  0.68286  1.0000
  C   C255      1.0  0.44997  0.74883  0.97692  1.0000
  C   C256      1.0  0.34729  0.77698  0.86958  1.0000
  C   C257      1.0  0.11619  0.70711  0.61803  1.0000
  C   C258      1.0  0.22985  0.75526  0.63024  1.0000
  H   H453      1.0  0.42789  0.76260  0.97666  1.0000
  H   H454      1.0  0.18995  0.73443  0.65349  1.0000
  H   H455      1.0  0.27285  0.72221  0.90236  1.0000
  H   H456      1.0  0.28678  0.76143  0.84010  1.0000
  C   C259      1.0  0.26981  0.74374  0.75444  1.0000
  C   C260      1.0  0.26272  0.72158  0.74580  1.0000
  C   C261      1.0  0.21835  0.71349  0.73105  1.0000
  C   C262      1.0  0.18022  0.72732  0.72454  1.0000
  C   C263      1.0  0.18735  0.74950  0.73296  1.0000
  C   C264      1.0  0.23170  0.75758  0.74778  1.0000
  H   H457      1.0  0.29140  0.71064  0.75060  1.0000
  H   H458      1.0  0.21351  0.69630  0.72477  1.0000
  H   H459      1.0  0.15867  0.76037  0.72857  1.0000
  H   H460      1.0  0.23651  0.77473  0.75432  1.0000
  C   C265      1.0  0.11048  0.79153  0.66208  1.0000
  H   H461      1.0  0.37663  0.65523  0.86567  1.0000
  H   H462      1.0  0.30978  0.68075  0.85745  1.0000
  C   C266      1.0  0.48478  0.66903  0.50347  1.0000
  H   H463      1.0  0.32923  0.69686  0.82856  1.0000
  H   H464      1.0  0.29755  0.75819  0.88469  1.0000
  H   H465      1.0  0.07653  0.79472  0.64423  1.0000
  C   C267      1.0  0.30355  0.71344  0.90035  1.0000
  H   H466      1.0  0.02041  0.79309  0.85743  1.0000
  C   C268      1.0  0.02012  0.85963  0.98382  1.0000
  H   H467      1.0  0.43653  0.80266  0.88406  1.0000
  H   H468      1.0  0.17310  0.77630  0.66413  1.0000
  H   H469      1.0  0.37652  0.71631  0.92904  1.0000
  H   H470      1.0  0.34355  0.73521  0.83720  1.0000
  C   C269      1.0  0.45757  0.74195  0.94660  1.0000
  H   H471      1.0  0.05526  0.69154  0.58577  1.0000
  H   H472      1.0  0.14636  0.79098  0.62551  1.0000
  H   H473      1.0  0.08903  0.67441  0.61890  1.0000
  H   H474      1.0  0.24126  0.68514  0.82202  1.0000
  H   H475      1.0  0.16756  0.71680  0.82952  1.0000
  H   H476      1.0  0.36596  0.72179  0.98466  1.0000
  C   C270      1.0  0.09975  0.76718  0.55285  1.0000
  H   H477      1.0  0.43241  0.66726  0.87729  1.0000
  C   C271      1.0  0.14063  0.77959  0.64460  1.0000
  H   H478      1.0  0.33015  0.79250  0.87248  1.0000
  H   H479      1.0  0.15985  0.68954  0.81224  1.0000
  H   H480      1.0  0.16446  0.75090  0.56239  1.0000
  H   H481      1.0  0.44144  0.75040  0.92336  1.0000
  C   C272      1.0  0.14578  0.75997  0.57741  1.0000
  H   H482      1.0  0.10783  0.68006  0.58253  1.0000
  H   H483      1.0  0.11790  0.74712  0.65024  1.0000
  H   H484      1.0  0.07421  0.81820  0.75898  1.0000
  H   H485      1.0  0.24389  0.73238  0.84754  1.0000
  H   H486      1.0  0.36024  0.77875  0.84746  1.0000
  H   H487      1.0  0.23852  0.75554  0.60612  1.0000
  H   H488      1.0  0.16575  0.77508  0.58568  1.0000
  C   C273      1.0  0.31355  0.75808  0.86404  1.0000
  H   H489      1.0  0.37593  0.77430  0.89261  1.0000
  H   H490      1.0  0.40175  0.70400  0.87574  1.0000
  C   C274      1.0  0.37868  0.69025  0.87641  1.0000
  H   H491      1.0  0.34410  0.74022  0.93007  1.0000
  H   H492      1.0  0.18095  0.71086  0.79089  1.0000
  C   C275      1.0  0.18173  0.70434  0.81601  1.0000
  C   C276      1.0  0.19016  0.73901  0.62752  1.0000
  C   C277      1.0  0.11923  0.75772  0.62879  1.0000
  N   N15       1.0  0.30859  0.71582  0.86536  1.0000
  H   H493      1.0  0.33905  0.69677  0.96627  1.0000
  C   C278      1.0  0.11631  0.72579  0.59272  1.0000
  N   N16       1.0  0.14326  0.74608  0.60693  1.0000
  H   H494      1.0  0.12610  0.77360  0.51044  1.0000
  H   H495      1.0  0.09930  0.71267  0.63651  1.0000
  H   H496      1.0  0.08721  0.79216  0.78075  1.0000
  H   H497      1.0  0.38008  0.68646  0.90274  1.0000
  H   H498      1.0  0.12472  0.79735  0.53626  1.0000
  H   H499      1.0  0.08306  0.76063  0.61479  1.0000
  H   H500      1.0  0.04493  0.85488  0.97142  1.0000
  H   H501      1.0  0.37009  0.73546  0.88049  1.0000
  H   H502      1.0  0.30531  0.72094  0.96702  1.0000
  C   C279      1.0  0.04759  0.81943  0.81824  1.0000
  C   C280      1.0  0.04261  0.83679  0.87117  1.0000
  S   S61       1.0  0.02149  0.75960  0.67048  1.0000
  H   H503      1.0  0.02976  0.91832  0.90689  1.0000
  H   H504      1.0  0.08005  0.72999  0.58093  1.0000
  H   H505      1.0  0.22933  0.69178  0.86090  1.0000
  C   C281      1.0  0.09048  0.68709  0.60004  1.0000
  C   C282      1.0  0.08508  0.85044  0.87125  1.0000
  C   C283      1.0  0.10367  0.86272  0.90442  1.0000
  H   H506      1.0  0.26524  0.72246  0.81505  1.0000
  C   C284      1.0  0.47255  0.80772  0.89039  1.0000
  C   C285      1.0  0.33779  0.71490  0.96401  1.0000
  H   H507      1.0  0.07421  0.80831  0.83371  1.0000
  H   H508      1.0  0.06627  0.83360  0.81220  1.0000
  H   H509      1.0  0.39440  0.67204  0.83597  1.0000
  H   H510      1.0  0.05560  0.82403  0.89085  1.0000
  H   H511      1.0  0.48867  0.79239  0.93865  1.0000
  C   C286      1.0  0.34313  0.72206  0.93015  1.0000
  Fe  Fe29      1.0  0.48339  0.71958  0.78357  1.0000
  H   H512      1.0  0.08014  0.75283  0.54008  1.0000
  H   H513      1.0  0.07909  0.77627  0.56616  1.0000
  N   N17       1.0  0.01624  0.82630  0.83832  1.0000
  H   H514      1.0  0.00856  0.87421  0.82685  1.0000
  H   H515      1.0  0.12609  0.80749  0.67188  1.0000
  C   C287      1.0  0.39640  0.66995  0.86288  1.0000
  C   C288      1.0  0.33616  0.73564  0.86181  1.0000
  H   H516      1.0  0.11229  0.83941  0.86839  1.0000
  H   H517      1.0  0.07802  0.86258  0.85062  1.0000
  H   H518      1.0  0.13472  0.87184  0.90424  1.0000
  H   H519      1.0  0.07835  0.87461  0.90796  1.0000
  H   H520      1.0  0.11236  0.85109  0.92594  1.0000
  H   H521      1.0  0.10695  0.78175  0.68368  1.0000
  H   H522      1.0  0.12879  0.71867  0.57242  1.0000
  H   H523      1.0  0.28248  0.73144  0.65344  1.0000
  C   C289      1.0  0.26216  0.71837  0.84042  1.0000
  Fe  Fe30      1.0  0.47544  0.72741  0.85481  1.0000
  C   C290      1.0  0.05962  0.80276  0.76547  1.0000
  H   H524      1.0  0.20054  0.72389  0.61675  1.0000
  C   C291      1.0  0.32971  0.69560  0.85546  1.0000
  H   H525      1.0  0.29752  0.69596  0.90547  1.0000
  H   H526      1.0  0.01987  0.84729  0.88101  1.0000
  S   S62       1.0  0.00775  0.71020  0.63623  1.0000
  H   H527      1.0  0.01879  0.89327  0.92649  1.0000
  C   C292      1.0  0.48501  0.72380  0.94632  1.0000
  H   H528      1.0  0.01998  0.86005  0.79195  1.0000
  H   H529      1.0  0.47553  0.82470  0.90033  1.0000
  C   C293      1.0  0.00371  0.90582  0.90714  1.0000
  H   H530      1.0  0.48985  0.67332  0.53026  1.0000
  C   C294      1.0  0.10662  0.78215  0.52526  1.0000
  H   H531      1.0  0.08032  0.66594  0.51379  1.0000
  C   C295      1.0  0.02515  0.80758  0.78444  1.0000
  H   H532      1.0  0.99845  0.70331  0.49498  1.0000
  H   H533      1.0  0.48296  0.80749  0.86698  1.0000
  H   H534      1.0  0.04254  0.79397  0.74176  1.0000
  H   H535      1.0  0.00808  0.93454  0.95601  1.0000
  H   H536      1.0  0.01067  0.79160  0.78876  1.0000
  H   H537      1.0  0.99798  0.81768  0.76770  1.0000
  S   S63       1.0  0.99518  0.71794  0.70970  1.0000
  H   H538      1.0  0.07314  0.78679  0.50794  1.0000
  C   C296      1.0  0.99454  0.86289  0.80550  1.0000
  C   C297      1.0  0.99421  0.80573  0.84651  1.0000
  H   H539      1.0  0.47753  0.65122  0.50055  1.0000
  S   S64       1.0  0.52690  0.23444  0.22487  1.0000
  C   C298      1.0  0.98201  0.24333  0.46534  1.0000
  S   S65       1.0  0.52592  0.20440  0.16034  1.0000
  H   H540      1.0  0.89436  0.29196  0.35178  1.0000
  Fe  Fe31      1.0  0.57708  0.22642  0.19646  1.0000
  S   S66       1.0  0.65021  0.21433  0.22278  1.0000
  S   S67       1.0  0.55951  0.25566  0.16189  1.0000
  Fe  Fe32      1.0  0.91791  0.24544  0.30919  1.0000
  S   S68       1.0  0.93180  0.21045  0.32488  1.0000
  S   S69       1.0  0.84536  0.25896  0.28851  1.0000
  C   C299      1.0  0.90126  0.16061  0.15190  1.0000
  C   C300      1.0  0.85562  0.28414  0.38646  1.0000
  C   C301      1.0  0.86525  0.25314  0.45908  1.0000
  C   C302      1.0  0.85500  0.26001  0.49140  1.0000
  Fe  Fe33      1.0  0.98430  0.21106  0.29691  1.0000
  S   S70       1.0  0.97055  0.25970  0.35458  1.0000
  C   C303      1.0  0.56864  0.19075  0.03560  1.0000
  H   H541      1.0  0.78800  0.24438  0.34356  1.0000
  H   H542      1.0  0.90026  0.18893  0.38689  1.0000
  H   H543      1.0  0.82223  0.22695  0.22213  1.0000
  H   H544      1.0  0.63746  0.16349  0.01965  1.0000
  S   S71       1.0  0.96761  0.24555  0.27892  1.0000
  C   C304      1.0  0.70344  0.22742  0.24246  1.0000
  C   C305      1.0  0.71023  0.25000  0.24032  1.0000
  C   C306      1.0  0.75355  0.25931  0.25488  1.0000
  C   C307      1.0  0.79096  0.24630  0.27170  1.0000
  C   C308      1.0  0.78404  0.22378  0.27441  1.0000
  C   C309      1.0  0.74072  0.21447  0.25990  1.0000
  H   H545      1.0  0.68216  0.26028  0.22713  1.0000
  H   H546      1.0  0.75815  0.27676  0.25267  1.0000
  H   H547      1.0  0.81216  0.21349  0.28735  1.0000
  H   H548      1.0  0.73603  0.19702  0.26195  1.0000
  C   C310      1.0  0.85712  0.26255  0.20071  1.0000
  H   H549      1.0  0.92657  0.10180  0.03505  1.0000
  H   H550      1.0  0.62504  0.19826  0.07973  1.0000
  H   H551      1.0  0.70934  0.22350  0.12399  1.0000
  H   H552      1.0  0.53110  0.19100  0.02935  1.0000
  N   N18       1.0  0.82779  0.24514  0.39595  1.0000
  H   H553      1.0  0.77147  0.26486  0.36731  1.0000
  C   C311      1.0  0.86298  0.25897  0.38672  1.0000
  H   H554      1.0  0.80577  0.20711  0.35065  1.0000
  C   C312      1.0  0.58765  0.19985  0.07116  1.0000
  H   H555      1.0  0.96724  0.03865  0.11128  1.0000
  S   S72       1.0  0.98421  0.18970  0.25179  1.0000
  H   H556      1.0  0.83533  0.17290  0.28487  1.0000
  H   H557      1.0  0.89742  0.25536  0.40362  1.0000
  H   H558      1.0  0.67515  0.21972  0.15207  1.0000
  H   H559      1.0  0.61038  0.25768  0.46941  1.0000
  H   H560      1.0  0.84691  0.17683  0.38745  1.0000
  H   H561      1.0  0.80462  0.26852  0.42649  1.0000
  C   C313      1.0  0.58387  0.20485  0.00970  1.0000
  H   H562      1.0  0.88929  0.15953  0.29213  1.0000
  H   H563      1.0  0.90968  0.17224  0.13403  1.0000
  Fe  Fe34      1.0  0.50556  0.23432  0.12736  1.0000
  H   H564      1.0  0.67466  0.22481  0.34498  1.0000
  H   H565      1.0  0.85842  0.21937  0.35074  1.0000
  C   C314      1.0  0.86385  0.18723  0.37276  1.0000
  H   H566      1.0  0.85462  0.29016  0.41135  1.0000
  H   H567      1.0  0.57923  0.17347  0.03596  1.0000
  Fe  Fe35      1.0  0.50735  0.26282  0.18933  1.0000
  H   H568      1.0  0.75300  0.21615  0.37806  1.0000
  H   H569      1.0  0.57842  0.21737  0.07203  1.0000
  H   H570      1.0  0.73210  0.23988  0.39409  1.0000
  H   H571      1.0  0.89485  0.14424  0.13981  1.0000
  C   C315      1.0  0.95075  0.10814  0.02310  1.0000
  C   C316      1.0  0.84369  0.22165  0.39930  1.0000
  H   H572      1.0  0.57333  0.19061  0.08874  1.0000
  C   C317      1.0  0.74358  0.23357  0.37293  1.0000
  H   H573      1.0  0.82439  0.21162  0.41283  1.0000
  C   C318      1.0  0.99191  0.22134  0.46122  1.0000
  H   H574      1.0  0.94172  0.03586  0.99935  1.0000
  H   H575      1.0  0.82364  0.28882  0.36743  1.0000
  H   H576      1.0  0.85844  0.27580  0.18270  1.0000
  H   H577      1.0  0.87955  0.22068  0.41528  1.0000
  C   C319      1.0  0.82149  0.25225  0.42899  1.0000
  H   H578      1.0  0.56466  0.22046  0.00842  1.0000
  C   C320      1.0  0.50065  0.26428  0.99518  1.0000
  H   H579      1.0  0.69179  0.25164  0.33517  1.0000
  H   H580      1.0  0.71247  0.22744  0.31946  1.0000
  C   C321      1.0  0.70327  0.23448  0.34119  1.0000
  H   H581      1.0  0.88184  0.23687  0.46374  1.0000
  H   H582      1.0  0.83951  0.27656  0.48861  1.0000
  H   H583      1.0  0.79801  0.24086  0.43655  1.0000
  H   H584      1.0  0.84011  0.14838  0.26170  1.0000
  H   H585      1.0  0.69279  0.19618  0.13316  1.0000
  H   H586      1.0  0.88824  0.31427  0.37830  1.0000
  C   C322      1.0  0.84132  0.20971  0.36598  1.0000
  H   H587      1.0  0.93063  0.15920  0.17480  1.0000
  N   N19       1.0  0.83013  0.19971  0.19104  1.0000
  C   C323      1.0  0.78582  0.20100  0.16353  1.0000
  C   C324      1.0  0.86631  0.19166  0.17626  1.0000
  C   C325      1.0  0.82416  0.18437  0.21792  1.0000
  C   C326      1.0  0.84430  0.22186  0.20670  1.0000
  C   C327      1.0  0.84529  0.24083  0.18202  1.0000
  C   C328      1.0  0.74569  0.21114  0.17379  1.0000
  C   C329      1.0  0.86801  0.17781  0.24545  1.0000
  C   C330      1.0  0.85943  0.16821  0.16126  1.0000
  H   H588      1.0  0.88977  0.26513  0.45447  1.0000
  C   C331      1.0  0.78346  0.24765  0.36874  1.0000
  C   C332      1.0  0.70328  0.21269  0.14375  1.0000
  C   C333      1.0  0.85731  0.16379  0.27264  1.0000
  H   H589      1.0  0.77454  0.18432  0.15390  1.0000
  H   H590      1.0  0.79000  0.21007  0.14140  1.0000
  H   H591      1.0  0.86889  0.20261  0.15552  1.0000
  H   H592      1.0  0.90021  0.19256  0.19523  1.0000
  H   H593      1.0  0.80647  0.16908  0.20671  1.0000
  H   H594      1.0  0.80143  0.19184  0.23115  1.0000
  H   H595      1.0  0.62017  0.20925  0.02082  1.0000
  H   H596      1.0  0.87888  0.22105  0.22473  1.0000
  H   H597      1.0  0.81197  0.24305  0.16304  1.0000
  H   H598      1.0  0.87111  0.23773  0.16882  1.0000
  H   H599      1.0  0.73697  0.20077  0.19293  1.0000
  H   H600      1.0  0.75357  0.22787  0.18417  1.0000
  H   H601      1.0  0.88656  0.19248  0.25780  1.0000
  H   H602      1.0  0.89081  0.16815  0.23471  1.0000
  H   H603      1.0  0.85309  0.15606  0.17918  1.0000
  H   H604      1.0  0.83033  0.16789  0.13809  1.0000
  C   C334      1.0  0.89380  0.29634  0.37757  1.0000
  H   H605      1.0  0.83105  0.26690  0.21322  1.0000
  H   H606      1.0  0.89061  0.26156  0.21996  1.0000
  H   H607      1.0  0.86133  0.17893  0.34858  1.0000
  H   H608      1.0  0.94651  0.04847  0.05187  1.0000
  H   H609      1.0  0.86473  0.25461  0.36121  1.0000
  C   C335      1.0  0.50202  0.25650  0.02750  1.0000
  S   S73       1.0  0.50109  0.29649  0.21160  1.0000
  Fe  Fe36      1.0  0.98575  0.22449  0.36918  1.0000
  H   H610      1.0  0.92699  0.29236  0.39583  1.0000
  H   H611      1.0  0.97515  0.25438  0.44418  1.0000
  H   H612      1.0  0.67139  0.25753  0.48716  1.0000
  C   C336      1.0  0.63875  0.25340  0.49193  1.0000
  C   C337      1.0  0.98106  0.04178  0.06321  1.0000
  H   H613      1.0  0.97989  0.02385  0.05888  1.0000
  H   H614      1.0  0.66500  0.13071  0.99765  1.0000
  H   H615      1.0  0.51862  0.26600  0.04957  1.0000
  H   H616      1.0  0.98964  0.08440  0.19757  1.0000
  H   H617      1.0  0.61490  0.29513  0.49277  1.0000
  C   C338      1.0  0.99332  0.04600  0.10101  1.0000
  H   H618      1.0  0.99265  0.22861  0.21096  1.0000
  H   H619      1.0  0.94898  0.06443  0.99485  1.0000
  S   S74       1.0  0.52208  0.24581  0.85232  1.0000
  S   S75       1.0  0.56857  0.18881  0.86193  1.0000
  H   H620      1.0  0.86014  0.23644  0.71628  1.0000
  Fe  Fe37      1.0  0.95346  0.25591  0.67434  1.0000
  S   S76       1.0  0.92963  0.22967  0.63542  1.0000
  S   S77       1.0  0.90264  0.27687  0.69207  1.0000
  C   C339      1.0  0.57020  0.23701  0.77123  1.0000
  H   H621      1.0  0.59260  0.15015  0.98769  1.0000
  Fe  Fe38      1.0  0.83897  0.07135  0.84805  1.0000
  S   S78       1.0  0.79683  0.08526  0.87925  1.0000
  S   S79       1.0  0.84350  0.03541  0.83130  1.0000
  Fe  Fe39      1.0  0.88187  0.11692  0.84206  1.0000
  S   S80       1.0  0.84405  0.13327  0.87433  1.0000
  S   S81       1.0  0.93271  0.13892  0.82636  1.0000
  Fe  Fe40      1.0  0.86101  0.10321  0.90692  1.0000
  S   S82       1.0  0.88275  0.10285  0.96415  1.0000
  Fe  Fe41      1.0  0.78299  0.11457  0.84418  1.0000
  S   S83       1.0  0.71674  0.13264  0.81660  1.0000
  S   S84       1.0  0.90354  0.08819  0.87738  1.0000
  S   S85       1.0  0.82040  0.09931  0.81033  1.0000
  C   C340      1.0  0.65548  0.28486  0.60299  1.0000
  H   H622      1.0  0.53166  0.16954  0.98196  1.0000
  C   C341      1.0  0.54286  0.22089  0.74505  1.0000
  H   H623      1.0  0.95958  0.12131  0.94578  1.0000
  C   C342      1.0  0.81875  0.00346  0.87172  1.0000
  C   C343      1.0  0.83421  0.00802  0.84390  1.0000
  C   C344      1.0  0.84310  0.99017  0.82528  1.0000
  H   H624      1.0  0.81151  0.01686  0.88630  1.0000
  C   C345      1.0  0.63417  0.26558  0.52285  1.0000
  C   C346      1.0  0.94028  0.16537  0.72415  1.0000
  C   C347      1.0  0.92026  0.14488  0.72610  1.0000
  C   C348      1.0  0.91549  0.13700  0.75683  1.0000
  C   C349      1.0  0.93151  0.14938  0.78617  1.0000
  C   C350      1.0  0.95076  0.17004  0.78410  1.0000
  C   C351      1.0  0.95432  0.17819  0.75321  1.0000
  H   H625      1.0  0.90136  0.12091  0.75811  1.0000
  C   C352      1.0  0.54579  0.30333  0.78003  1.0000
  H   H626      1.0  0.67961  0.28601  0.83934  1.0000
  C   C353      1.0  0.65888  0.14601  0.98250  1.0000
  C   C354      1.0  0.93785  0.11075  0.98800  1.0000
  C   C355      1.0  0.85690  0.29473  0.67163  1.0000
  C   C356      1.0  0.51861  0.29801  0.71999  1.0000
  C   C357      1.0  0.94369  0.98945  0.90115  1.0000
  C   C358      1.0  0.60851  0.17269  0.84858  1.0000
  C   C359      1.0  0.64689  0.16448  0.87303  1.0000
  C   C360      1.0  0.67990  0.15191  0.86392  1.0000
  C   C361      1.0  0.67506  0.14733  0.83009  1.0000
  C   C362      1.0  0.63636  0.15528  0.80570  1.0000
  C   C363      1.0  0.60339  0.16789  0.81478  1.0000
  H   H627      1.0  0.65130  0.16791  0.89927  1.0000
  H   H628      1.0  0.70927  0.14590  0.88304  1.0000
  H   H629      1.0  0.63166  0.15144  0.77957  1.0000
  H   H630      1.0  0.57379  0.17365  0.79567  1.0000
  H   H631      1.0  0.53834  0.20516  0.75714  1.0000
  H   H632      1.0  0.69613  0.29994  0.57423  1.0000
  H   H633      1.0  0.70351  0.29876  0.64745  1.0000
  H   H634      1.0  0.65411  0.19844  0.72468  1.0000
  H   H635      1.0  0.96342  0.17973  0.80665  1.0000
  H   H636      1.0  0.53923  0.22315  0.94680  1.0000
  H   H637      1.0  0.57868  0.28316  0.55887  1.0000
  H   H638      1.0  0.75937  0.10889  0.73658  1.0000
  H   H639      1.0  0.81817  0.10962  0.73696  1.0000
  N   N20       1.0  0.65201  0.24325  0.81150  1.0000
  C   C364      1.0  0.62916  0.25932  0.82879  1.0000
  C   C365      1.0  0.61748  0.22762  0.79001  1.0000
  C   C366      1.0  0.68469  0.23000  0.83874  1.0000
  C   C367      1.0  0.67873  0.25457  0.79113  1.0000
  C   C368      1.0  0.65228  0.27041  0.76320  1.0000
  C   C369      1.0  0.66061  0.27592  0.85288  1.0000
  C   C370      1.0  0.70600  0.20962  0.82706  1.0000
  C   C371      1.0  0.68426  0.28412  0.74933  1.0000
  C   C372      1.0  0.62386  0.16007  0.99238  1.0000
  C   C373      1.0  0.73951  0.19843  0.85700  1.0000
  H   H640      1.0  0.61035  0.25014  0.84363  1.0000
  H   H641      1.0  0.60308  0.26905  0.81049  1.0000
  H   H642      1.0  0.63151  0.21946  0.77133  1.0000
  H   H643      1.0  0.60999  0.21422  0.80589  1.0000
  H   H644      1.0  0.66748  0.22404  0.85730  1.0000
  H   H645      1.0  0.71355  0.24033  0.85304  1.0000
  H   H646      1.0  0.70782  0.26367  0.80794  1.0000
  H   H647      1.0  0.69435  0.24234  0.77822  1.0000
  H   H648      1.0  0.63122  0.28200  0.77244  1.0000
  H   H649      1.0  0.63051  0.26092  0.74183  1.0000
  H   H650      1.0  0.68495  0.26741  0.87412  1.0000
  C   C374      1.0  0.60984  0.23242  0.96109  1.0000
  H   H651      1.0  0.72451  0.21409  0.80886  1.0000
  H   H652      1.0  0.67974  0.19738  0.81512  1.0000
  H   H653      1.0  0.70574  0.29483  0.76925  1.0000
  H   H654      1.0  0.54638  0.16034  0.92707  1.0000
  H   H655      1.0  0.66414  0.29485  0.72877  1.0000
  H   H656      1.0  0.55999  0.21781  0.72545  1.0000
  C   C375      1.0  0.82889  0.30298  0.69016  1.0000
  H   H657      1.0  0.66255  0.26014  0.54449  1.0000
  H   H658      1.0  0.75069  0.18264  0.84895  1.0000
  H   H659      1.0  0.76960  0.20900  0.86746  1.0000
  H   H660      1.0  0.72344  0.19484  0.87709  1.0000
  H   H661      1.0  0.86946  0.29523  0.62345  1.0000
  H   H662      1.0  0.70616  0.27347  0.73909  1.0000
  C   C376      1.0  0.65618  0.18041  0.72198  1.0000
  H   H663      1.0  0.61101  0.24042  0.91026  1.0000
  C   C377      1.0  0.53233  0.18296  0.96416  1.0000
  N   N21       1.0  0.78848  0.17586  0.75187  1.0000
  C   C378      1.0  0.79823  0.18427  0.78734  1.0000
  C   C379      1.0  0.74115  0.18268  0.73245  1.0000
  C   C380      1.0  0.79327  0.15126  0.75310  1.0000
  C   C381      1.0  0.82106  0.18526  0.73454  1.0000
  C   C382      1.0  0.82610  0.21059  0.73557  1.0000
  C   C383      1.0  0.84714  0.18076  0.81024  1.0000
  C   C384      1.0  0.78048  0.13951  0.71855  1.0000
  C   C385      1.0  0.70207  0.17181  0.74326  1.0000
  C   C386      1.0  0.85782  0.21828  0.71564  1.0000
  C   C387      1.0  0.85476  0.19170  0.84442  1.0000
  C   C388      1.0  0.78325  0.11466  0.72289  1.0000
  H   H664      1.0  0.77602  0.17593  0.80034  1.0000
  H   H665      1.0  0.79005  0.20200  0.78737  1.0000
  H   H666      1.0  0.73705  0.20064  0.73471  1.0000
  H   H667      1.0  0.73493  0.17975  0.70507  1.0000
  H   H668      1.0  0.77337  0.14387  0.76883  1.0000
  H   H669      1.0  0.82887  0.14654  0.76594  1.0000
  H   H670      1.0  0.85529  0.17798  0.74484  1.0000
  H   H671      1.0  0.81062  0.18059  0.70752  1.0000
  H   H672      1.0  0.84030  0.21652  0.76172  1.0000
  H   H673      1.0  0.79305  0.21868  0.72441  1.0000
  H   H674      1.0  0.85344  0.16307  0.81495  1.0000
  H   H675      1.0  0.87263  0.18751  0.79895  1.0000
  H   H676      1.0  0.80415  0.14426  0.70413  1.0000
  H   H677      1.0  0.74553  0.14347  0.70334  1.0000
  H   H678      1.0  0.70186  0.15377  0.74014  1.0000
  H   H679      1.0  0.70498  0.17541  0.76991  1.0000
  H   H680      1.0  0.65068  0.17630  0.69508  1.0000
  H   H681      1.0  0.89235  0.21164  0.72670  1.0000
  H   H682      1.0  0.84514  0.21306  0.68897  1.0000
  H   H683      1.0  0.83188  0.24805  0.49810  1.0000
  H   H684      1.0  0.97110  0.03051  0.94680  1.0000
  H   H685      1.0  0.61170  0.28233  0.88060  1.0000
  H   H686      1.0  0.83265  0.18418  0.85818  1.0000
  H   H687      1.0  0.77411  0.10665  0.69787  1.0000
  H   H688      1.0  0.55088  0.24006  0.78948  1.0000
  C   C389      1.0  0.66228  0.30258  0.57804  1.0000
  H   H689      1.0  0.90933  0.13478  0.70385  1.0000
  H   H690      1.0  0.57193  0.25265  0.75833  1.0000
  H   H691      1.0  0.62869  0.17271  0.73031  1.0000
  H   H692      1.0  0.69149  0.15494  0.98715  1.0000
  H   H693      1.0  0.72768  0.27869  0.62581  1.0000
  H   H694      1.0  0.61203  0.30239  0.84863  1.0000
  H   H695      1.0  0.91673  0.99936  0.90676  1.0000
  H   H696      1.0  0.84817  0.20957  0.84148  1.0000
  H   H697      1.0  0.57201  0.20877  0.92537  1.0000
  H   H698      1.0  0.88337  0.05656  0.93975  1.0000
  H   H699      1.0  0.85502  0.99336  0.80371  1.0000
  H   H700      1.0  0.50888  0.22789  0.73272  1.0000
  C   C390      1.0  0.84825  0.30129  0.63806  1.0000
  H   H701      1.0  0.97089  0.00065  0.89865  1.0000
  H   H702      1.0  0.64846  0.26853  0.59125  1.0000
  C   C391      1.0  0.60656  0.24882  0.93274  1.0000
  H   H703      1.0  0.54350  0.29982  0.80495  1.0000
  H   H704      1.0  0.50388  0.19387  0.96492  1.0000
  S   S86       1.0  0.98583  0.24795  0.56427  1.0000
  H   H705      1.0  0.89047  0.18919  0.85966  1.0000
  H   H706      1.0  0.51703  0.18490  0.90920  1.0000
  C   C392      1.0  0.69724  0.28301  0.63355  1.0000
  C   C393      1.0  0.61586  0.18185  0.97251  1.0000
  H   H707      1.0  0.62659  0.28937  0.61247  1.0000
  H   H708      1.0  0.89663  0.04060  0.90759  1.0000
  C   C394      1.0  0.96920  0.11912  0.97277  1.0000
  C   C395      1.0  0.57219  0.21463  0.95067  1.0000
  C   C396      1.0  0.51647  0.29276  0.75243  1.0000
  H   H709      1.0  0.61296  0.17815  0.94572  1.0000
  Fe  Fe42      1.0  0.97482  0.20699  0.67359  1.0000
  H   H710      1.0  0.57328  0.25723  0.92593  1.0000
  C   C397      1.0  0.52024  0.17233  0.92886  1.0000
  C   C398      1.0  0.90260  0.04214  0.93515  1.0000
  H   H711      1.0  0.69179  0.27012  0.65083  1.0000
  H   H712      1.0  0.64799  0.19115  0.98169  1.0000
  C   C399      1.0  0.63351  0.29154  0.86823  1.0000
  H   H713      1.0  0.96436  0.05976  0.94132  1.0000
  H   H714      1.0  0.83521  0.29814  0.71614  1.0000
  C   C400      1.0  0.95320  0.04504  0.95253  1.0000
  Fe  Fe43      1.0  0.99163  0.23751  0.61897  1.0000
  H   H715      1.0  0.60163  0.26049  0.52672  1.0000
  Fe  Fe44      1.0  0.50494  0.21034  0.84089  1.0000
  H   H716      1.0  0.63346  0.26142  0.94104  1.0000
  H   H717      1.0  0.57288  0.31110  0.56738  1.0000
  H   H718      1.0  0.96949  0.19404  0.75218  1.0000
  N   N22       1.0  0.57626  0.19558  0.97474  1.0000
  H   H719      1.0  0.64410  0.22518  0.96759  1.0000
  N   N23       1.0  0.62605  0.30475  0.54457  1.0000
  H   H720      1.0  0.97337  0.26815  0.49996  1.0000
  H   H721      1.0  0.88949  0.02714  0.94426  1.0000
  C   C401      1.0  0.53930  0.30118  0.51607  1.0000
  H   H722      1.0  0.65699  0.30204  0.88733  1.0000
  H   H723      1.0  0.64648  0.14145  0.95550  1.0000
  S   S87       1.0  0.94981  0.17349  0.68563  1.0000
  C   C402      1.0  0.55011  0.31348  0.71517  1.0000
  C   C403      1.0  0.98852  0.23698  0.52505  1.0000
  C   C404      1.0  0.98076  0.25108  0.49705  1.0000
  H   H724      1.0  0.60668  0.24180  0.98314  1.0000
  C   C405      1.0  0.57991  0.29978  0.54849  1.0000
  C   C406      1.0  0.96287  0.04813  0.99102  1.0000
  H   H725      1.0  0.49751  0.27627  0.53031  1.0000
  H   H726      1.0  0.67198  0.29386  0.51741  1.0000
  C   C407      1.0  0.63688  0.29063  0.51825  1.0000
  H   H727      1.0  0.88698  0.26051  0.51240  1.0000
  H   H728      1.0  0.49584  0.29004  0.69842  1.0000
  C   C408      1.0  0.81287  0.31621  0.62363  1.0000
  C   C409      1.0  0.49544  0.29379  0.52280  1.0000
  H   H729      1.0  0.54453  0.29056  0.49596  1.0000
  H   H730      1.0  0.63784  0.23546  0.49615  1.0000
  H   H731      1.0  0.51624  0.27983  0.99272  1.0000
  H   H732      1.0  0.54036  0.52451  0.47536  1.0000
  C   C410      1.0  0.51561  0.37225  0.48284  1.0000
  C   C411      1.0  0.54556  0.34944  0.17941  1.0000
  H   H733      1.0  0.56781  0.57285  0.48689  1.0000
  H   H734      1.0  0.53154  0.62220  0.44947  1.0000
  C   C412      1.0  0.53621  0.54186  0.46711  1.0000
  H   H735      1.0  0.65007  0.64238  0.22959  1.0000
  H   H736      1.0  0.55151  0.33881  0.20201  1.0000
  H   H737      1.0  0.94941  0.63623  0.34076  1.0000
  H   H738      1.0  0.59302  0.61427  0.23372  1.0000
  H   H739      1.0  0.54851  0.54373  0.44475  1.0000
  H   H740      1.0  0.56813  0.34382  0.16463  1.0000
  H   H741      1.0  0.53921  0.38042  0.47206  1.0000
  H   H742      1.0  0.55449  0.36660  0.18745  1.0000
  H   H743      1.0  0.53959  0.62316  0.23841  1.0000
  H   H744      1.0  0.52060  0.55437  0.35931  1.0000
  H   H745      1.0  0.50301  0.57134  0.40821  1.0000
  H   H746      1.0  0.50090  0.32841  0.26252  1.0000
  C   C413      1.0  0.57621  0.62718  0.24454  1.0000
  H   H747      1.0  0.59065  0.62731  0.27232  1.0000
  C   C414      1.0  0.50615  0.61588  0.46029  1.0000
  C   C415      1.0  0.49623  0.34783  0.15791  1.0000
  H   H748      1.0  0.49629  0.52960  0.39972  1.0000
  H   H749      1.0  0.56578  0.64878  0.20229  1.0000
  H   H750      1.0  0.49382  0.58074  0.34912  1.0000
  C   C416      1.0  0.58187  0.64957  0.22983  1.0000
  Fe  Fe45      1.0  0.62498  0.35663  0.68788  1.0000
  S   S88       1.0  0.62783  0.33507  0.64494  1.0000
  S   S89       1.0  0.62105  0.34302  0.73820  1.0000
  Fe  Fe46      1.0  0.62957  0.39971  0.64843  1.0000
  S   S90       1.0  0.63361  0.38052  0.60309  1.0000
  S   S91       1.0  0.60915  0.43629  0.64684  1.0000
  Fe  Fe47      1.0  0.57949  0.35909  0.61210  1.0000
  S   S92       1.0  0.51477  0.34796  0.57376  1.0000
  Fe  Fe48      1.0  0.68266  0.35787  0.63961  1.0000
  H   H751      1.0  0.76450  0.52310  0.79380  1.0000
  S   S93       1.0  0.57256  0.37888  0.65554  1.0000
  S   S94       1.0  0.68265  0.37871  0.68462  1.0000
  Fe  Fe49      1.0  0.64808  0.56837  0.62753  1.0000
  S   S95       1.0  0.63506  0.58715  0.57874  1.0000
  S   S96       1.0  0.67957  0.53392  0.63249  1.0000
  Fe  Fe50      1.0  0.61571  0.60717  0.66262  1.0000
  S   S97       1.0  0.59860  0.62773  0.61599  1.0000
  S   S98       1.0  0.61197  0.61868  0.71407  1.0000
  Fe  Fe51      1.0  0.56987  0.59694  0.58829  1.0000
  H   H752      1.0  0.63851  0.53500  0.69144  1.0000
  Fe  Fe52      1.0  0.66573  0.61645  0.61067  1.0000
  H   H753      1.0  0.54211  0.41335  0.51738  1.0000
  S   S99       1.0  0.58156  0.57692  0.63570  1.0000
  S   S100      1.0  0.68409  0.59707  0.65857  1.0000
  C   C417      1.0  0.74046  0.52943  0.83612  1.0000
  C   C418      1.0  0.64231  0.53689  0.71878  1.0000
  C   C419      1.0  0.59614  0.43292  0.54869  1.0000
  H   H754      1.0  0.70884  0.56478  0.71394  1.0000
  H   H755      1.0  0.60013  0.42443  0.57294  1.0000
  H   H756      1.0  0.66192  0.52521  0.78451  1.0000
  C   C420      1.0  0.69114  0.53016  0.77565  1.0000
  C   C421      1.0  0.69637  0.45997  0.73646  1.0000
  H   H757      1.0  0.56296  0.37040  0.53259  1.0000
  H   H758      1.0  0.69985  0.33399  0.55117  1.0000
  C   C422      1.0  0.71146  0.48380  0.73604  1.0000
  C   C423      1.0  0.76092  0.64780  0.73188  1.0000
  C   C424      1.0  0.67169  0.49982  0.73387  1.0000
  C   C425      1.0  0.77685  0.55789  0.71518  1.0000
  H   H759      1.0  0.59709  0.63605  0.77434  1.0000
  H   H760      1.0  0.64825  0.49701  0.70823  1.0000
  C   C426      1.0  0.62943  0.46321  0.64215  1.0000
  C   C427      1.0  0.67299  0.46720  0.63977  1.0000
  C   C428      1.0  0.68745  0.48889  0.63664  1.0000
  C   C429      1.0  0.65862  0.50690  0.63553  1.0000
  C   C430      1.0  0.61494  0.50290  0.63774  1.0000
  C   C431      1.0  0.60061  0.48124  0.64116  1.0000
  H   H761      1.0  0.69571  0.45362  0.64062  1.0000
  H   H762      1.0  0.72136  0.49171  0.63506  1.0000
  H   H763      1.0  0.59221  0.51649  0.63682  1.0000
  H   H764      1.0  0.56687  0.47842  0.64307  1.0000
  H   H765      1.0  0.62881  0.43163  0.50880  1.0000
  H   H766      1.0  0.56417  0.56213  0.70471  1.0000
  H   H767      1.0  0.71513  0.52477  0.69993  1.0000
  H   H768      1.0  0.64713  0.55473  0.72402  1.0000
  H   H769      1.0  0.72830  0.50204  0.80281  1.0000
  C   C432      1.0  0.52912  0.36663  0.51713  1.0000
  H   H770      1.0  0.71043  0.52633  0.84506  1.0000
  H   H771      1.0  0.75318  0.52048  0.73988  1.0000
  C   C433      1.0  0.62988  0.42289  0.53246  1.0000
  C   C434      1.0  0.62561  0.32837  0.53347  1.0000
  H   H772      1.0  0.68636  0.45650  0.75953  1.0000
  H   H773      1.0  0.55118  0.45909  0.57888  1.0000
  H   H774      1.0  0.72461  0.44887  0.73599  1.0000
  H   H775      1.0  0.69319  0.54829  0.77859  1.0000
  H   H776      1.0  0.69996  0.36737  0.51725  1.0000
  H   H777      1.0  0.77262  0.32408  0.69048  1.0000
  H   H778      1.0  0.80727  0.32146  0.59790  1.0000
  H   H779      1.0  0.54462  0.43992  0.50174  1.0000
  H   H780      1.0  0.76785  0.55302  0.68828  1.0000
  H   H781      1.0  0.74679  0.54735  0.83610  1.0000
  H   H782      1.0  0.79429  0.64726  0.72676  1.0000
  C   C435      1.0  0.73322  0.51994  0.80096  1.0000
  N   N24       1.0  0.68280  0.52399  0.73927  1.0000
  C   C436      1.0  0.57739  0.31878  0.77525  1.0000
  C   C437      1.0  0.74986  0.62455  0.74058  1.0000
  C   C438      1.0  0.67066  0.33713  0.52878  1.0000
  H   H783      1.0  0.49808  0.41158  0.63082  1.0000
  C   C439      1.0  0.52550  0.47897  0.53353  1.0000
  H   H784      1.0  0.86386  0.63542  0.67214  1.0000
  C   C440      1.0  0.84055  0.64576  0.65399  1.0000
  C   C441      1.0  0.57980  0.64672  0.75386  1.0000
  H   H785      1.0  0.53788  0.42280  0.58937  1.0000
  H   H786      1.0  0.52534  0.54043  0.70649  1.0000
  H   H787      1.0  0.66464  0.42423  0.54997  1.0000
  H   H788      1.0  0.78628  0.57550  0.71695  1.0000
  H   H789      1.0  0.72930  0.64836  0.67820  1.0000
  C   C442      1.0  0.59610  0.53110  0.72459  1.0000
  H   H790      1.0  0.74924  0.61329  0.71958  1.0000
  S   S101      1.0  0.74198  0.34402  0.62294  1.0000
  S   S102      1.0  0.49972  0.59360  0.55116  1.0000
  C   C443      1.0  0.52033  0.45986  0.55687  1.0000
  C   C444      1.0  0.73661  0.55430  0.72897  1.0000
  H   H791      1.0  0.80658  0.54824  0.72973  1.0000
  H   H792      1.0  0.58146  0.49616  0.56829  1.0000
  H   H793      1.0  0.77621  0.61878  0.76331  1.0000
  C   C445      1.0  0.55768  0.54425  0.70108  1.0000
  H   H794      1.0  0.58756  0.51352  0.71993  1.0000
  H   H795      1.0  0.71654  0.62403  0.74574  1.0000
  C   C446      1.0  0.50795  0.42110  0.56690  1.0000
  H   H796      1.0  0.66732  0.45637  0.71409  1.0000
  H   H797      1.0  0.74040  0.48650  0.75866  1.0000
  C   C447      1.0  0.58111  0.64195  0.72104  1.0000
  H   H798      1.0  0.78403  0.62342  0.64748  1.0000
  C   C448      1.0  0.72247  0.52983  0.72661  1.0000
  C   C449      1.0  0.79526  0.63890  0.64005  1.0000
  H   H799      1.0  0.61588  0.33921  0.55179  1.0000
  H   H800      1.0  0.72378  0.48595  0.71363  1.0000
  H   H801      1.0  0.55392  0.53994  0.67448  1.0000
  H   H802      1.0  0.62213  0.40530  0.52691  1.0000
  H   H803      1.0  0.74660  0.55999  0.75543  1.0000
  H   H804      1.0  0.54512  0.51328  0.53662  1.0000
  H   H805      1.0  0.77032  0.52155  0.85396  1.0000
  H   H806      1.0  0.60564  0.45036  0.55404  1.0000
  H   H807      1.0  0.65304  0.49400  0.75150  1.0000
  C   C450      1.0  0.57979  0.32393  0.74282  1.0000
  C   C451      1.0  0.54697  0.43078  0.52535  1.0000
  H   H808      1.0  0.59642  0.53506  0.75066  1.0000
  H   H809      1.0  0.51030  0.40406  0.55809  1.0000
  H   H810      1.0  0.66535  0.37059  0.54488  1.0000
  C   C452      1.0  0.66837  0.36179  0.52236  1.0000
  H   H811      1.0  0.66566  0.31819  0.59233  1.0000
  N   N25       1.0  0.51022  0.43768  0.54040  1.0000
  H   H812      1.0  0.52620  0.50389  0.57137  1.0000
  S   S103      1.0  0.70779  0.64388  0.59676  1.0000
  H   H813      1.0  0.55311  0.61202  0.51002  1.0000
  C   C453      1.0  0.78525  0.32466  0.64231  1.0000
  C   C454      1.0  0.49876  0.35610  0.53119  1.0000
  H   H814      1.0  0.55508  0.55533  0.51808  1.0000
  C   C455      1.0  0.54569  0.49928  0.55380  1.0000
  H   H815      1.0  0.54780  0.47461  0.51796  1.0000
  H   H816      1.0  0.53386  0.31820  0.50650  1.0000
  H   H817      1.0  0.60201  0.54912  0.50215  1.0000
  H   H818      1.0  0.59992  0.32694  0.79673  1.0000
  C   C456      1.0  0.51846  0.61013  0.49457  1.0000
  H   H819      1.0  0.63914  0.36597  0.50040  1.0000
  C   C457      1.0  0.56696  0.55564  0.49530  1.0000
  H   H820      1.0  0.67751  0.32926  0.50674  1.0000
  H   H821      1.0  0.59973  0.33106  0.50892  1.0000
  H   H822      1.0  0.55148  0.31732  0.69008  1.0000
  C   C458      1.0  0.79326  0.31773  0.67564  1.0000
  C   C459      1.0  0.59209  0.76878  0.04217  1.0000
  H   H823      1.0  0.94259  0.92239  0.02469  1.0000
  C   C460      1.0  0.64698  0.69330  0.16639  1.0000
  H   H824      1.0  0.78232  0.67932  0.27390  1.0000
  Fe  Fe53      1.0  0.56250  0.74879  0.16692  1.0000
  S   S104      1.0  0.64039  0.75407  0.18175  1.0000
  S   S105      1.0  0.53346  0.71885  0.13630  1.0000
  Fe  Fe54      1.0  0.90111  0.73479  0.30988  1.0000
  S   S106      1.0  0.93438  0.76134  0.34629  1.0000
  S   S107      1.0  0.82333  0.73115  0.29945  1.0000
  H   H825      1.0  0.92471  0.78453  0.05150  1.0000
  H   H826      1.0  0.94825  0.88172  0.16485  1.0000
  H   H827      1.0  0.70543  0.77430  0.39087  1.0000
  H   H828      1.0  0.78834  0.77113  0.39218  1.0000
  S   S108      1.0  0.94538  0.70880  0.34189  1.0000
  S   S109      1.0  0.94927  0.73855  0.27829  1.0000
  H   H829      1.0  0.55654  0.76328  0.03797  1.0000
  H   H830      1.0  0.80537  0.73658  0.47740  1.0000
  H   H831      1.0  0.75423  0.73358  0.42795  1.0000
  H   H832      1.0  0.68406  0.69595  0.17542  1.0000
  C   C461      1.0  0.95648  0.87188  0.01609  1.0000
  C   C462      1.0  0.69093  0.74817  0.21522  1.0000
  C   C463      1.0  0.69041  0.74313  0.24799  1.0000
  C   C464      1.0  0.73108  0.73809  0.27323  1.0000
  C   C465      1.0  0.77331  0.73855  0.26656  1.0000
  C   C466      1.0  0.77401  0.74409  0.23402  1.0000
  C   C467      1.0  0.73321  0.74879  0.20865  1.0000
  H   H833      1.0  0.65870  0.74334  0.25395  1.0000
  H   H834      1.0  0.72985  0.73401  0.29825  1.0000
  H   H835      1.0  0.80596  0.74454  0.22826  1.0000
  H   H836      1.0  0.73444  0.75290  0.18362  1.0000
  H   H837      1.0  0.89821  0.78501  0.44910  1.0000
  C   C468      1.0  0.87280  0.71296  0.40125  1.0000
  H   H838      1.0  0.61437  0.75793  0.06146  1.0000
  H   H839      1.0  0.88194  0.80624  0.21115  1.0000
  H   H840      1.0  0.94917  0.78895  0.11535  1.0000
  H   H841      1.0  0.62201  0.71149  0.22022  1.0000
  H   H842      1.0  0.94071  0.79119  0.40726  1.0000
  N   N26       1.0  0.98109  0.81729  0.14410  1.0000
  C   C469      1.0  0.86134  0.74359  0.45671  1.0000
  H   H843      1.0  0.59568  0.78577  0.05210  1.0000
  H   H844      1.0  0.82619  0.71260  0.46106  1.0000
  C   C470      1.0  0.96889  0.65124  0.35092  1.0000
  H   H845      1.0  0.84255  0.69533  0.35452  1.0000
  C   C471      1.0  0.61330  0.69571  0.23015  1.0000
  H   H846      1.0  0.65320  0.67349  0.12440  1.0000
  H   H847      1.0  0.97301  0.78944  0.17411  1.0000
  H   H848      1.0  0.91482  0.81252  0.10898  1.0000
  H   H849      1.0  0.98073  0.76875  0.45570  1.0000
  C   C472      1.0  0.97039  0.80761  0.17430  1.0000
  S   S110      1.0  0.51379  0.77178  0.13110  1.0000
  H   H850      1.0  0.93688  0.84567  0.13443  1.0000
  H   H851      1.0  0.65089  0.70606  0.28144  1.0000
  H   H852      1.0  0.91599  0.83047  0.17714  1.0000
  H   H853      1.0  0.88938  0.80099  0.37729  1.0000
  C   C473      1.0  0.72641  0.66741  0.23211  1.0000
  H   H854      1.0  0.79759  0.77163  0.43641  1.0000
  Fe  Fe55      1.0  0.98024  0.73558  0.37711  1.0000
  H   H855      1.0  0.58736  0.73231  0.26070  1.0000
  H   H856      1.0  0.79928  0.66461  0.24202  1.0000
  H   H857      1.0  0.93164  0.87655  0.02852  1.0000
  H   H858      1.0  0.69912  0.68446  0.26669  1.0000
  H   H859      1.0  0.67980  0.75111  0.40511  1.0000
  H   H860      1.0  0.92403  0.78561  0.21232  1.0000
  H   H861      1.0  0.84735  0.79475  0.41920  1.0000
  H   H862      1.0  0.74202  0.73897  0.38380  1.0000
  H   H863      1.0  0.64714  0.65616  0.26607  1.0000
  H   H864      1.0  0.98630  0.84884  0.12185  1.0000
  H   H865      1.0  0.89099  0.70842  0.42754  1.0000
  H   H866      1.0  0.89634  0.72179  0.39015  1.0000
  C   C474      1.0  0.92637  0.80262  0.04916  1.0000
  C   C475      1.0  0.61692  0.69963  0.26778  1.0000
  C   C476      1.0  0.83597  0.72824  0.47470  1.0000
  H   H867      1.0  0.63011  0.70878  0.16929  1.0000
  H   H868      1.0  0.64489  0.70236  0.11555  1.0000
  C   C477      1.0  0.58216  0.71634  0.27177  1.0000
  C   C478      1.0  0.97364  0.84174  0.14202  1.0000
  H   H869      1.0  0.61108  0.68442  0.28045  1.0000
  C   C479      1.0  0.97252  0.93191  0.02316  1.0000
  C   C480      1.0  0.92255  0.81263  0.17737  1.0000
  C   C481      1.0  0.90750  0.79912  0.40447  1.0000
  H   H870      1.0  0.89026  0.68191  0.38323  1.0000
  C   C482      1.0  0.87925  0.78565  0.42200  1.0000
  H   H871      1.0  0.80626  0.71630  0.40653  1.0000
  H   H872      1.0  0.94960  0.66070  0.36490  1.0000
  H   H873      1.0  0.72069  0.66467  0.20486  1.0000
  H   H874      1.0  0.83641  0.68183  0.39184  1.0000
  C   C483      1.0  0.83063  0.72719  0.39936  1.0000
  N   N27       1.0  0.83885  0.74798  0.41991  1.0000
  S   S111      1.0  0.51620  0.74604  0.19960  1.0000
  C   C484      1.0  0.79494  0.76039  0.41484  1.0000
  C   C485      1.0  0.87040  0.76217  0.40702  1.0000
  C   C486      1.0  0.69121  0.68341  0.23890  1.0000
  H   H875      1.0  0.58581  0.71884  0.29885  1.0000
  H   H876      1.0  0.94054  0.81191  0.23203  1.0000
  C   C487      1.0  0.63141  0.67455  0.18571  1.0000
  C   C488      1.0  0.75086  0.74673  0.40906  1.0000
  C   C489      1.0  0.77438  0.67645  0.24642  1.0000
  H   H877      1.0  0.91377  0.81568  0.41588  1.0000
  N   N28       1.0  0.64220  0.67744  0.22328  1.0000
  H   H878      1.0  0.81455  0.73125  0.37231  1.0000
  H   H879      1.0  0.59793  0.68566  0.11812  1.0000
  H   H880      1.0  0.69823  0.70008  0.23085  1.0000
  H   H881      1.0  0.57717  0.69309  0.21601  1.0000
  H   H882      1.0  0.85721  0.76377  0.37911  1.0000
  H   H883      1.0  0.90431  0.75442  0.41222  1.0000
  C   C490      1.0  0.96179  0.81227  0.07951  1.0000
  C   C491      1.0  0.85944  0.69172  0.38146  1.0000
  C   C492      1.0  0.99214  0.94331  0.05697  1.0000
  H   H884      1.0  0.54729  0.71041  0.25940  1.0000
  C   C493      1.0  0.71103  0.76119  0.41022  1.0000
  H   H885      1.0  0.89252  0.80975  0.04676  1.0000
  H   H886      1.0  0.77817  0.69217  0.23395  1.0000
  C   C494      1.0  0.98955  0.73507  0.47119  1.0000
  H   H887      1.0  0.96713  0.95483  0.06202  1.0000
  C   C495      1.0  0.91706  0.80348  0.21019  1.0000
  C   C496      1.0  0.63259  0.65609  0.23824  1.0000
  H   H888      1.0  0.64589  0.65898  0.17957  1.0000
  C   C497      1.0  0.63493  0.68829  0.12883  1.0000
  H   H889      1.0  0.96294  0.83017  0.07528  1.0000
  H   H890      1.0  0.89594  0.73699  0.46054  1.0000
  H   H891      1.0  0.56277  0.66149  0.24046  1.0000
  H   H892      1.0  0.51452  0.71159  0.03061  1.0000
  H   H893      1.0  0.89620  0.80497  0.15636  1.0000
  C   C498      1.0  0.98265  0.75732  0.47591  1.0000
  C   C499      1.0  0.95029  0.80706  0.11271  1.0000
  H   H894      1.0  0.59420  0.67294  0.17417  1.0000
  H   H895      1.0  0.60213  0.75014  0.00161  1.0000
  H   H896      1.0  0.86663  0.75912  0.47124  1.0000
  H   H897      1.0  0.71736  0.76877  0.43543  1.0000
  C   C500      1.0  0.95985  0.94876  0.99386  1.0000
  H   H898      1.0  0.93672  0.96116  0.99950  1.0000
  H   H899      1.0  0.87408  0.94118  0.99615  1.0000
  Fe  Fe56      1.0  0.98482  0.76388  0.31625  1.0000
  C   C501      1.0  0.98513  0.87926  0.16922  1.0000
  H   H900      1.0  0.98647  0.84927  0.19606  1.0000
  H   H901      1.0  0.64125  0.77276  0.01540  1.0000
  H   H902      1.0  0.93562  0.80654  0.02590  1.0000
  C   C502      1.0  0.49871  0.72018  0.00739  1.0000
  H   H903      1.0  0.99140  0.95789  0.99499  1.0000
  C   C503      1.0  0.60544  0.76754  0.00958  1.0000
  H   H904      1.0  0.97245  0.66115  0.32943  1.0000
  S   S112      1.0  0.99340  0.72434  0.43224  1.0000
  H   H905      1.0  0.72483  0.65135  0.24428  1.0000
  H   H906      1.0  0.75094  0.77034  0.69056  1.0000
  S   S113      1.0  0.53409  0.79819  0.81520  1.0000
  S   S114      1.0  0.53158  0.73336  0.83084  1.0000
  Fe  Fe57      1.0  0.78502  0.85299  0.86705  1.0000
  S   S115      1.0  0.77161  0.87701  0.82398  1.0000
  S   S116      1.0  0.73962  0.82754  0.88221  1.0000
  Fe  Fe58      1.0  0.88734  0.86317  0.88864  1.0000
  S   S117      1.0  0.88109  0.88717  0.84651  1.0000
  S   S118      1.0  0.95802  0.85517  0.92176  1.0000
  Fe  Fe59      1.0  0.82033  0.90022  0.85979  1.0000
  S   S119      1.0  0.81132  0.93628  0.87411  1.0000
  Fe  Fe60      1.0  0.83401  0.86218  0.81449  1.0000
  S   S120      1.0  0.83863  0.85184  0.76284  1.0000
  S   S121      1.0  0.82913  0.87690  0.90377  1.0000
  S   S122      1.0  0.84484  0.83746  0.85560  1.0000
  Fe  Fe61      1.0  0.95127  0.70545  0.66003  1.0000
  S   S123      1.0  0.91895  0.73809  0.64321  1.0000
  S   S124      1.0  0.91397  0.67319  0.66226  1.0000
  H   H907      1.0  0.62040  0.70353  0.61140  1.0000
  H   H908      1.0  0.66662  0.77894  0.80705  1.0000
  C   C504      1.0  0.94442  0.78652  0.87685  1.0000
  H   H909      1.0  0.68798  0.70723  0.77898  1.0000
  C   C505      1.0  0.97426  0.86102  0.96524  1.0000
  H   H910      1.0  0.93981  0.86424  0.75846  1.0000
  H   H911      1.0  0.55487  0.66842  0.78570  1.0000
  C   C506      1.0  0.82266  0.91970  0.96735  1.0000
  C   C507      1.0  0.86556  0.82765  0.75462  1.0000
  C   C508      1.0  0.87649  0.82572  0.72417  1.0000
  C   C509      1.0  0.89894  0.80699  0.71717  1.0000
  C   C510      1.0  0.91010  0.78982  0.74043  1.0000
  C   C511      1.0  0.89783  0.79148  0.77035  1.0000
  C   C512      1.0  0.87623  0.81034  0.77764  1.0000
  H   H912      1.0  0.86818  0.83896  0.70609  1.0000
  H   H913      1.0  0.90803  0.80595  0.69400  1.0000
  H   H914      1.0  0.86775  0.81145  0.80099  1.0000
  C   C513      1.0  0.82051  0.96369  0.86158  1.0000
  H   H915      1.0  0.69370  0.77569  0.72436  1.0000
  H   H916      1.0  0.61352  0.73864  0.78107  1.0000
  N   N29       1.0  0.58546  0.78353  0.94910  1.0000
  H   H917      1.0  0.84329  0.95488  0.81919  1.0000
  C   C514      1.0  0.59201  0.80542  0.83289  1.0000
  C   C515      1.0  0.62261  0.79195  0.85589  1.0000
  C   C516      1.0  0.66766  0.79896  0.87052  1.0000
  C   C517      1.0  0.68289  0.81931  0.86200  1.0000
  C   C518      1.0  0.65262  0.83251  0.83839  1.0000
  C   C519      1.0  0.60740  0.82567  0.82419  1.0000
  H   H918      1.0  0.61141  0.77629  0.86268  1.0000
  H   H919      1.0  0.69090  0.78856  0.88861  1.0000
  H   H920      1.0  0.66370  0.84824  0.83167  1.0000
  H   H921      1.0  0.58402  0.83626  0.80651  1.0000
  C   C520      1.0  0.59769  0.75444  0.77075  1.0000
  H   H922      1.0  0.69567  0.70509  0.65679  1.0000
  C   C521      1.0  0.53333  0.67906  0.73416  1.0000
  H   H923      1.0  0.97151  0.79842  0.82334  1.0000
  H   H924      1.0  0.65709  0.81230  0.77647  1.0000
  H   H925      1.0  0.56610  0.75086  0.75039  1.0000
  H   H926      1.0  0.66418  0.80834  0.73611  1.0000
  C   C522      1.0  0.61252  0.72343  0.92698  1.0000
  H   H927      1.0  0.80379  0.78652  0.87097  1.0000
  H   H928      1.0  0.79627  0.76122  0.72665  1.0000
  C   C523      1.0  0.61729  0.68615  0.61831  1.0000
  C   C524      1.0  0.86135  0.93580  0.96963  1.0000
  H   H929      1.0  0.90396  0.95177  0.90975  1.0000
  C   C525      1.0  0.85612  0.66573  0.64440  1.0000
  C   C526      1.0  0.92476  0.95798  0.93459  1.0000
  H   H930      1.0  0.97141  0.77451  0.88854  1.0000
  H   H931      1.0  0.76351  0.72335  0.70013  1.0000
  H   H932      1.0  0.84624  0.71662  0.72427  1.0000
  H   H933      1.0  0.73414  0.79918  0.82616  1.0000
  H   H934      1.0  0.56162  0.80180  0.90263  1.0000
  H   H935      1.0  0.90572  0.77814  0.78825  1.0000
  C   C527      1.0  0.78045  0.67191  0.60656  1.0000
  C   C528      1.0  0.68323  0.80932  0.76329  1.0000
  H   H936      1.0  0.61170  0.78361  0.74705  1.0000
  C   C529      1.0  0.71186  0.83067  0.76894  1.0000
  H   H937      1.0  0.63705  0.69118  0.77157  1.0000
  H   H938      1.0  0.88335  0.91956  0.93134  1.0000
  H   H939      1.0  0.96592  0.89025  0.77274  1.0000
  H   H940      1.0  0.59263  0.71526  0.94194  1.0000
  H   H941      1.0  0.92266  0.77980  0.85275  1.0000
  H   H942      1.0  0.76645  0.71415  0.65958  1.0000
  H   H943      1.0  0.51784  0.68504  0.68093  1.0000
  H   H944      1.0  0.83389  0.76275  0.86325  1.0000
  H   H945      1.0  0.69724  0.83936  0.98399  1.0000
  H   H946      1.0  0.75739  0.68207  0.58796  1.0000
  H   H947      1.0  0.79701  0.68469  0.72184  1.0000
  C   C530      1.0  0.65979  0.69964  0.75921  1.0000
  Fe  Fe62      1.0  0.96455  0.75095  0.69229  1.0000
  C   C531      1.0  0.64191  0.81601  0.96878  1.0000
  H   H948      1.0  0.89553  0.71296  0.50893  1.0000
  H   H949      1.0  0.64420  0.71402  0.93018  1.0000
  C   C532      1.0  0.64351  0.68206  0.65509  1.0000
  C   C533      1.0  0.96287  0.91653  0.91432  1.0000
  C   C534      1.0  0.96289  0.97272  0.92898  1.0000
  H   H950      1.0  0.58834  0.76348  0.79087  1.0000
  H   H951      1.0  0.72355  0.83457  0.79620  1.0000
  H   H952      1.0  0.62873  0.69295  0.67043  1.0000
  C   C535      1.0  0.67778  0.68316  0.73866  1.0000
  S   S125      1.0  0.94139  0.76648  0.73480  1.0000
  H   H953      1.0  0.98325  0.91083  0.96724  1.0000
  C   C536      1.0  0.89940  0.92507  0.95760  1.0000
  C   C537      1.0  0.62968  0.76819  0.75690  1.0000
  H   H954      1.0  0.63569  0.75902  0.73562  1.0000
  H   H955      1.0  0.83885  0.78831  0.84296  1.0000
  H   H956      1.0  0.74206  0.82932  0.75991  1.0000
  C   C538      1.0  0.83648  0.96824  0.83403  1.0000
  H   H957      1.0  0.65448  0.85291  0.76080  1.0000
  C   C539      1.0  0.68387  0.85011  0.75103  1.0000
  C   C540      1.0  0.74691  0.79174  0.80634  1.0000
  C   C541      1.0  0.72286  0.77750  0.74735  1.0000
  C   C542      1.0  0.75969  0.78987  0.73600  1.0000
  C   C543      1.0  0.77489  0.77126  0.82193  1.0000
  C   C544      1.0  0.77846  0.77575  0.71287  1.0000
  C   C545      1.0  0.81528  0.77766  0.85160  1.0000
  H   H958      1.0  0.77132  0.80390  0.80201  1.0000
  H   H959      1.0  0.69061  0.75623  0.79169  1.0000
  H   H960      1.0  0.73471  0.76048  0.75439  1.0000
  H   H961      1.0  0.78870  0.79457  0.75750  1.0000
  H   H962      1.0  0.74502  0.80480  0.72171  1.0000
  H   H963      1.0  0.75414  0.75961  0.83166  1.0000
  H   H964      1.0  0.78836  0.76281  0.80333  1.0000
  H   H965      1.0  0.80331  0.78543  0.70405  1.0000
  C   C546      1.0  0.67507  0.77259  0.78451  1.0000
  H   H966      1.0  0.67167  0.84722  0.72351  1.0000
  H   H967      1.0  0.70514  0.86511  0.75549  1.0000
  N   N30       1.0  0.70784  0.78800  0.77510  1.0000
  H   H968      1.0  0.84680  0.95015  0.95379  1.0000
  C   C547      1.0  0.62383  0.74691  0.93908  1.0000
  H   H969      1.0  0.92778  0.87811  0.79320  1.0000
  H   H970      1.0  0.70619  0.67904  0.64188  1.0000
  C   C548      1.0  0.78033  0.71174  0.68717  1.0000
  H   H971      1.0  0.92325  0.78899  0.89402  1.0000
  H   H972      1.0  0.79689  0.92743  0.97750  1.0000
  H   H973      1.0  0.79950  0.97835  0.90171  1.0000
  H   H974      1.0  0.95705  0.84645  0.83395  1.0000
  C   C549      1.0  0.82559  0.67890  0.62082  1.0000
  H   H975      1.0  0.83699  0.69427  0.61316  1.0000
  C   C550      1.0  0.97840  0.76482  0.50697  1.0000
  C   C551      1.0  0.97929  0.84135  0.81855  1.0000
  Fe  Fe63      1.0  0.49728  0.76553  0.81492  1.0000
  C   C552      1.0  0.53517  0.67440  0.70144  1.0000
  H   H976      1.0  0.90156  0.96908  0.94283  1.0000
  C   C553      1.0  0.83065  0.71760  0.69664  1.0000
  C   C554      1.0  0.50174  0.79203  0.91648  1.0000
  H   H977      1.0  0.63013  0.67543  0.60155  1.0000
  H   H978      1.0  0.55376  0.75156  0.93831  1.0000
  H   H979      1.0  0.49697  0.77530  0.90588  1.0000
  H   H980      1.0  0.83495  0.73458  0.68841  1.0000
  H   H981      1.0  0.93603  0.90394  0.91103  1.0000
  C   C555      1.0  0.86556  0.72257  0.51012  1.0000
  H   H982      1.0  0.92926  0.98103  0.87672  1.0000
  H   H983      1.0  0.74316  0.69732  0.74475  1.0000
  C   C556      1.0  0.94247  0.86708  0.98153  1.0000
  H   H984      1.0  0.63989  0.71257  0.74253  1.0000
  C   C557      1.0  0.77303  0.68766  0.69649  1.0000
  C   C558      1.0  0.71270  0.69400  0.72315  1.0000
  H   H985      1.0  0.58093  0.68234  0.61431  1.0000
  H   H986      1.0  0.87723  0.73767  0.52506  1.0000
  H   H987      1.0  0.84894  0.70636  0.68416  1.0000
  H   H988      1.0  0.93680  0.81991  0.86088  1.0000
  H   H989      1.0  0.69965  0.71049  0.71359  1.0000
  C   C559      1.0  0.69439  0.68725  0.66166  1.0000
  H   H990      1.0  0.63551  0.81684  0.99363  1.0000
  H   H991      1.0  0.80598  0.91527  0.94072  1.0000
  N   N31       1.0  0.72536  0.68141  0.69594  1.0000
  H   H992      1.0  0.95650  0.83255  0.79684  1.0000
  H   H993      1.0  0.90703  0.86793  0.96756  1.0000
  H   H994      1.0  0.99115  0.71665  0.54963  1.0000
  H   H995      1.0  0.63932  0.79315  0.92880  1.0000
  C   C560      1.0  0.96509  0.80838  0.87104  1.0000
  C   C561      1.0  0.58063  0.76135  0.93203  1.0000
  N   N32       1.0  0.93987  0.93934  0.95920  1.0000
  H   H996      1.0  0.83525  0.90461  0.98203  1.0000
  H   H997      1.0  0.95059  0.92946  0.89513  1.0000
  H   H998      1.0  0.64693  0.75377  0.92550  1.0000
  H   H999      1.0  0.78492  0.67702  0.67907  1.0000
  H   H1000     1.0  0.63779  0.66479  0.66083  1.0000
  H   H1001     1.0  0.59279  0.72313  0.90001  1.0000
  H   H1002     1.0  0.69904  0.82234  0.94910  1.0000
  H   H1003     1.0  0.71455  0.81117  0.99133  1.0000
  C   C562      1.0  0.99310  0.72056  0.49823  1.0000
  C   C563      1.0  0.63232  0.79270  0.95357  1.0000
  C   C564      1.0  0.55220  0.79904  0.92631  1.0000
  H   H1004     1.0  0.62088  0.82845  0.95181  1.0000
  H   H1005     1.0  0.98003  0.98185  0.95226  1.0000
  H   H1006     1.0  0.56878  0.76317  0.90413  1.0000
  H   H1007     1.0  0.55314  0.81535  0.93827  1.0000
  Fe  Fe64      1.0  0.97852  0.74372  0.62246  1.0000
  C   C565      1.0  0.72449  0.65688  0.70061  1.0000
  H   H1008     1.0  0.84593  0.71253  0.52328  1.0000
  C   C566      1.0  0.98897  0.72807  0.52931  1.0000
  C   C567      1.0  0.55586  0.66508  0.76041  1.0000
  S   S126      1.0  0.97558  0.76077  0.57241  1.0000
  H   H1009     1.0  0.64837  0.67621  0.71950  1.0000
  C   C568      1.0  0.97543  0.92552  0.95070  1.0000
  C   C569      1.0  0.98133  0.75027  0.53385  1.0000
  H   H1010     1.0  0.98568  0.81443  0.89592  1.0000
  H   H1011     1.0  0.69372  0.66953  0.75567  1.0000
  H   H1012     1.0  0.90995  0.90974  0.97213  1.0000
  H   H1013     1.0  0.98854  0.96307  0.92131  1.0000
  C   C570      1.0  0.76503  0.65184  0.61592  1.0000
  C   C571      1.0  0.95453  0.87453  0.78102  1.0000
  H   H1014     1.0  0.52722  0.69909  0.97716  1.0000
  H   H1015     1.0  0.97293  0.78206  0.51023  1.0000
  C   C572      1.0  0.50579  0.71311  0.97697  1.0000
  C   C573      1.0  0.69123  0.82252  0.97358  1.0000
  H   H1016     1.0  0.76443  0.65831  0.75420  1.0000
  C   C574      1.0  0.55864  0.65594  0.69485  1.0000
  H   H1017     1.0  0.65871  0.78196  0.96969  1.0000
  H   H1018     1.0  0.69092  0.65113  0.70181  1.0000
  S   S127      1.0  0.50284  0.70265  0.74043  1.0000
  H   H1019     1.0  0.53968  0.77484  0.97776  1.0000
  H   H1020     1.0  0.51654  0.67262  0.49704  1.0000
  C   C575      1.0  0.81199  0.98152  0.88041  1.0000
  C   C576      1.0  0.57405  0.78198  0.98192  1.0000
  H   H1021     1.0  0.64256  0.74611  0.96612  1.0000
  H   H1022     1.0  0.55915  0.65252  0.66948  1.0000
  H   H1023     1.0  0.57214  0.79857  0.99242  1.0000
  S   S128      1.0  0.49405  0.71363  0.90857  1.0000
  H   H1024     1.0  0.99289  0.89767  0.88221  1.0000
