data_image0
_chemical_formula_structural       SFeS2FeS2Fe2S4FeS2FeS2FeSFeS4CH3C7H4C6H7CH2C3H5C6H4C3H5NCHC5HC2HCH3CH13CH4C2H6CH4CHCH3NH4CNHCH3CNH3CH4CHCH6CNH2FeC2H2CHC4H4CH3CH8CH2C3H3CH2NH7CHCHC6HCHC5H12C2H4CH2CHC3HCHCH3CH2C2HCH8C2HCHC2HCH12NH3CHC3HCH4C2HSFeS2FeS2FeSFeS4FeS2FeS2FeSFeS2C3H2CHC3HC6H4C6H4C6H6CH5C2H2CNC5HC2HCH15CH13CH2CH2CHCH7CH4CHCH3C2H3C5HC2HC2H3CH12NH8NHNC2HCHCHCHCHCH3CH2CHCNH2CH4CH4CH4CHCHCHCHCHCHCH2CH2CHCH3CH3SH7CHCHCH2CH2CH4CSFeS2FeS2FeSFeS3FeHSFeSHFeH2S3CH3C6H2C7H3C6H4C6H4CHC2H2C4H6CNHCH2C2H3CHCHNSH4SFeH3CHCHCH3CH6CH10CH4CHCHCNCHC2H6SH4CH4C3HC2H3CH2CH7C4HCH2CH3C3HNCHC3H2CNCHCH2CHCH3CHCHCH2C6HCH8SHCH5SH2CH4C2H7CH5CH7C2H2NH2C3H10SFeS2FeSFeS4FeS2FeS2FeSFeS4C6H4C6H4C3H4C2H4C6H8CHCHFeH3C2H5CHCHCH3CHC2H6C2HC3HCH2CH3CHC3NC6HC3H15NH8C2NH2CHC2H2NC12H22CH6CH2NH2CH5CH4C3HC2H2C2H4CH5C3H8C3H3FeHCH2NH2CH2CH6C2H2C2H5CH6CH5CSFeS2FeSFeS3HSFeS4FeS2FeSFeSFeS4C6H4C6H6C6H4C6H2CHCHCHCH2NC2HC2HC2H3CH3FeH3CH2NC3HCHFeH14CHCFeHC2FeSHCH2C4HCH9NC9HC2H18CH12CH2SC4H2C2HNC11NH3CH21C2HCH7CH2CH4CHCH5CHCH2SHSHFeH3CHSH3CH2C3H5C6H2CH3CH2CH2CHCH3C2H3CH2NCH6CH2CH3CH2CH5CSH2SH2FeS2FeSFeS5Fe2S2Fe2S2FeS2FeSHS2HC6H7C6H4C6H4C6H5C2H2C2HCHC2HCH5C2HFeH2C2HCH6C2H2NH3C3SH4CHCH4CHC3H7NC6HCH2C2H7CH4CH3CHFeHCH5NHC2H2SH2SH2NC12H30SCHC2HCH5C2H2C2NCH3CHCH3CH2CH3C2H2C2H20CH5FeCNHCHC3FeS2FeS2FeSFeS2FeS2FeS2FeSFeS2HSFeS2HS3HC7HCH2C6H4C3H2C6H4C6H4C2H8CHCHCNC12H27FeH4CNHC7HCH3CH4CH4CSFeH6CHC2H5C4HCH2CHCH9CH3CH5C2H5CH4CH2CH4C2H2SH2CH4C2FeH2CSHNSCH2C3H2SCH3C2H3CH6CH2NH2CH3CH2CH5FeH5CH2CNH7CFeS2FeS2Fe2S3FeSFeS2FeSFeS3FeS2H4CHC2HCHCH2C7H5C6H4C6H4C6H13C4H3C2H2SH8SH5C2H6CH3C2H10SCH2CHC2H2SHC2H3CH2SH7C2H2SH2CHC4H3CH2CH5CNC6HCH2CH5CH2CHFeCH2C2H2CH3C2H3CNHC3H3C2H5CH4CH7CHCNC2H3C4HCH3NCH6C2SNH3CH3CHFeHSFeS2H2SCSFeS2FeS2FeSFeS3FeS2HFeSCHS3H3CHCHCH3CH2CHNCHC2SH2CH3C8H4C2H3C6H5CH2CHFeHCHC3H3CH4CH2C3HCHC2H8CH7CNC12H29C2H5C2H2CH2CH5NC4HCH4C2HCHCH4C2HCH2CH2C2H2CH5CHCH2C3HCHCH10SFeS2FeS2FeSFeS3FeS2FeHSC2SH6FeS2C2FeHFeHS2HCH5C2HC3H3CHC2HCHCHCHC6H4CH2C6H5CH4C2HCHFeH3C2HCH5CH3CH2CH2CH4C2H2SHNC6HC4H18CH2CHCH6CHCHCHC4H2FeC2NC8H2C2H12CH7CH5FeSNH6C3H5CHSH4CHCH3CSCH6CHCHCH2CH3SH3FeHC3H4C2HNHSHCSCHC6HFeS2H2FeS3CH2CH2SFeSFeSFeH3FeS2FeS2FeSFeS4C6H5CHCH3C6H2NHSCHCH3C3HCHCH3CHC2HC2H7CH5NH3C2H6C2HC2H2SH5FeC2H2CH6CH3CNH3C3H5C3H2C3H6NC12H28SC6H8CH3C2HCH5FeC3HNH3C2SNFeCFeS2FeSFeHS2CFeS2FeS2FeSFeS4CSFeSFeSFeSHSHNCH2C6H4C6H6C3HC3H2C2H2C3H5C2SHC2H3CHC2H2SH2C3HC3H2C3H2CH2CH7C2H3NHC2H4CH3C2HC2H4CH4C2H3CH3CH3CHCNH10CHCSH2CHCH2CH2C2H6CH3CH2C2HNC12H26CH2CSH2CHC2HCH4CH5CH5CH2FeC2H2NH4CH4CHFeCHCH2
_chemical_formula_sum              "S256 Fe128 C1152 H2048 N64"
_cell_length_a       51.1016
_cell_length_b       51.2183
_cell_length_c       28.5227
_cell_angle_alpha    89.8908
_cell_angle_beta     89.6782
_cell_angle_gamma    88.0554

_space_group_name_H-M_alt    "P 1"
_space_group_IT_number       1

loop_
  _space_group_symop_operation_xyz
  'x, y, z'

loop_
  _atom_site_type_symbol
  _atom_site_label
  _atom_site_symmetry_multiplicity
  _atom_site_fract_x
  _atom_site_fract_y
  _atom_site_fract_z
  _atom_site_occupancy
  S   S1        1.0  0.04195  0.36557  0.40838  1.0000
  Fe  Fe1       1.0  0.14916  0.08528  0.33407  1.0000
  S   S2        1.0  0.11449  0.09506  0.38133  1.0000
  S   S3        1.0  0.15602  0.04522  0.29894  1.0000
  Fe  Fe2       1.0  0.17095  0.13948  0.34584  1.0000
  S   S4        1.0  0.13765  0.15378  0.39110  1.0000
  S   S5        1.0  0.20414  0.16628  0.33036  1.0000
  Fe  Fe3       1.0  0.14261  0.11559  0.42919  1.0000
  Fe  Fe4       1.0  0.11227  0.13269  0.34115  1.0000
  S   S6        1.0  0.07567  0.15217  0.31163  1.0000
  S   S7        1.0  0.17770  0.10209  0.38602  1.0000
  S   S8        1.0  0.14524  0.12204  0.29147  1.0000
  S   S9        1.0  0.12085  0.41425  0.02385  1.0000
  Fe  Fe5       1.0  0.20746  0.36111  0.23746  1.0000
  S   S10       1.0  0.22183  0.38397  0.29925  1.0000
  S   S11       1.0  0.21212  0.37256  0.16030  1.0000
  Fe  Fe6       1.0  0.18788  0.31766  0.30069  1.0000
  S   S12       1.0  0.19993  0.33696  0.36765  1.0000
  S   S13       1.0  0.16282  0.28239  0.29502  1.0000
  Fe  Fe7       1.0  0.18356  0.37368  0.33342  1.0000
  S   S14       1.0  0.15703  0.40375  0.37001  1.0000
  Fe  Fe8       1.0  0.23746  0.34560  0.32923  1.0000
  S   S15       1.0  0.28003  0.33904  0.35515  1.0000
  S   S16       1.0  0.16854  0.35369  0.26976  1.0000
  S   S17       1.0  0.22615  0.32341  0.26404  1.0000
  S   S18       1.0  0.31324  0.19081  0.09267  1.0000
  C   C1        1.0  0.29364  0.34031  0.41295  1.0000
  H   H1        1.0  0.22395  0.02936  0.10655  1.0000
  H   H2        1.0  0.01739  0.11247  0.42800  1.0000
  H   H3        1.0  0.05178  0.06274  0.20697  1.0000
  C   C2        1.0  0.19240  0.05510  0.08036  1.0000
  C   C3        1.0  0.14660  0.40318  0.06144  1.0000
  C   C4        1.0  0.17233  0.39929  0.04525  1.0000
  C   C5        1.0  0.19220  0.39057  0.07629  1.0000
  C   C6        1.0  0.18652  0.38487  0.12346  1.0000
  C   C7        1.0  0.16075  0.38858  0.13956  1.0000
  C   C8        1.0  0.14099  0.39795  0.10884  1.0000
  H   H4        1.0  0.17701  0.40328  0.00895  1.0000
  H   H5        1.0  0.21210  0.38798  0.06358  1.0000
  H   H6        1.0  0.15605  0.38430  0.17573  1.0000
  H   H7        1.0  0.12117  0.40088  0.12179  1.0000
  C   C9        1.0  0.19287  0.19872  0.32209  1.0000
  C   C10       1.0  0.21034  0.21923  0.32460  1.0000
  C   C11       1.0  0.20145  0.24519  0.31686  1.0000
  C   C12       1.0  0.17507  0.25053  0.30630  1.0000
  C   C13       1.0  0.15769  0.23000  0.30423  1.0000
  C   C14       1.0  0.16652  0.20419  0.31221  1.0000
  H   H8        1.0  0.23069  0.21498  0.33261  1.0000
  H   H9        1.0  0.21490  0.26101  0.31876  1.0000
  H   H10       1.0  0.13730  0.23405  0.29609  1.0000
  H   H11       1.0  0.15297  0.18849  0.30983  1.0000
  H   H12       1.0  0.10536  0.31298  0.00808  1.0000
  H   H13       1.0  0.15155  0.28088  0.44061  1.0000
  H   H14       1.0  0.14574  0.35030  0.04770  1.0000
  C   C15       1.0  0.05059  0.21983  0.35064  1.0000
  H   H15       1.0  0.29277  0.13837  0.33435  1.0000
  H   H16       1.0  0.31271  0.27990  0.32302  1.0000
  C   C16       1.0  0.02271  0.15650  0.31810  1.0000
  C   C17       1.0  0.04550  0.14591  0.33853  1.0000
  C   C18       1.0  0.04358  0.13003  0.37826  1.0000
  H   H17       1.0  0.02201  0.45018  0.22933  1.0000
  H   H18       1.0  0.02401  0.46675  0.30996  1.0000
  H   H19       1.0  0.02414  0.16870  0.28725  1.0000
  H   H20       1.0  0.06111  0.12188  0.39446  1.0000
  H   H21       1.0  0.04208  0.44245  0.37578  1.0000
  C   C19       1.0  0.07360  0.37700  0.39773  1.0000
  C   C20       1.0  0.09228  0.36007  0.37664  1.0000
  C   C21       1.0  0.11783  0.36819  0.36800  1.0000
  C   C22       1.0  0.12497  0.39331  0.38067  1.0000
  C   C23       1.0  0.10637  0.41022  0.40229  1.0000
  C   C24       1.0  0.08072  0.40206  0.41093  1.0000
  H   H22       1.0  0.08702  0.34053  0.36689  1.0000
  H   H23       1.0  0.13206  0.35485  0.35198  1.0000
  H   H24       1.0  0.11193  0.42952  0.41282  1.0000
  H   H25       1.0  0.06667  0.41486  0.42870  1.0000
  C   C25       1.0  0.14985  0.03330  0.24119  1.0000
  C   C26       1.0  0.13992  0.04935  0.20514  1.0000
  C   C27       1.0  0.05027  0.07592  0.23776  1.0000
  H   H26       1.0  0.13574  0.06981  0.21200  1.0000
  H   H27       1.0  0.04511  0.26058  0.33411  1.0000
  H   H28       1.0  0.25726  0.34797  0.44942  1.0000
  H   H29       1.0  0.10149  0.19240  0.43658  1.0000
  H   H30       1.0  0.04699  0.35538  0.24495  1.0000
  N   N1        1.0  0.24383  0.14867  0.19372  1.0000
  C   C28       1.0  0.26899  0.14233  0.21960  1.0000
  H   H31       1.0  0.04929  0.40068  0.21795  1.0000
  C   C29       1.0  0.23636  0.17695  0.20376  1.0000
  C   C30       1.0  0.22162  0.13217  0.21021  1.0000
  C   C31       1.0  0.22618  0.10218  0.20771  1.0000
  C   C32       1.0  0.26789  0.14500  0.27380  1.0000
  C   C33       1.0  0.21204  0.18837  0.17728  1.0000
  H   H32       1.0  0.09978  0.36153  0.07082  1.0000
  C   C34       1.0  0.17182  0.27311  0.43426  1.0000
  C   C35       1.0  0.20354  0.08807  0.23084  1.0000
  H   H33       1.0  0.03972  0.06620  0.26657  1.0000
  C   C36       1.0  0.20850  0.21776  0.18565  1.0000
  H   H34       1.0  0.05262  0.47729  0.13888  1.0000
  H   H35       1.0  0.17265  0.45981  0.05160  1.0000
  H   H36       1.0  0.22911  0.14274  0.12341  1.0000
  C   C37       1.0  0.04342  0.45387  0.22820  1.0000
  H   H37       1.0  0.25323  0.18954  0.19579  1.0000
  H   H38       1.0  0.23179  0.17984  0.24161  1.0000
  H   H39       1.0  0.21589  0.13736  0.24678  1.0000
  H   H40       1.0  0.20371  0.13658  0.18930  1.0000
  H   H41       1.0  0.24433  0.09568  0.22599  1.0000
  H   H42       1.0  0.22711  0.09577  0.17061  1.0000
  H   H43       1.0  0.26437  0.16564  0.28446  1.0000
  H   H44       1.0  0.25227  0.13304  0.28911  1.0000
  H   H45       1.0  0.19397  0.17913  0.19001  1.0000
  H   H46       1.0  0.21372  0.18534  0.13888  1.0000
  H   H47       1.0  0.28838  0.13066  0.13154  1.0000
  H   H48       1.0  0.18573  0.28436  0.45538  1.0000
  H   H49       1.0  0.09353  0.06994  0.02826  1.0000
  C   C38       1.0  0.17427  0.46428  0.01357  1.0000
  H   H50       1.0  0.01840  0.48028  0.15590  1.0000
  H   H51       1.0  0.18471  0.09317  0.21323  1.0000
  H   H52       1.0  0.20702  0.06658  0.22840  1.0000
  H   H53       1.0  0.20186  0.09326  0.26860  1.0000
  C   C39       1.0  0.14106  0.01227  0.15018  1.0000
  C   C40       1.0  0.04577  0.46516  0.31104  1.0000
  H   H54       1.0  0.08579  0.23071  0.38808  1.0000
  H   H55       1.0  0.20582  0.22185  0.22359  1.0000
  H   H56       1.0  0.22575  0.22823  0.17243  1.0000
  H   H57       1.0  0.19080  0.22539  0.16705  1.0000
  H   H58       1.0  0.27626  0.12211  0.21236  1.0000
  H   H59       1.0  0.01672  0.13518  0.13412  1.0000
  C   C41       1.0  0.19216  0.49614  0.41276  1.0000
  H   H60       1.0  0.13330  0.41853  0.25544  1.0000
  H   H61       1.0  0.04052  0.11663  0.25187  1.0000
  H   H62       1.0  0.04644  0.36563  0.30520  1.0000
  H   H63       1.0  0.27808  0.36292  0.23024  1.0000
  C   C42       1.0  0.03616  0.24657  0.35890  1.0000
  H   H64       1.0  0.17660  0.27612  0.39671  1.0000
  C   C43       1.0  0.32090  0.33639  0.41874  1.0000
  H   H65       1.0  0.28395  0.26083  0.23520  1.0000
  H   H66       1.0  0.08998  0.08960  0.22763  1.0000
  H   H67       1.0  0.11579  0.08919  0.06127  1.0000
  N   N2        1.0  0.00800  0.10240  0.21247  1.0000
  H   H68       1.0  0.11311  0.31452  0.06994  1.0000
  H   H69       1.0  0.07474  0.45372  0.36497  1.0000
  H   H70       1.0  0.15897  0.45380  0.99443  1.0000
  H   H71       1.0  0.03481  0.14961  0.18131  1.0000
  C   C44       1.0  0.15537  0.00674  0.23120  1.0000
  N   N3        1.0  0.00683  0.24712  0.35293  1.0000
  H   H72       1.0  0.28761  0.25458  0.15874  1.0000
  C   C45       1.0  0.13550  0.03887  0.16007  1.0000
  H   H73       1.0  0.19112  0.34221  0.03818  1.0000
  H   H74       1.0  0.15498  0.25673  0.01436  1.0000
  H   H75       1.0  0.27007  0.23941  0.31139  1.0000
  C   C46       1.0  0.20652  0.08273  0.98872  1.0000
  N   N4        1.0  0.31475  0.28818  0.22453  1.0000
  H   H76       1.0  0.17624  0.31167  0.18557  1.0000
  H   H77       1.0  0.28159  0.25259  0.36575  1.0000
  H   H78       1.0  0.28323  0.28832  0.14145  1.0000
  C   C47       1.0  0.04675  0.41935  0.28793  1.0000
  H   H79       1.0  0.26547  0.10545  0.14173  1.0000
  H   H80       1.0  0.20397  0.47395  0.35086  1.0000
  H   H81       1.0  0.28474  0.15509  0.20647  1.0000
  H   H82       1.0  0.12893  0.49194  0.00848  1.0000
  C   C48       1.0  0.26815  0.12445  0.12418  1.0000
  H   H83       1.0  0.07385  0.34160  0.05019  1.0000
  C   C49       1.0  0.29588  0.27219  0.30369  1.0000
  H   H84       1.0  0.09383  0.43289  0.30049  1.0000
  H   H85       1.0  0.20988  0.03399  0.02103  1.0000
  H   H86       1.0  0.19424  0.23719  0.43658  1.0000
  H   H87       1.0  0.19187  0.01588  0.11086  1.0000
  H   H88       1.0  0.08783  0.06069  0.26336  1.0000
  H   H89       1.0  0.31537  0.40948  0.31628  1.0000
  C   C50       1.0  0.09365  0.34865  0.04185  1.0000
  N   N5        1.0  0.05591  0.44606  0.27428  1.0000
  H   H90       1.0  0.19325  0.19448  0.42909  1.0000
  H   H91       1.0  0.14489  0.50065  0.06132  1.0000
  Fe  Fe9       1.0  0.00566  0.39187  0.41431  1.0000
  C   C51       1.0  0.00675  0.29738  0.34287  1.0000
  C   C52       1.0  0.08552  0.44645  0.27328  1.0000
  H   H92       1.0  0.15219  0.29071  0.16152  1.0000
  H   H93       1.0  0.05273  0.48509  0.30351  1.0000
  C   C53       1.0  0.03693  0.10232  0.22338  1.0000
  H   H94       1.0  0.09247  0.36028  0.00894  1.0000
  C   C54       1.0  0.30687  0.26476  0.09470  1.0000
  C   C55       1.0  0.04588  0.48295  0.21386  1.0000
  C   C56       1.0  0.28726  0.24761  0.32909  1.0000
  C   C57       1.0  0.20297  0.03405  0.11405  1.0000
  H   H95       1.0  0.18680  0.28337  0.15227  1.0000
  H   H96       1.0  0.12783  0.05149  0.13263  1.0000
  H   H97       1.0  0.30629  0.32881  0.15555  1.0000
  H   H98       1.0  0.31521  0.28202  0.07720  1.0000
  C   C58       1.0  0.05357  0.45891  0.36241  1.0000
  H   H99       1.0  0.07602  0.39216  0.25725  1.0000
  H   H100      1.0  0.29780  0.11466  0.28839  1.0000
  H   H101      1.0  0.24674  0.11233  0.06249  1.0000
  C   C59       1.0  0.14270  0.26997  0.99196  1.0000
  H   H102      1.0  0.16201  0.09163  0.03466  1.0000
  H   H103      1.0  0.31548  0.24823  0.24978  1.0000
  H   H104      1.0  0.09216  0.42193  0.20964  1.0000
  H   H105      1.0  0.13696  0.04774  0.03329  1.0000
  H   H106      1.0  0.20433  0.31288  0.01306  1.0000
  H   H107      1.0  0.32195  0.24861  0.09550  1.0000
  H   H108      1.0  0.23991  0.18823  0.45197  1.0000
  H   H109      1.0  0.12404  0.27418  0.01070  1.0000
  C   C60       1.0  0.19852  0.47023  0.38796  1.0000
  H   H110      1.0  0.02151  0.22508  0.44176  1.0000
  H   H111      1.0  0.02502  0.42001  0.29171  1.0000
  C   C61       1.0  0.32489  0.39120  0.30254  1.0000
  C   C62       1.0  0.29381  0.13573  0.29574  1.0000
  C   C63       1.0  0.01878  0.12463  0.39709  1.0000
  H   H112      1.0  0.05460  0.41333  0.32270  1.0000
  H   H113      1.0  0.15985  0.23389  0.42398  1.0000
  H   H114      1.0  0.31025  0.14715  0.28174  1.0000
  C   C64       1.0  0.28205  0.35624  0.19377  1.0000
  H   H115      1.0  0.29005  0.25821  0.07374  1.0000
  H   H116      1.0  0.28157  0.10561  0.05987  1.0000
  N   N6        1.0  0.16215  0.31390  0.02058  1.0000
  H   H117      1.0  0.01555  0.04528  0.10764  1.0000
  H   H118      1.0  0.05411  0.47702  0.43105  1.0000
  H   H119      1.0  0.01936  0.08900  0.14304  1.0000
  H   H120      1.0  0.27581  0.30499  0.21271  1.0000
  H   H121      1.0  0.27936  0.28680  0.30597  1.0000
  H   H122      1.0  0.05016  0.00489  0.00594  1.0000
  H   H123      1.0  0.08726  0.23557  0.32527  1.0000
  C   C65       1.0  0.09944  0.43980  0.22601  1.0000
  H   H124      1.0  0.26240  0.20283  0.05320  1.0000
  C   C66       1.0  0.04783  0.48213  0.39487  1.0000
  H   H125      1.0  0.13820  0.34464  0.98856  1.0000
  C   C67       1.0  0.07817  0.07988  0.25496  1.0000
  C   C68       1.0  0.11297  0.32540  0.03632  1.0000
  C   C69       1.0  0.16527  0.29929  0.06647  1.0000
  C   C70       1.0  0.27406  0.19326  0.02609  1.0000
  C   C71       1.0  0.05462  0.39645  0.25484  1.0000
  C   C72       1.0  0.12898  0.43581  0.23274  1.0000
  H   H126      1.0  0.05850  0.49945  0.38294  1.0000
  C   C73       1.0  0.17097  0.31601  0.11046  1.0000
  H   H127      1.0  0.01795  0.00727  0.43477  1.0000
  C   C74       1.0  0.30339  0.33463  0.19269  1.0000
  C   C75       1.0  0.30009  0.18507  0.03586  1.0000
  C   C76       1.0  0.30269  0.26626  0.25159  1.0000
  C   C77       1.0  0.17155  0.29929  0.15496  1.0000
  C   C78       1.0  0.04094  0.37152  0.26902  1.0000
  H   H128      1.0  0.18149  0.28427  0.06321  1.0000
  H   H129      1.0  0.14758  0.28824  0.07498  1.0000
  H   H130      1.0  0.32170  0.34308  0.20560  1.0000
  H   H131      1.0  0.05115  0.44165  0.19891  1.0000
  H   H132      1.0  0.09241  0.46607  0.28331  1.0000
  H   H133      1.0  0.18534  0.16503  0.45917  1.0000
  H   H134      1.0  0.19373  0.45694  0.00082  1.0000
  H   H135      1.0  0.00484  0.22156  0.29284  1.0000
  H   H136      1.0  0.09629  0.45606  0.20066  1.0000
  H   H137      1.0  0.09030  0.20316  0.34937  1.0000
  H   H138      1.0  0.19037  0.32497  0.10759  1.0000
  H   H139      1.0  0.15574  0.33169  0.11560  1.0000
  C   C79       1.0  0.15766  0.29514  0.98054  1.0000
  C   C80       1.0  0.24808  0.14590  0.14125  1.0000
  H   H140      1.0  0.25547  0.16439  0.12607  1.0000
  H   H141      1.0  0.01912  0.05079  0.39084  1.0000
  H   H142      1.0  0.17255  0.06146  0.09269  1.0000
  H   H143      1.0  0.04835  0.10892  0.19252  1.0000
  C   C81       1.0  0.18554  0.49173  0.46539  1.0000
  H   H144      1.0  0.01932  0.37444  0.26718  1.0000
  H   H145      1.0  0.04486  0.20527  0.37735  1.0000
  C   C82       1.0  0.31476  0.17251  0.00048  1.0000
  H   H146      1.0  0.07790  0.09202  0.28723  1.0000
  C   C83       1.0  0.29766  0.27175  0.14439  1.0000
  C   C84       1.0  0.11148  0.08151  0.02584  1.0000
  C   C85       1.0  0.33257  0.33722  0.46366  1.0000
  H   H147      1.0  0.02728  0.30049  0.35365  1.0000
  C   C86       1.0  0.19808  0.18219  0.45997  1.0000
  H   H148      1.0  0.21517  0.45962  0.40525  1.0000
  C   C87       1.0  0.18753  0.32731  0.01102  1.0000
  H   H149      1.0  0.13740  0.45333  0.24894  1.0000
  H   H150      1.0  0.22833  0.15982  0.42243  1.0000
  H   H151      1.0  0.02657  0.48717  0.39575  1.0000
  C   C88       1.0  0.22635  0.17180  0.45472  1.0000
  H   H152      1.0  0.20545  0.07179  0.08333  1.0000
  H   H153      1.0  0.31525  0.18455  0.37107  1.0000
  C   C89       1.0  0.27820  0.34492  0.45300  1.0000
  C   C90       1.0  0.08026  0.22258  0.35360  1.0000
  H   H154      1.0  0.04617  0.21198  0.31545  1.0000
  C   C91       1.0  0.14051  0.33463  0.02298  1.0000
  H   H155      1.0  0.29256  0.31915  0.25962  1.0000
  H   H156      1.0  0.13866  0.43243  0.19823  1.0000
  H   H157      1.0  0.32992  0.40568  0.23284  1.0000
  H   H158      1.0  0.01300  0.04724  0.19526  1.0000
  H   H159      1.0  0.04144  0.25366  0.39439  1.0000
  H   H160      1.0  0.26368  0.34903  0.17865  1.0000
  H   H161      1.0  0.30350  0.23264  0.32991  1.0000
  H   H162      1.0  0.28825  0.37319  0.17261  1.0000
  C   C92       1.0  0.17408  0.24399  0.44616  1.0000
  C   C93       1.0  0.19091  0.04436  0.02957  1.0000
  H   H163      1.0  0.30929  0.37796  0.29162  1.0000
  C   C94       1.0  0.17125  0.49365  0.00474  1.0000
  H   H164      1.0  0.14931  0.19648  0.45336  1.0000
  C   C95       1.0  0.29553  0.31118  0.22362  1.0000
  C   C96       1.0  0.01493  0.14598  0.16777  1.0000
  H   H165      1.0  0.18120  0.45767  0.38832  1.0000
  C   C97       1.0  0.32122  0.27862  0.17564  1.0000
  H   H166      1.0  0.22159  0.36615  0.98483  1.0000
  H   H167      1.0  0.20104  0.04108  0.15077  1.0000
  H   H168      1.0  0.33314  0.33279  0.38823  1.0000
  H   H169      1.0  0.33208  0.17817  0.45222  1.0000
  H   H170      1.0  0.06607  0.48963  0.21917  1.0000
  H   H171      1.0  0.33396  0.26061  0.17710  1.0000
  H   H172      1.0  0.00649  0.29489  0.30432  1.0000
  H   H173      1.0  0.00440  0.02245  0.00999  1.0000
  H   H174      1.0  0.03229  0.49545  0.23543  1.0000
  H   H175      1.0  0.01386  0.25351  0.27850  1.0000
  H   H176      1.0  0.33293  0.29312  0.15645  1.0000
  H   H177      1.0  0.17639  0.02877  0.03146  1.0000
  N   N7        1.0  0.18423  0.06404  0.99149  1.0000
  H   H178      1.0  0.22558  0.07155  0.98560  1.0000
  H   H179      1.0  0.20761  0.09448  0.02121  1.0000
  H   H180      1.0  0.01433  0.18377  0.13317  1.0000
  C   C98       1.0  0.26613  0.12004  0.07135  1.0000
  H   H181      1.0  0.33458  0.16562  0.00765  1.0000
  C   C99       1.0  0.13429  0.06406  0.00810  1.0000
  C   C100      1.0  0.15945  0.07971  0.00253  1.0000
  C   C101      1.0  0.33561  0.18063  0.35848  1.0000
  H   H182      1.0  0.23205  0.13024  0.98037  1.0000
  C   C102      1.0  0.03832  0.48744  0.16264  1.0000
  H   H183      1.0  0.33536  0.30823  0.27955  1.0000
  H   H184      1.0  0.10767  0.09811  0.00137  1.0000
  H   H185      1.0  0.17256  0.47471  0.46787  1.0000
  H   H186      1.0  0.26896  0.13853  0.05188  1.0000
  C   C103      1.0  0.09807  0.19212  0.47500  1.0000
  C   C104      1.0  0.26303  0.18944  0.98130  1.0000
  H   H187      1.0  0.33623  0.38140  0.33110  1.0000
  S   S19       1.0  0.03090  0.15072  0.90065  1.0000
  Fe  Fe10      1.0  0.17379  0.14861  0.84630  1.0000
  S   S20       1.0  0.15923  0.17243  0.78517  1.0000
  S   S21       1.0  0.15012  0.11583  0.87639  1.0000
  Fe  Fe11      1.0  0.22587  0.17613  0.85186  1.0000
  S   S22       1.0  0.21541  0.20216  0.78975  1.0000
  S   S23       1.0  0.26663  0.17519  0.88653  1.0000
  Fe  Fe12      1.0  0.17573  0.20636  0.82392  1.0000
  S   S24       1.0  0.14812  0.24191  0.82634  1.0000
  Fe  Fe13      1.0  0.19945  0.16641  0.75473  1.0000
  S   S25       1.0  0.20789  0.15704  0.67705  1.0000
  S   S26       1.0  0.18696  0.18287  0.88819  1.0000
  S   S27       1.0  0.21326  0.14002  0.81371  1.0000
  S   S28       1.0  0.13539  0.11885  0.50891  1.0000
  Fe  Fe14      1.0  0.12785  0.44656  0.85201  1.0000
  S   S29       1.0  0.09369  0.43799  0.89957  1.0000
  S   S30       1.0  0.13308  0.48882  0.82719  1.0000
  Fe  Fe15      1.0  0.14906  0.38964  0.85818  1.0000
  S   S31       1.0  0.11635  0.37730  0.90486  1.0000
  S   S32       1.0  0.18151  0.36001  0.83973  1.0000
  Fe  Fe16      1.0  0.09037  0.40140  0.85697  1.0000
  S   S33       1.0  0.05473  0.38532  0.82120  1.0000
  Fe  Fe17      1.0  0.12287  0.41461  0.94367  1.0000
  S   S34       1.0  0.12289  0.41115  0.80689  1.0000
  S   S35       1.0  0.15727  0.42586  0.89967  1.0000
  C   C105      1.0  0.01023  0.27010  0.88383  1.0000
  C   C106      1.0  0.01815  0.41318  0.69306  1.0000
  C   C107      1.0  0.31711  0.34193  0.50371  1.0000
  H   H188      1.0  0.03736  0.09491  0.75720  1.0000
  H   H189      1.0  0.04242  0.00605  0.84965  1.0000
  C   C108      1.0  0.03862  0.35773  0.65951  1.0000
  H   H190      1.0  0.25169  0.32800  0.66901  1.0000
  C   C109      1.0  0.27801  0.17755  0.94547  1.0000
  C   C110      1.0  0.24863  0.34060  0.70027  1.0000
  C   C111      1.0  0.22193  0.33439  0.72131  1.0000
  H   H191      1.0  0.21061  0.21068  0.51126  1.0000
  C   C112      1.0  0.15833  0.27444  0.82958  1.0000
  C   C113      1.0  0.13910  0.29464  0.82980  1.0000
  C   C114      1.0  0.14604  0.32086  0.83318  1.0000
  C   C115      1.0  0.17239  0.32715  0.83571  1.0000
  C   C116      1.0  0.19174  0.30697  0.83517  1.0000
  C   C117      1.0  0.18474  0.28063  0.83239  1.0000
  H   H192      1.0  0.11872  0.28993  0.82677  1.0000
  H   H193      1.0  0.13101  0.33623  0.83280  1.0000
  H   H194      1.0  0.21216  0.31174  0.83710  1.0000
  H   H195      1.0  0.19969  0.26516  0.83214  1.0000
  C   C118      1.0  0.15603  0.12914  0.55525  1.0000
  C   C119      1.0  0.14461  0.13651  0.59854  1.0000
  C   C120      1.0  0.16008  0.14490  0.63623  1.0000
  C   C121      1.0  0.18733  0.14572  0.63138  1.0000
  C   C122      1.0  0.19873  0.13820  0.58819  1.0000
  C   C123      1.0  0.18323  0.13010  0.55031  1.0000
  H   H196      1.0  0.12360  0.13597  0.60265  1.0000
  H   H197      1.0  0.15099  0.15111  0.66876  1.0000
  H   H198      1.0  0.21976  0.13868  0.58392  1.0000
  H   H199      1.0  0.19239  0.12427  0.51750  1.0000
  C   C124      1.0  0.06404  0.14020  0.89805  1.0000
  C   C125      1.0  0.07185  0.11377  0.90059  1.0000
  C   C126      1.0  0.09848  0.10630  0.89512  1.0000
  C   C127      1.0  0.11720  0.12523  0.88666  1.0000
  C   C128      1.0  0.10940  0.15159  0.88502  1.0000
  C   C129      1.0  0.08299  0.15903  0.89128  1.0000
  H   H200      1.0  0.05736  0.09914  0.90612  1.0000
  H   H201      1.0  0.10449  0.08587  0.89653  1.0000
  H   H202      1.0  0.12372  0.16631  0.87879  1.0000
  H   H203      1.0  0.07723  0.17949  0.88994  1.0000
  H   H204      1.0  0.01487  0.32558  0.77050  1.0000
  H   H205      1.0  0.12845  0.05629  0.97355  1.0000
  C   C130      1.0  0.02231  0.38939  0.84209  1.0000
  H   H206      1.0  0.02378  0.40434  0.53715  1.0000
  H   H207      1.0  0.04668  0.09425  0.68276  1.0000
  H   H208      1.0  0.03195  0.40462  0.90990  1.0000
  H   H209      1.0  0.01988  0.00310  0.51613  1.0000
  H   H210      1.0  0.09927  0.17153  0.48752  1.0000
  C   C131      1.0  0.30380  0.16885  0.95568  1.0000
  C   C132      1.0  0.12248  0.48547  0.73130  1.0000
  H   H211      1.0  0.03270  0.42611  0.67707  1.0000
  H   H212      1.0  0.11833  0.46519  0.73753  1.0000
  C   C133      1.0  0.05565  0.11288  0.67274  1.0000
  N   N8        1.0  0.08899  0.11457  0.74120  1.0000
  C   C134      1.0  0.07549  0.13846  0.76245  1.0000
  C   C135      1.0  0.08050  0.09011  0.76633  1.0000
  C   C136      1.0  0.11809  0.11694  0.74875  1.0000
  C   C137      1.0  0.08445  0.11273  0.68911  1.0000
  C   C138      1.0  0.05406  0.11499  0.61931  1.0000
  H   H213      1.0  0.03330  0.11433  0.60815  1.0000
  C   C139      1.0  0.13580  0.09324  0.73296  1.0000
  C   C140      1.0  0.05177  0.08971  0.78468  1.0000
  H   H214      1.0  0.33275  0.34558  0.87436  1.0000
  C   C141      1.0  0.16452  0.09752  0.74454  1.0000
  H   H215      1.0  0.07982  0.13914  0.80059  1.0000
  H   H216      1.0  0.29722  0.35220  0.81690  1.0000
  H   H217      1.0  0.08402  0.07264  0.74365  1.0000
  H   H218      1.0  0.09273  0.08649  0.79815  1.0000
  H   H219      1.0  0.12212  0.12063  0.78646  1.0000
  H   H220      1.0  0.12555  0.13399  0.72945  1.0000
  H   H221      1.0  0.09455  0.12865  0.67044  1.0000
  H   H222      1.0  0.21753  0.36335  0.92245  1.0000
  H   H223      1.0  0.01560  0.27187  0.92121  1.0000
  H   H224      1.0  0.10343  0.16938  0.74698  1.0000
  H   H225      1.0  0.07800  0.20019  0.48206  1.0000
  H   H226      1.0  0.13476  0.09046  0.69446  1.0000
  H   H227      1.0  0.13010  0.07496  0.75059  1.0000
  H   H228      1.0  0.18670  0.00853  0.95910  1.0000
  H   H229      1.0  0.22862  0.13359  0.91802  1.0000
  C   C142      1.0  0.19419  0.19713  0.50701  1.0000
  H   H230      1.0  0.04519  0.18494  0.75882  1.0000
  H   H231      1.0  0.05738  0.40437  0.62663  1.0000
  H   H232      1.0  0.16724  0.09905  0.78298  1.0000
  H   H233      1.0  0.17685  0.08077  0.73154  1.0000
  H   H234      1.0  0.17141  0.11558  0.72749  1.0000
  H   H235      1.0  0.15501  0.24899  0.92883  1.0000
  H   H236      1.0  0.17472  0.46812  0.63693  1.0000
  H   H237      1.0  0.11604  0.22877  0.48665  1.0000
  H   H238      1.0  0.14954  0.48895  0.57427  1.0000
  H   H239      1.0  0.03451  0.32764  0.83934  1.0000
  H   H240      1.0  0.02330  0.24347  0.82675  1.0000
  H   H241      1.0  0.18558  0.32883  0.93347  1.0000
  H   H242      1.0  0.23177  0.33626  0.95486  1.0000
  C   C143      1.0  0.17181  0.02241  0.94390  1.0000
  H   H243      1.0  0.31504  0.28779  0.70023  1.0000
  H   H244      1.0  0.13651  0.49599  0.50261  1.0000
  C   C144      1.0  0.06647  0.18748  0.76422  1.0000
  H   H245      1.0  0.07680  0.32511  0.70218  1.0000
  H   H246      1.0  0.12601  0.23699  0.95636  1.0000
  C   C145      1.0  0.07411  0.34477  0.71823  1.0000
  H   H247      1.0  0.05957  0.34388  0.74723  1.0000
  C   C146      1.0  0.00939  0.36358  0.59204  1.0000
  H   H248      1.0  0.01487  0.27954  0.79006  1.0000
  H   H249      1.0  0.05861  0.38016  0.58244  1.0000
  H   H250      1.0  0.12410  0.26707  0.92348  1.0000
  H   H251      1.0  0.08516  0.32799  0.93249  1.0000
  H   H252      1.0  0.08921  0.30413  0.88658  1.0000
  H   H253      1.0  0.07047  0.18813  0.80244  1.0000
  H   H254      1.0  0.02528  0.35192  0.68848  1.0000
  C   C147      1.0  0.31711  0.33155  0.75766  1.0000
  H   H255      1.0  0.06626  0.44055  0.57187  1.0000
  H   H256      1.0  0.02481  0.06336  0.81774  1.0000
  H   H257      1.0  0.18505  0.24956  0.51735  1.0000
  H   H258      1.0  0.01984  0.42811  0.58349  1.0000
  C   C148      1.0  0.32764  0.37955  0.69741  1.0000
  H   H259      1.0  0.31099  0.22297  0.95078  1.0000
  C   C149      1.0  0.18301  0.48506  0.61833  1.0000
  H   H260      1.0  0.29371  0.26638  0.95611  1.0000
  H   H261      1.0  0.15353  0.02067  0.96448  1.0000
  H   H262      1.0  0.22154  0.31363  0.73259  1.0000
  C   C150      1.0  0.16914  0.23947  0.49912  1.0000
  C   C151      1.0  0.08256  0.16524  0.74117  1.0000
  H   H263      1.0  0.31284  0.31107  0.76742  1.0000
  H   H264      1.0  0.31370  0.22331  0.88936  1.0000
  H   H265      1.0  0.19742  0.18175  0.53406  1.0000
  C   C152      1.0  0.03382  0.41403  0.56641  1.0000
  C   C153      1.0  0.03584  0.30837  0.85745  1.0000
  C   C154      1.0  0.04873  0.31388  0.90518  1.0000
  C   C155      1.0  0.02923  0.24890  0.86267  1.0000
  C   C156      1.0  0.29728  0.25918  0.91981  1.0000
  H   H266      1.0  0.02288  0.35317  0.56687  1.0000
  C   C157      1.0  0.06521  0.36493  0.68152  1.0000
  C   C158      1.0  0.07720  0.32129  0.89864  1.0000
  H   H267      1.0  0.17006  0.06286  0.91992  1.0000
  C   C159      1.0  0.32875  0.40931  0.69850  1.0000
  C   C160      1.0  0.31701  0.23543  0.92083  1.0000
  H   H268      1.0  0.20367  0.09366  0.91343  1.0000
  H   H269      1.0  0.04257  0.20897  0.87518  1.0000
  H   H270      1.0  0.05389  0.13746  0.76037  1.0000
  C   C161      1.0  0.13023  0.50107  0.76868  1.0000
  H   H271      1.0  0.20431  0.48482  0.48171  1.0000
  H   H272      1.0  0.04966  0.29631  0.83554  1.0000
  H   H273      1.0  0.20640  0.33787  0.69472  1.0000
  H   H274      1.0  0.04873  0.29672  0.92882  1.0000
  H   H275      1.0  0.03822  0.33064  0.92243  1.0000
  H   H276      1.0  0.18849  0.11703  0.95306  1.0000
  H   H277      1.0  0.04962  0.25564  0.86169  1.0000
  H   H278      1.0  0.23195  0.15921  0.48507  1.0000
  H   H279      1.0  0.04327  0.33946  0.63944  1.0000
  H   H280      1.0  0.14744  0.30545  0.95101  1.0000
  H   H281      1.0  0.32566  0.41669  0.73478  1.0000
  H   H282      1.0  0.06441  0.38430  0.69859  1.0000
  N   N9        1.0  0.02501  0.37788  0.62825  1.0000
  H   H283      1.0  0.15097  0.02604  0.87752  1.0000
  H   H284      1.0  0.20460  0.48199  0.61603  1.0000
  H   H285      1.0  0.24775  0.10652  0.94130  1.0000
  H   H286      1.0  0.32216  0.31481  0.85184  1.0000
  H   H287      1.0  0.06520  0.09851  0.60236  1.0000
  H   H288      1.0  0.04683  0.04780  0.77607  1.0000
  H   H289      1.0  0.06208  0.13371  0.60698  1.0000
  H   H290      1.0  0.03615  0.22739  0.92800  1.0000
  N   N10       1.0  0.16816  0.21145  0.51532  1.0000
  H   H291      1.0  0.07191  0.20644  0.74861  1.0000
  N   N11       1.0  0.29821  0.34132  0.72051  1.0000
  C   C162      1.0  0.30471  0.32745  0.67512  1.0000
  C   C163      1.0  0.30028  0.37033  0.71277  1.0000
  H   H292      1.0  0.33183  0.37325  0.66082  1.0000
  C   C164      1.0  0.27071  0.33598  0.73684  1.0000
  H   H293      1.0  0.31544  0.15926  0.92856  1.0000
  C   C165      1.0  0.30126  0.29747  0.67521  1.0000
  H   H294      1.0  0.31367  0.41830  0.67503  1.0000
  C   C166      1.0  0.00613  0.39502  0.65629  1.0000
  H   H295      1.0  0.14682  0.17648  0.50361  1.0000
  C   C167      1.0  0.30694  0.28592  0.62667  1.0000
  H   H296      1.0  0.32739  0.28954  0.61570  1.0000
  C   C168      1.0  0.31729  0.34771  0.80371  1.0000
  H   H297      1.0  0.29324  0.33626  0.64562  1.0000
  H   H298      1.0  0.28667  0.37715  0.68469  1.0000
  H   H299      1.0  0.29387  0.38137  0.74465  1.0000
  C   C169      1.0  0.02926  0.22384  0.89177  1.0000
  H   H300      1.0  0.25709  0.26899  0.90009  1.0000
  H   H301      1.0  0.04392  0.12950  0.68757  1.0000
  C   C170      1.0  0.33209  0.33307  0.84265  1.0000
  H   H302      1.0  0.21736  0.34715  0.75198  1.0000
  C   C171      1.0  0.21682  0.35250  0.95616  1.0000
  N   N12       1.0  0.00932  0.29637  0.85949  1.0000
  H   H303      1.0  0.28104  0.29240  0.68507  1.0000
  H   H304      1.0  0.26527  0.34852  0.76741  1.0000
  C   C172      1.0  0.17109  0.48754  0.56940  1.0000
  H   H305      1.0  0.32706  0.36648  0.79773  1.0000
  H   H306      1.0  0.11288  0.20826  0.53789  1.0000
  H   H307      1.0  0.32368  0.25871  0.83251  1.0000
  H   H308      1.0  0.32552  0.33033  0.66528  1.0000
  C   C173      1.0  0.01635  0.39883  0.88704  1.0000
  H   H309      1.0  0.09307  0.35045  0.73342  1.0000
  H   H310      1.0  0.30430  0.26449  0.62744  1.0000
  H   H311      1.0  0.26945  0.31559  0.75005  1.0000
  H   H312      1.0  0.09359  0.09436  0.67493  1.0000
  C   C174      1.0  0.05579  0.42963  0.54452  1.0000
  H   H313      1.0  0.00633  0.37498  0.77782  1.0000
  H   H314      1.0  0.05859  0.05726  0.83329  1.0000
  H   H315      1.0  0.20191  0.04865  0.92726  1.0000
  H   H316      1.0  0.27320  0.24494  0.86282  1.0000
  C   C175      1.0  0.16259  0.21157  0.56753  1.0000
  H   H317      1.0  0.27760  0.34931  0.52838  1.0000
  C   C176      1.0  0.18226  0.05060  0.94436  1.0000
  H   H318      1.0  0.02751  0.40148  0.72141  1.0000
  C   C177      1.0  0.18518  0.22002  0.59998  1.0000
  H   H319      1.0  0.24755  0.36125  0.68854  1.0000
  C   C178      1.0  0.04524  0.06283  0.80404  1.0000
  H   H320      1.0  0.07872  0.33734  0.87260  1.0000
  C   C179      1.0  0.17602  0.22172  0.65108  1.0000
  H   H321      1.0  0.29339  0.29475  0.60023  1.0000
  C   C180      1.0  0.20536  0.10309  0.94822  1.0000
  H   H322      1.0  0.08062  0.36529  0.65388  1.0000
  C   C181      1.0  0.04490  0.39362  0.60211  1.0000
  H   H323      1.0  0.15713  0.19169  0.57931  1.0000
  H   H324      1.0  0.14551  0.22483  0.57582  1.0000
  C   C182      1.0  0.14638  0.19726  0.49183  1.0000
  H   H325      1.0  0.17537  0.35881  0.96187  1.0000
  H   H326      1.0  0.17618  0.46937  0.54978  1.0000
  C   C183      1.0  0.16641  0.01334  0.89397  1.0000
  H   H327      1.0  0.02446  0.01472  0.93530  1.0000
  C   C184      1.0  0.27089  0.25176  0.89963  1.0000
  H   H328      1.0  0.19241  0.23941  0.59000  1.0000
  H   H329      1.0  0.20195  0.20568  0.59873  1.0000
  H   H330      1.0  0.11442  0.48376  0.65711  1.0000
  C   C185      1.0  0.23000  0.11923  0.94717  1.0000
  H   H331      1.0  0.30486  0.27556  0.89887  1.0000
  H   H332      1.0  0.07855  0.16589  0.70300  1.0000
  H   H333      1.0  0.24319  0.19628  0.97414  1.0000
  S   S36       1.0  0.33050  0.34316  0.56169  1.0000
  H   H334      1.0  0.04738  0.44390  0.51888  1.0000
  H   H335      1.0  0.00942  0.21572  0.89313  1.0000
  H   H336      1.0  0.04882  0.10391  0.81375  1.0000
  H   H337      1.0  0.19279  0.22637  0.67390  1.0000
  H   H338      1.0  0.16054  0.23728  0.65546  1.0000
  H   H339      1.0  0.16831  0.20278  0.66294  1.0000
  H   H340      1.0  0.15090  0.25053  0.50936  1.0000
  C   C186      1.0  0.12021  0.49611  0.68568  1.0000
  H   H341      1.0  0.06995  0.41640  0.52566  1.0000
  C   C187      1.0  0.28985  0.34566  0.49789  1.0000
  H   H342      1.0  0.26227  0.23596  0.92080  1.0000
  C   C188      1.0  0.13658  0.25493  0.94738  1.0000
  H   H343      1.0  0.15508  0.09410  0.97416  1.0000
  H   H344      1.0  0.18454  0.01366  0.87231  1.0000
  C   C189      1.0  0.18949  0.34189  0.96335  1.0000
  H   H345      1.0  0.00597  0.44288  0.74353  1.0000
  H   H346      1.0  0.02140  0.03278  0.58472  1.0000
  C   C190      1.0  0.11815  0.20849  0.50014  1.0000
  H   H347      1.0  0.17363  0.49670  0.96650  1.0000
  H   H348      1.0  0.17671  0.28785  0.96534  1.0000
  H   H349      1.0  0.00723  0.00622  0.61728  1.0000
  H   H350      1.0  0.00401  0.31101  0.95622  1.0000
  C   C191      1.0  0.28703  0.66900  0.00151  1.0000
  S   S37       1.0  0.15549  0.60047  0.42563  1.0000
  Fe  Fe18      1.0  0.24465  0.68496  0.11561  1.0000
  S   S38       1.0  0.22824  0.71525  0.16660  1.0000
  S   S39       1.0  0.28801  0.68714  0.09378  1.0000
  Fe  Fe19      1.0  0.19153  0.65948  0.10783  1.0000
  S   S40       1.0  0.17154  0.68774  0.15721  1.0000
  S   S41       1.0  0.16778  0.63071  0.06702  1.0000
  Fe  Fe20      1.0  0.19356  0.71836  0.11872  1.0000
  S   S42       1.0  0.16979  0.75289  0.08989  1.0000
  Fe  Fe21      1.0  0.20738  0.68210  0.20195  1.0000
  S   S43       1.0  0.20376  0.68315  0.28244  1.0000
  S   S44       1.0  0.21113  0.69044  0.06576  1.0000
  S   S45       1.0  0.22645  0.65144  0.15468  1.0000
  Fe  Fe22      1.0  0.16178  0.90173  0.07028  1.0000
  H   H351      1.0  0.09571  0.53854  0.46841  1.0000
  S   S46       1.0  0.18514  0.87384  0.11767  1.0000
  Fe  Fe23      1.0  0.14101  0.95830  0.06353  1.0000
  S   S47       1.0  0.12163  0.95036  0.99404  1.0000
  H   H352      1.0  0.01821  0.79559  0.08310  1.0000
  Fe  Fe24      1.0  0.10848  0.91318  0.02687  1.0000
  H   H353      1.0  0.03987  0.57042  0.47222  1.0000
  H   H354      1.0  0.09997  0.72090  0.44938  1.0000
  S   S48       1.0  0.12501  0.92237  0.09757  1.0000
  S   S49       1.0  0.17896  0.93830  0.04019  1.0000
  S   S50       1.0  0.05526  0.61128  0.15166  1.0000
  C   C192      1.0  0.15102  0.99628  0.18617  1.0000
  H   H355      1.0  0.17601  0.50615  0.39349  1.0000
  H   H356      1.0  0.09451  0.69633  0.04386  1.0000
  H   H357      1.0  0.15558  0.97586  0.17929  1.0000
  C   C193      1.0  0.02291  0.95703  0.45308  1.0000
  C   C194      1.0  0.04217  0.89456  0.04280  1.0000
  C   C195      1.0  0.03991  0.90920  0.08397  1.0000
  C   C196      1.0  0.10885  0.79305  0.18659  1.0000
  C   C197      1.0  0.12913  0.68814  0.26176  1.0000
  C   C198      1.0  0.02109  0.87972  0.02842  1.0000
  H   H358      1.0  0.05620  0.92035  0.09573  1.0000
  H   H359      1.0  0.12016  0.54473  0.10654  1.0000
  C   C199      1.0  0.17887  0.78567  0.09486  1.0000
  C   C200      1.0  0.17028  0.80342  0.06032  1.0000
  C   C201      1.0  0.17315  0.83035  0.06626  1.0000
  C   C202      1.0  0.18416  0.83989  0.10721  1.0000
  C   C203      1.0  0.19381  0.82209  0.14104  1.0000
  C   C204      1.0  0.19136  0.79498  0.13475  1.0000
  C   C205      1.0  0.31872  0.61457  0.09599  1.0000
  H   H360      1.0  0.16645  0.84370  0.03935  1.0000
  H   H361      1.0  0.20245  0.82932  0.17279  1.0000
  H   H362      1.0  0.19792  0.78142  0.16169  1.0000
  C   C206      1.0  0.13639  0.62540  0.09005  1.0000
  C   C207      1.0  0.11584  0.61916  0.05999  1.0000
  C   C208      1.0  0.09063  0.61498  0.07812  1.0000
  C   C209      1.0  0.08620  0.61629  0.12651  1.0000
  C   C210      1.0  0.10690  0.62198  0.15645  1.0000
  C   C211      1.0  0.13181  0.62692  0.13828  1.0000
  H   H363      1.0  0.11932  0.61813  0.02259  1.0000
  H   H364      1.0  0.07471  0.61071  0.05481  1.0000
  H   H365      1.0  0.10364  0.62269  0.19394  1.0000
  H   H366      1.0  0.14761  0.63141  0.16172  1.0000
  C   C212      1.0  0.16787  0.62420  0.38603  1.0000
  C   C213      1.0  0.17316  0.64966  0.40011  1.0000
  C   C214      1.0  0.18388  0.66745  0.36788  1.0000
  C   C215      1.0  0.18923  0.66019  0.32107  1.0000
  C   C216      1.0  0.18348  0.63489  0.30680  1.0000
  C   C217      1.0  0.17303  0.61702  0.33914  1.0000
  H   H367      1.0  0.16930  0.65556  0.43595  1.0000
  H   H368      1.0  0.18815  0.68695  0.37933  1.0000
  H   H369      1.0  0.18744  0.62896  0.27100  1.0000
  H   H370      1.0  0.16900  0.59745  0.32772  1.0000
  C   C218      1.0  0.30752  0.69114  0.28929  1.0000
  H   H371      1.0  0.27090  0.87570  0.14134  1.0000
  C   C219      1.0  0.10614  0.82493  0.98481  1.0000
  C   C220      1.0  0.28821  0.83197  0.41540  1.0000
  H   H372      1.0  0.03804  0.50869  0.15472  1.0000
  H   H373      1.0  0.27597  0.82339  0.38928  1.0000
  C   C221      1.0  0.32481  0.76589  0.21291  1.0000
  C   C222      1.0  0.30163  0.68023  0.03711  1.0000
  C   C223      1.0  0.11195  0.80319  0.13560  1.0000
  C   C224      1.0  0.00991  0.54837  0.43691  1.0000
  H   H374      1.0  0.28071  0.76900  0.44401  1.0000
  H   H375      1.0  0.13814  0.53758  0.42462  1.0000
  H   H376      1.0  0.10007  0.72272  0.21032  1.0000
  H   H377      1.0  0.14057  0.70496  0.24960  1.0000
  H   H378      1.0  0.12040  0.69263  0.29669  1.0000
  H   H379      1.0  0.24326  0.79083  0.42308  1.0000
  C   C225      1.0  0.20339  0.56577  0.04361  1.0000
  N   N13       1.0  0.01590  0.98397  0.98482  1.0000
  H   H380      1.0  0.31450  0.81413  0.25037  1.0000
  C   C226      1.0  0.22828  0.75199  0.44093  1.0000
  H   H381      1.0  0.10727  0.87440  0.23265  1.0000
  H   H382      1.0  0.09008  0.78307  0.19095  1.0000
  C   C227      1.0  0.03988  0.98074  0.06498  1.0000
  C   C228      1.0  0.11013  0.70589  0.47151  1.0000
  H   H383      1.0  0.31572  0.69860  0.21693  1.0000
  H   H384      1.0  0.27104  0.69926  0.45131  1.0000
  H   H385      1.0  0.07882  0.80492  0.02790  1.0000
  C   C229      1.0  0.22762  0.78226  0.44459  1.0000
  H   H386      1.0  0.10023  0.89678  0.18475  1.0000
  C   C230      1.0  0.23708  0.81066  0.30367  1.0000
  H   H387      1.0  0.27837  0.80565  0.29210  1.0000
  N   N14       1.0  0.06712  0.70160  0.18388  1.0000
  S   S51       1.0  0.32611  0.83089  0.34584  1.0000
  H   H388      1.0  0.11606  0.71262  0.13942  1.0000
  H   H389      1.0  0.02961  0.96636  0.42018  1.0000
  H   H390      1.0  0.04709  0.73885  0.25138  1.0000
  H   H391      1.0  0.25899  0.76171  0.36476  1.0000
  S   S52       1.0  0.13629  0.00036  0.09197  1.0000
  Fe  Fe25      1.0  0.01831  0.60288  0.11192  1.0000
  H   H392      1.0  0.16098  0.79631  0.02908  1.0000
  H   H393      1.0  0.00847  0.76908  0.23825  1.0000
  H   H394      1.0  0.05912  0.80742  0.15619  1.0000
  C   C231      1.0  0.08853  0.70536  0.21928  1.0000
  H   H395      1.0  0.12019  0.67947  0.07675  1.0000
  C   C232      1.0  0.00550  0.65937  0.20005  1.0000
  H   H396      1.0  0.17931  0.54336  0.43696  1.0000
  C   C233      1.0  0.10170  0.52190  0.44543  1.0000
  H   H397      1.0  0.01522  0.64057  0.21064  1.0000
  H   H398      1.0  0.11795  0.67617  0.19319  1.0000
  H   H399      1.0  0.08697  0.85047  0.06154  1.0000
  C   C234      1.0  0.02807  0.92762  0.44745  1.0000
  H   H400      1.0  0.09336  0.52559  0.41011  1.0000
  H   H401      1.0  0.19797  0.78868  0.39056  1.0000
  H   H402      1.0  0.02874  0.96309  0.07315  1.0000
  H   H403      1.0  0.33587  0.85783  0.20785  1.0000
  H   H404      1.0  0.21860  0.56665  0.41805  1.0000
  H   H405      1.0  0.30365  0.78005  0.36897  1.0000
  C   C235      1.0  0.13086  0.77334  0.19902  1.0000
  H   H406      1.0  0.15004  0.78289  0.19825  1.0000
  H   H407      1.0  0.14283  0.67098  0.26552  1.0000
  H   H408      1.0  0.29774  0.66973  0.22766  1.0000
  H   H409      1.0  0.28483  0.77726  0.22696  1.0000
  H   H410      1.0  0.07849  0.99529  0.08040  1.0000
  H   H411      1.0  0.32299  0.70395  0.30241  1.0000
  H   H412      1.0  0.20912  0.58768  0.46658  1.0000
  H   H413      1.0  0.23249  0.79150  0.28807  1.0000
  H   H414      1.0  0.19607  0.58166  0.06713  1.0000
  H   H415      1.0  0.26717  0.83880  0.30222  1.0000
  C   C236      1.0  0.32975  0.84901  0.43800  1.0000
  H   H416      1.0  0.23882  0.80821  0.34217  1.0000
  H   H417      1.0  0.04655  0.83263  0.06041  1.0000
  H   H418      1.0  0.10470  0.55961  0.02652  1.0000
  H   H419      1.0  0.29479  0.73709  0.44112  1.0000
  C   C237      1.0  0.15660  0.55040  0.03757  1.0000
  H   H420      1.0  0.23159  0.66140  0.42372  1.0000
  C   C238      1.0  0.31813  0.87002  0.19940  1.0000
  H   H421      1.0  0.01402  0.92238  0.13986  1.0000
  C   C239      1.0  0.27684  0.74883  0.43181  1.0000
  N   N15       1.0  0.13771  0.53290  0.01314  1.0000
  C   C240      1.0  0.01607  0.91022  0.10900  1.0000
  H   H422      1.0  0.06558  0.97396  0.12454  1.0000
  C   C241      1.0  0.33136  0.64117  0.16689  1.0000
  C   C242      1.0  0.31422  0.83777  0.40373  1.0000
  H   H423      1.0  0.09083  0.73011  0.10731  1.0000
  H   H424      1.0  0.14689  0.56954  0.04692  1.0000
  H   H425      1.0  0.06374  0.53023  0.08247  1.0000
  H   H426      1.0  0.32562  0.60685  0.06155  1.0000
  H   H427      1.0  0.11263  0.79617  0.03832  1.0000
  H   H428      1.0  0.18516  0.78702  0.44991  1.0000
  S   S53       1.0  0.14385  0.88971  0.00237  1.0000
  H   H429      1.0  0.27372  0.85413  0.06280  1.0000
  H   H430      1.0  0.07619  0.53944  0.13898  1.0000
  H   H431      1.0  0.29848  0.83446  0.13262  1.0000
  H   H432      1.0  0.24494  0.83589  0.07736  1.0000
  C   C243      1.0  0.09929  0.71040  0.11548  1.0000
  H   H433      1.0  0.13210  0.81039  0.13132  1.0000
  H   H434      1.0  0.32444  0.62504  0.18949  1.0000
  H   H435      1.0  0.25762  0.83339  0.46851  1.0000
  H   H436      1.0  0.13190  0.84475  0.17899  1.0000
  C   C244      1.0  0.06539  0.81174  0.11975  1.0000
  C   C245      1.0  0.23276  0.66523  0.46197  1.0000
  C   C246      1.0  0.27991  0.83372  0.15313  1.0000
  H   H437      1.0  0.30131  0.62771  0.08979  1.0000
  C   C247      1.0  0.26050  0.82533  0.23009  1.0000
  C   C248      1.0  0.26161  0.85666  0.13626  1.0000
  H   H438      1.0  0.27353  0.72927  0.36318  1.0000
  H   H439      1.0  0.04019  0.84760  0.11651  1.0000
  H   H440      1.0  0.12506  0.71188  0.05487  1.0000
  C   C249      1.0  0.06718  0.97741  0.08620  1.0000
  H   H441      1.0  0.26674  0.66466  0.00789  1.0000
  H   H442      1.0  0.32449  0.81714  0.19142  1.0000
  C   C250      1.0  0.25546  0.85413  0.08411  1.0000
  H   H443      1.0  0.05095  0.55326  0.42024  1.0000
  H   H444      1.0  0.27075  0.81541  0.14162  1.0000
  H   H445      1.0  0.24260  0.87091  0.07292  1.0000
  H   H446      1.0  0.04921  0.92353  0.44039  1.0000
  H   H447      1.0  0.31795  0.74732  0.36594  1.0000
  H   H448      1.0  0.25208  0.80781  0.21364  1.0000
  H   H449      1.0  0.24516  0.84108  0.22597  1.0000
  C   C251      1.0  0.04140  0.98544  0.01129  1.0000
  C   C252      1.0  0.09945  0.83320  0.07182  1.0000
  C   C253      1.0  0.32810  0.68549  0.02802  1.0000
  C   C254      1.0  0.30088  0.78389  0.20396  1.0000
  H   H450      1.0  0.24269  0.85719  0.15543  1.0000
  C   C255      1.0  0.00685  0.95613  0.98664  1.0000
  H   H451      1.0  0.04348  0.68510  0.23906  1.0000
  H   H452      1.0  0.03974  0.72691  0.14555  1.0000
  C   C256      1.0  0.30065  0.75989  0.35633  1.0000
  H   H453      1.0  0.16240  0.54169  0.07197  1.0000
  H   H454      1.0  0.30623  0.91110  0.20707  1.0000
  H   H455      1.0  0.12640  0.83211  0.98610  1.0000
  C   C257      1.0  0.30724  0.81276  0.21375  1.0000
  C   C258      1.0  0.04941  0.68089  0.20215  1.0000
  C   C259      1.0  0.11433  0.88162  0.19826  1.0000
  H   H456      1.0  0.01938  0.72319  0.22672  1.0000
  N   N16       1.0  0.28533  0.83264  0.20513  1.0000
  C   C260      1.0  0.27775  0.83756  0.46041  1.0000
  H   H457      1.0  0.02984  0.66602  0.13969  1.0000
  C   C261      1.0  0.32284  0.89766  0.21676  1.0000
  C   C262      1.0  0.07842  0.54211  0.10052  1.0000
  C   C263      1.0  0.13150  0.51942  0.44145  1.0000
  H   H458      1.0  0.12770  0.76554  0.23488  1.0000
  H   H459      1.0  0.08167  0.84163  0.18682  1.0000
  C   C264      1.0  0.18189  0.55741  0.01031  1.0000
  N   N17       1.0  0.09195  0.82370  0.11998  1.0000
  C   C265      1.0  0.07819  0.69280  0.13716  1.0000
  H   H460      1.0  0.09769  0.66456  0.24004  1.0000
  C   C266      1.0  0.25178  0.70952  0.44543  1.0000
  H   H461      1.0  0.01375  0.69465  0.16386  1.0000
  H   H462      1.0  0.31341  0.65332  0.15953  1.0000
  C   C267      1.0  0.20145  0.79400  0.42769  1.0000
  H   H463      1.0  0.31993  0.74542  0.20509  1.0000
  C   C268      1.0  0.09863  0.81277  0.03177  1.0000
  H   H464      1.0  0.31292  0.59794  0.11835  1.0000
  H   H465      1.0  0.07994  0.70976  0.25440  1.0000
  H   H466      1.0  0.02279  0.86822  0.99669  1.0000
  C   C269      1.0  0.02206  0.76354  0.20912  1.0000
  H   H467      1.0  0.29501  0.78125  0.16693  1.0000
  C   C270      1.0  0.27563  0.74921  0.37740  1.0000
  H   H468      1.0  0.06627  0.79253  0.10146  1.0000
  C   C271      1.0  0.10795  0.68176  0.22640  1.0000
  H   H469      1.0  0.22356  0.74656  0.40422  1.0000
  H   H470      1.0  0.13351  0.89078  0.20352  1.0000
  C   C272      1.0  0.14442  0.50445  0.02299  1.0000
  C   C273      1.0  0.11030  0.69874  0.06993  1.0000
  C   C274      1.0  0.04279  0.82866  0.09801  1.0000
  C   C275      1.0  0.11769  0.85909  0.16346  1.0000
  C   C276      1.0  0.09100  0.84680  0.15284  1.0000
  C   C277      1.0  0.31434  0.68132  0.24002  1.0000
  H   H471      1.0  0.27712  0.87344  0.22137  1.0000
  C   C278      1.0  0.11041  0.53866  0.03212  1.0000
  H   H472      1.0  0.07801  0.96046  0.07030  1.0000
  H   H473      1.0  0.30537  0.67445  0.31380  1.0000
  H   H474      1.0  0.00565  0.54251  0.40037  1.0000
  H   H475      1.0  0.12649  0.86693  0.13099  1.0000
  H   H476      1.0  0.06009  0.66160  0.20371  1.0000
  H   H477      1.0  0.11967  0.84046  0.07205  1.0000
  H   H478      1.0  0.13153  0.75676  0.17394  1.0000
  H   H479      1.0  0.10939  0.80918  0.21239  1.0000
  S   S54       1.0  0.07012  0.89549  0.00647  1.0000
  H   H480      1.0  0.07825  0.86285  0.13818  1.0000
  C   C279      1.0  0.29361  0.85870  0.22334  1.0000
  H   H481      1.0  0.31620  0.87094  0.16075  1.0000
  H   H482      1.0  0.12924  0.70040  0.45484  1.0000
  H   H483      1.0  0.06227  0.69164  0.11084  1.0000
  H   H484      1.0  0.07437  0.56303  0.09242  1.0000
  H   H485      1.0  0.01131  0.81154  0.13867  1.0000
  S   S55       1.0  0.01077  0.56755  0.06824  1.0000
  H   H486      1.0  0.29845  0.85725  0.26129  1.0000
  H   H487      1.0  0.20162  0.81563  0.43039  1.0000
  C   C280      1.0  0.10616  0.53365  0.08532  1.0000
  H   H488      1.0  0.11148  0.78568  0.11264  1.0000
  H   H489      1.0  0.22073  0.82496  0.29661  1.0000
  H   H490      1.0  0.33099  0.76708  0.25012  1.0000
  H   H491      1.0  0.01486  0.53052  0.45765  1.0000
  C   C281      1.0  0.26279  0.82044  0.28366  1.0000
  C   C282      1.0  0.02449  0.67624  0.17289  1.0000
  H   H492      1.0  0.28867  0.70260  0.28840  1.0000
  H   H493      1.0  0.13606  0.50244  0.41839  1.0000
  H   H494      1.0  0.08650  0.67250  0.13948  1.0000
  H   H495      1.0  0.22019  0.57306  0.02309  1.0000
  H   H496      1.0  0.32527  0.89776  0.25547  1.0000
  H   H497      1.0  0.21146  0.74534  0.46229  1.0000
  H   H498      1.0  0.03690  0.77873  0.20595  1.0000
  C   C283      1.0  0.03437  0.56477  0.43607  1.0000
  H   H499      1.0  0.24178  0.57337  0.46357  1.0000
  H   H500      1.0  0.24764  0.70675  0.40754  1.0000
  H   H501      1.0  0.09366  0.50366  0.45987  1.0000
  H   H502      1.0  0.10847  0.51258  0.09394  1.0000
  H   H503      1.0  0.05604  0.97075  0.99736  1.0000
  C   C284      1.0  0.22086  0.56991  0.45630  1.0000
  H   H504      1.0  0.16314  0.99410  0.25859  1.0000
  H   H505      1.0  0.06637  0.74310  0.16958  1.0000
  H   H506      1.0  0.02390  0.94196  0.98805  1.0000
  H   H507      1.0  0.01052  0.76289  0.17628  1.0000
  H   H508      1.0  0.29914  0.76042  0.31754  1.0000
  H   H509      1.0  0.01664  0.92003  0.41767  1.0000
  H   H510      1.0  0.09586  0.52714  0.01268  1.0000
  C   C285      1.0  0.05243  0.72740  0.17716  1.0000
  C   C286      1.0  0.23030  0.69453  0.47192  1.0000
  H   H511      1.0  0.21058  0.70145  0.46022  1.0000
  H   H512      1.0  0.03100  0.58270  0.41466  1.0000
  N   N18       1.0  0.25330  0.73822  0.45667  1.0000
  H   H513      1.0  0.21040  0.54896  0.06534  1.0000
  H   H514      1.0  0.03016  0.99776  0.08269  1.0000
  C   C287      1.0  0.01686  0.81471  0.10143  1.0000
  C   C288      1.0  0.18285  0.54071  0.47501  1.0000
  C   C289      1.0  0.03521  0.73692  0.21925  1.0000
  H   H515      1.0  0.09819  0.68817  0.47323  1.0000
  H   H516      1.0  0.20956  0.50841  0.40928  1.0000
  H   H517      1.0  0.19019  0.54112  0.98904  1.0000
  H   H518      1.0  0.17748  0.57391  0.98596  1.0000
  H   H519      1.0  0.18735  0.50292  0.02379  1.0000
  H   H520      1.0  0.22491  0.52913  0.47502  1.0000
  H   H521      1.0  0.33544  0.64629  0.26011  1.0000
  H   H522      1.0  0.25163  0.65696  0.47549  1.0000
  H   H523      1.0  0.26281  0.81886  0.80541  1.0000
  H   H524      1.0  0.04100  0.55017  0.78501  1.0000
  S   S56       1.0  0.16402  0.59366  0.56554  1.0000
  Fe  Fe26      1.0  0.09353  0.62462  0.56003  1.0000
  S   S57       1.0  0.11227  0.61290  0.62822  1.0000
  S   S58       1.0  0.05629  0.64973  0.55758  1.0000
  Fe  Fe27      1.0  0.14812  0.63105  0.59796  1.0000
  S   S59       1.0  0.17026  0.65793  0.64509  1.0000
  Fe  Fe28      1.0  0.12643  0.57648  0.59104  1.0000
  S   S60       1.0  0.12278  0.53460  0.61822  1.0000
  S   S61       1.0  0.12841  0.64527  0.53231  1.0000
  S   S62       1.0  0.10477  0.58694  0.52421  1.0000
  S   S63       1.0  0.17306  0.93203  0.89806  1.0000
  Fe  Fe29      1.0  0.24080  0.84881  0.58340  1.0000
  S   S64       1.0  0.23881  0.81468  0.63317  1.0000
  S   S65       1.0  0.28082  0.85754  0.55138  1.0000
  Fe  Fe30      1.0  0.18179  0.86211  0.59590  1.0000
  S   S66       1.0  0.17615  0.82844  0.64454  1.0000
  S   S67       1.0  0.14750  0.88925  0.57606  1.0000
  Fe  Fe31      1.0  0.21295  0.84122  0.67868  1.0000
  S   S68       1.0  0.21368  0.84103  0.75879  1.0000
  Fe  Fe32      1.0  0.20200  0.80559  0.59472  1.0000
  S   S69       1.0  0.19250  0.76844  0.55673  1.0000
  S   S70       1.0  0.21781  0.87614  0.63221  1.0000
  S   S71       1.0  0.20519  0.83850  0.54303  1.0000
  S   S72       1.0  0.03266  0.86039  0.63810  1.0000
  C   C290      1.0  0.11529  0.88011  0.58996  1.0000
  C   C291      1.0  0.09379  0.89578  0.57516  1.0000
  C   C292      1.0  0.06809  0.88943  0.58794  1.0000
  C   C293      1.0  0.06390  0.86770  0.61650  1.0000
  C   C294      1.0  0.08529  0.85182  0.63043  1.0000
  C   C295      1.0  0.11078  0.85788  0.61689  1.0000
  H   H525      1.0  0.09706  0.91293  0.55399  1.0000
  H   H526      1.0  0.05165  0.90162  0.57653  1.0000
  H   H527      1.0  0.08218  0.83491  0.65228  1.0000
  H   H528      1.0  0.12691  0.84556  0.62806  1.0000
  C   C296      1.0  0.18316  0.90614  0.85948  1.0000
  C   C297      1.0  0.18776  0.91173  0.81182  1.0000
  C   C298      1.0  0.19619  0.89192  0.78019  1.0000
  C   C299      1.0  0.20074  0.86629  0.79613  1.0000
  C   C300      1.0  0.19598  0.86068  0.84371  1.0000
  C   C301      1.0  0.18697  0.88037  0.87508  1.0000
  H   H529      1.0  0.18509  0.93159  0.79939  1.0000
  H   H530      1.0  0.19989  0.89663  0.74382  1.0000
  H   H531      1.0  0.19948  0.84099  0.85655  1.0000
  H   H532      1.0  0.18359  0.87571  0.91157  1.0000
  C   C302      1.0  0.12549  0.52247  0.67674  1.0000
  C   C303      1.0  0.13312  0.53811  0.71409  1.0000
  C   C304      1.0  0.05459  0.54674  0.60735  1.0000
  H   H533      1.0  0.13749  0.55834  0.70783  1.0000
  H   H534      1.0  0.04887  0.59929  0.77691  1.0000
  H   H535      1.0  0.06308  0.98727  0.92309  1.0000
  H   H536      1.0  0.29384  0.80440  0.78720  1.0000
  C   C305      1.0  0.02509  0.63743  0.56823  1.0000
  C   C306      1.0  0.02022  0.61075  0.56543  1.0000
  H   H537      1.0  0.05803  0.58659  0.62779  1.0000
  H   H538      1.0  0.25143  0.74964  0.69724  1.0000
  H   H539      1.0  0.03577  0.59713  0.55498  1.0000
  H   H540      1.0  0.30702  0.74922  0.73861  1.0000
  C   C307      1.0  0.17783  0.68843  0.62092  1.0000
  C   C308      1.0  0.18466  0.70908  0.65029  1.0000
  C   C309      1.0  0.18971  0.73383  0.63132  1.0000
  C   C310      1.0  0.18769  0.73791  0.58295  1.0000
  C   C311      1.0  0.18127  0.71717  0.55377  1.0000
  C   C312      1.0  0.17665  0.69247  0.57257  1.0000
  H   H541      1.0  0.18578  0.70599  0.68777  1.0000
  H   H542      1.0  0.19481  0.74975  0.65403  1.0000
  H   H543      1.0  0.17956  0.72027  0.51640  1.0000
  H   H544      1.0  0.17222  0.67654  0.54954  1.0000
  H   H545      1.0  0.15634  0.53377  0.94431  1.0000
  H   H546      1.0  0.07146  0.54852  0.58306  1.0000
  H   H547      1.0  0.23151  0.69703  0.51041  1.0000
  H   H548      1.0  0.12722  0.73382  0.51668  1.0000
  C   C313      1.0  0.32518  0.66827  0.94853  1.0000
  H   H549      1.0  0.11720  0.90668  0.91366  1.0000
  C   C314      1.0  0.29878  0.66299  0.95774  1.0000
  H   H550      1.0  0.28737  0.65390  0.93092  1.0000
  Fe  Fe33      1.0  0.14144  0.60689  0.50127  1.0000
  H   H551      1.0  0.17103  0.55686  0.49156  1.0000
  H   H552      1.0  0.29264  0.83092  0.82930  1.0000
  H   H553      1.0  0.26039  0.72738  0.60241  1.0000
  C   C315      1.0  0.04172  0.54063  0.94797  1.0000
  C   C316      1.0  0.30665  0.72448  0.84270  1.0000
  H   H554      1.0  0.27298  0.86045  0.76804  1.0000
  H   H555      1.0  0.25989  0.76357  0.51581  1.0000
  H   H556      1.0  0.32573  0.76538  0.89500  1.0000
  H   H557      1.0  0.10530  0.81005  0.95666  1.0000
  H   H558      1.0  0.28221  0.75384  0.59126  1.0000
  C   C317      1.0  0.08003  0.55948  0.80364  1.0000
  H   H559      1.0  0.15389  0.57004  0.88746  1.0000
  C   C318      1.0  0.31786  0.80167  0.61747  1.0000
  H   H560      1.0  0.24626  0.71719  0.85138  1.0000
  C   C319      1.0  0.21203  0.54624  0.48425  1.0000
  H   H561      1.0  0.31962  0.86297  0.77502  1.0000
  H   H562      1.0  0.08534  0.53941  0.81602  1.0000
  H   H563      1.0  0.17404  0.52957  0.56345  1.0000
  C   C320      1.0  0.02136  0.81518  0.52985  1.0000
  H   H564      1.0  0.14261  0.97318  0.69377  1.0000
  C   C321      1.0  0.13562  0.52740  0.75963  1.0000
  C   C322      1.0  0.02705  0.61472  0.69295  1.0000
  H   H565      1.0  0.33230  0.80941  0.59215  1.0000
  H   H566      1.0  0.26476  0.77533  0.73248  1.0000
  H   H567      1.0  0.27880  0.76749  0.67602  1.0000
  H   H568      1.0  0.13021  0.83088  0.71398  1.0000
  H   H569      1.0  0.20276  0.51106  0.54704  1.0000
  H   H570      1.0  0.07347  0.57136  0.83434  1.0000
  C   C323      1.0  0.00464  0.65510  0.58022  1.0000
  C   C324      1.0  0.04443  0.97962  0.90975  1.0000
  H   H571      1.0  0.00813  0.67576  0.58177  1.0000
  C   C325      1.0  0.02087  0.99335  0.93542  1.0000
  C   C326      1.0  0.00451  0.79184  0.51935  1.0000
  C   C327      1.0  0.28880  0.73919  0.73040  1.0000
  H   H572      1.0  0.13393  0.58016  0.96531  1.0000
  C   C328      1.0  0.05826  0.55834  0.76729  1.0000
  H   H573      1.0  0.25947  0.71556  0.76099  1.0000
  H   H574      1.0  0.28187  0.93824  0.62041  1.0000
  C   C329      1.0  0.05180  0.58585  0.74655  1.0000
  H   H575      1.0  0.04243  0.80920  0.52794  1.0000
  H   H576      1.0  0.05559  0.52690  0.62322  1.0000
  H   H577      1.0  0.04978  0.52501  0.97138  1.0000
  C   C330      1.0  0.05570  0.56759  0.64557  1.0000
  H   H578      1.0  0.01709  0.82267  0.56570  1.0000
  C   C331      1.0  0.02397  0.63790  0.72773  1.0000
  C   C332      1.0  0.27914  0.73272  0.58552  1.0000
  C   C333      1.0  0.03047  0.56770  0.67611  1.0000
  N   N19       1.0  0.09024  0.72903  0.59798  1.0000
  C   C334      1.0  0.06403  0.74059  0.61352  1.0000
  C   C335      1.0  0.11095  0.74881  0.60620  1.0000
  C   C336      1.0  0.08867  0.72448  0.54567  1.0000
  C   C337      1.0  0.09729  0.70336  0.62204  1.0000
  C   C338      1.0  0.08740  0.69990  0.67333  1.0000
  C   C339      1.0  0.04001  0.72449  0.59991  1.0000
  H   H579      1.0  0.27496  0.83440  0.72610  1.0000
  C   C340      1.0  0.11641  0.75599  0.65778  1.0000
  C   C341      1.0  0.13367  0.77962  0.66045  1.0000
  C   C342      1.0  0.09641  0.67350  0.69347  1.0000
  H   H580      1.0  0.13567  0.53013  0.51441  1.0000
  H   H581      1.0  0.32021  0.64904  0.68518  1.0000
  H   H582      1.0  0.06082  0.76051  0.59822  1.0000
  H   H583      1.0  0.06340  0.74381  0.65192  1.0000
  H   H584      1.0  0.13028  0.74158  0.59255  1.0000
  H   H585      1.0  0.10608  0.76712  0.58632  1.0000
  H   H586      1.0  0.28997  0.67392  0.84621  1.0000
  H   H587      1.0  0.07480  0.70871  0.53812  1.0000
  H   H588      1.0  0.08966  0.68664  0.60200  1.0000
  H   H589      1.0  0.11895  0.69984  0.62192  1.0000
  H   H590      1.0  0.06574  0.70061  0.67512  1.0000
  H   H591      1.0  0.09438  0.71522  0.69690  1.0000
  H   H592      1.0  0.03523  0.72774  0.56233  1.0000
  H   H593      1.0  0.04402  0.70326  0.60498  1.0000
  H   H594      1.0  0.26698  0.70440  0.89766  1.0000
  N   N20       1.0  0.17359  0.51468  0.49227  1.0000
  H   H595      1.0  0.09832  0.76090  0.67785  1.0000
  H   H596      1.0  0.12727  0.73951  0.67508  1.0000
  H   H597      1.0  0.12295  0.79733  0.64714  1.0000
  H   H598      1.0  0.13940  0.78299  0.69737  1.0000
  H   H599      1.0  0.15176  0.77631  0.63929  1.0000
  H   H600      1.0  0.08738  0.65753  0.67368  1.0000
  H   H601      1.0  0.11809  0.67107  0.69180  1.0000
  H   H602      1.0  0.09015  0.67208  0.73071  1.0000
  C   C343      1.0  0.31508  0.69459  0.77665  1.0000
  C   C344      1.0  0.28355  0.82299  0.79727  1.0000
  N   N21       1.0  0.02839  0.58783  0.71465  1.0000
  H   H603      1.0  0.28845  0.68086  0.72166  1.0000
  H   H604      1.0  0.11512  0.81510  0.76324  1.0000
  C   C345      1.0  0.27837  0.92461  0.64996  1.0000
  H   H605      1.0  0.32722  0.70818  0.75638  1.0000
  C   C346      1.0  0.25629  0.74264  0.50864  1.0000
  C   C347      1.0  0.30550  0.67352  0.74234  1.0000
  H   H606      1.0  0.14190  0.53961  0.78803  1.0000
  H   H607      1.0  0.00975  0.78424  0.48403  1.0000
  N   N22       1.0  0.10473  0.90738  0.74907  1.0000
  C   C348      1.0  0.08187  0.90788  0.71576  1.0000
  C   C349      1.0  0.12029  0.88205  0.74250  1.0000
  C   C350      1.0  0.09431  0.91002  0.79847  1.0000
  C   C351      1.0  0.12264  0.92961  0.73930  1.0000
  C   C352      1.0  0.13195  0.93243  0.68765  1.0000
  C   C353      1.0  0.06438  0.93331  0.71605  1.0000
  C   C354      1.0  0.11497  0.90749  0.83794  1.0000
  C   C355      1.0  0.10686  0.85690  0.75900  1.0000
  C   C356      1.0  0.12505  0.83296  0.75164  1.0000
  C   C357      1.0  0.15159  0.95411  0.68274  1.0000
  C   C358      1.0  0.04354  0.93289  0.67788  1.0000
  C   C359      1.0  0.10190  0.90816  0.88626  1.0000
  H   H608      1.0  0.06860  0.89166  0.72377  1.0000
  H   H609      1.0  0.08871  0.90404  0.67928  1.0000
  H   H610      1.0  0.12521  0.87905  0.70483  1.0000
  H   H611      1.0  0.13962  0.88279  0.76031  1.0000
  H   H612      1.0  0.07875  0.89573  0.80510  1.0000
  H   H613      1.0  0.08453  0.92954  0.80354  1.0000
  H   H614      1.0  0.11345  0.94860  0.75056  1.0000
  H   H615      1.0  0.14065  0.92736  0.76086  1.0000
  H   H616      1.0  0.11526  0.93736  0.66413  1.0000
  H   H617      1.0  0.14178  0.91415  0.67488  1.0000
  H   H618      1.0  0.05389  0.93549  0.75006  1.0000
  H   H619      1.0  0.07605  0.95087  0.71007  1.0000
  H   H620      1.0  0.12834  0.92406  0.83612  1.0000
  H   H621      1.0  0.12687  0.88904  0.83547  1.0000
  H   H622      1.0  0.10183  0.85767  0.79684  1.0000
  H   H623      1.0  0.08871  0.85384  0.73890  1.0000
  H   H624      1.0  0.01815  0.68014  0.72653  1.0000
  H   H625      1.0  0.31740  0.71087  0.86698  1.0000
  H   H626      1.0  0.26627  0.67793  0.80133  1.0000
  H   H627      1.0  0.15784  0.95564  0.64547  1.0000
  H   H628      1.0  0.29539  0.72131  0.60243  1.0000
  H   H629      1.0  0.16925  0.94960  0.70426  1.0000
  C   C360      1.0  0.31326  0.85011  0.74598  1.0000
  H   H630      1.0  0.05287  0.93332  0.64269  1.0000
  H   H631      1.0  0.03170  0.91517  0.68108  1.0000
  H   H632      1.0  0.06499  0.54452  0.73944  1.0000
  H   H633      1.0  0.08880  0.89146  0.89073  1.0000
  H   H634      1.0  0.27618  0.70538  0.52935  1.0000
  H   H635      1.0  0.10425  0.56511  0.94787  1.0000
  C   C361      1.0  0.14405  0.51489  0.49016  1.0000
  H   H636      1.0  0.12297  0.58762  0.88087  1.0000
  H   H637      1.0  0.14334  0.83473  0.77220  1.0000
  N   N23       1.0  0.29394  0.70905  0.80442  1.0000
  H   H638      1.0  0.29795  0.80404  0.60221  1.0000
  H   H639      1.0  0.01888  0.72803  0.66644  1.0000
  C   C362      1.0  0.18109  0.51198  0.54335  1.0000
  H   H640      1.0  0.08067  0.74232  0.52758  1.0000
  H   H641      1.0  0.17835  0.50291  0.63928  1.0000
  H   H642      1.0  0.31460  0.76220  0.81045  1.0000
  H   H643      1.0  0.23775  0.73873  0.52752  1.0000
  H   H644      1.0  0.29800  0.73162  0.51817  1.0000
  C   C363      1.0  0.31926  0.85472  0.48295  1.0000
  H   H645      1.0  0.32910  0.68439  0.80089  1.0000
  H   H646      1.0  0.07348  0.56342  0.66679  1.0000
  H   H647      1.0  0.12568  0.70144  0.54101  1.0000
  H   H648      1.0  0.30502  0.80713  0.68847  1.0000
  C   C364      1.0  0.11477  0.71657  0.52067  1.0000
  C   C365      1.0  0.01577  0.73248  0.62871  1.0000
  C   C366      1.0  0.13239  0.56889  0.89259  1.0000
  H   H649      1.0  0.22479  0.67473  0.84517  1.0000
  C   C367      1.0  0.25695  0.69945  0.86449  1.0000
  C   C368      1.0  0.31247  0.84567  0.65807  1.0000
  H   H650      1.0  0.22349  0.68667  0.90459  1.0000
  H   H651      1.0  0.12509  0.55283  0.87058  1.0000
  C   C369      1.0  0.29318  0.84919  0.49444  1.0000
  C   C370      1.0  0.27636  0.72653  0.77439  1.0000
  H   H652      1.0  0.00970  0.77641  0.54545  1.0000
  H   H653      1.0  0.01092  0.61628  0.66707  1.0000
  H   H654      1.0  0.03328  0.66669  0.67410  1.0000
  H   H655      1.0  0.04242  0.64011  0.74754  1.0000
  C   C371      1.0  0.27733  0.68887  0.82799  1.0000
  H   H656      1.0  0.26732  0.74253  0.79611  1.0000
  H   H657      1.0  0.03569  0.55796  0.96932  1.0000
  H   H658      1.0  0.24655  0.66071  0.88906  1.0000
  H   H659      1.0  0.29141  0.84676  0.64809  1.0000
  H   H660      1.0  0.29951  0.65602  0.76230  1.0000
  C   C372      1.0  0.32571  0.74573  0.82707  1.0000
  C   C373      1.0  0.27868  0.72669  0.53306  1.0000
  C   C374      1.0  0.26973  0.75910  0.70784  1.0000
  H   H661      1.0  0.09049  0.92677  0.89153  1.0000
  H   H662      1.0  0.06965  0.59265  0.72818  1.0000
  H   H663      1.0  0.04514  0.61841  0.67251  1.0000
  H   H664      1.0  0.29373  0.72411  0.70358  1.0000
  H   H665      1.0  0.02647  0.97544  0.84120  1.0000
  H   H666      1.0  0.29162  0.73497  0.86459  1.0000
  H   H667      1.0  0.01101  0.75366  0.62452  1.0000
  H   H668      1.0  0.03014  0.95034  0.68119  1.0000
  C   C375      1.0  0.12593  0.56413  0.94423  1.0000
  C   C376      1.0  0.23676  0.67907  0.87642  1.0000
  C   C377      1.0  0.28465  0.84274  0.75713  1.0000
  H   H669      1.0  0.32309  0.85266  0.62644  1.0000
  H   H670      1.0  0.15957  0.99296  0.89482  1.0000
  H   H671      1.0  0.31936  0.91699  0.65908  1.0000
  Fe  Fe34      1.0  0.15825  0.92729  0.97355  1.0000
  H   H672      1.0  0.30363  0.89427  0.62109  1.0000
  C   C378      1.0  0.01823  0.66352  0.70157  1.0000
  H   H673      1.0  0.01132  0.54722  0.89767  1.0000
  H   H674      1.0  0.04487  0.95819  0.91572  1.0000
  N   N24       1.0  0.31731  0.86336  0.69932  1.0000
  H   H675      1.0  0.33141  0.86373  0.50884  1.0000
  H   H676      1.0  0.09776  0.56810  0.78807  1.0000
  C   C379      1.0  0.04365  0.98473  0.85696  1.0000
  H   H677      1.0  0.01386  0.57038  0.65152  1.0000
  H   H678      1.0  0.02854  0.54765  0.69062  1.0000
  C   C380      1.0  0.30166  0.90527  0.65446  1.0000
  H   H679      1.0  0.03640  0.54917  0.58644  1.0000
  H   H680      1.0  0.27563  0.93617  0.68264  1.0000
  H   H681      1.0  0.01757  0.83116  0.50410  1.0000
  H   H682      1.0  0.26022  0.91412  0.64249  1.0000
  H   H683      1.0  0.27771  0.87990  0.69536  1.0000
  H   H684      1.0  0.06167  0.97627  0.84018  1.0000
  C   C381      1.0  0.13682  0.53700  0.96070  1.0000
  C   C382      1.0  0.29823  0.88658  0.69685  1.0000
  H   H685      1.0  0.29936  0.89860  0.72931  1.0000
  H   H686      1.0  0.32590  0.83219  0.74923  1.0000
  C   C383      1.0  0.31923  0.81606  0.66427  1.0000
  C   C384      1.0  0.32732  0.66456  0.70856  1.0000
  H   H687      1.0  0.21488  0.55075  0.52194  1.0000
  H   H688      1.0  0.02595  0.51483  0.89737  1.0000
  H   H689      1.0  0.32239  0.78053  0.62283  1.0000
  H   H690      1.0  0.12450  0.52203  0.94405  1.0000
  H   H691      1.0  0.33374  0.68106  0.68644  1.0000
  C   C385      1.0  0.01843  0.53091  0.92031  1.0000
  H   H692      1.0  0.05739  0.54645  0.92330  1.0000
  H   H693      1.0  0.00786  0.63519  0.75327  1.0000
  H   H694      1.0  0.21654  0.65512  0.47974  1.0000
  H   H695      1.0  0.03505  0.96375  0.48253  1.0000
  H   H696      1.0  0.09242  0.84147  0.97589  1.0000
  H   H697      1.0  0.02261  0.91705  0.47992  1.0000
  C   C386      1.0  0.00396  0.58281  0.74295  1.0000
  H   H698      1.0  0.00419  0.59330  0.77706  1.0000
  H   H699      1.0  0.00331  0.56179  0.75257  1.0000
  H   H700      1.0  0.00334  0.99151  0.91315  1.0000
  H   H701      1.0  0.00534  0.50564  0.97608  1.0000
  H   H702      1.0  0.23012  0.78863  0.48138  1.0000
  C   C387      1.0  0.54468  0.46172  0.39395  1.0000
  S   S73       1.0  0.42033  0.42885  0.03227  1.0000
  Fe  Fe35      1.0  0.48671  0.40079  0.07719  1.0000
  S   S74       1.0  0.45434  0.41379  0.12625  1.0000
  S   S75       1.0  0.52106  0.38211  0.11540  1.0000
  Fe  Fe36      1.0  0.42813  0.39311  0.07680  1.0000
  S   S76       1.0  0.39519  0.36841  0.10366  1.0000
  Fe  Fe37      1.0  0.44954  0.44840  0.07874  1.0000
  S   S77       1.0  0.44193  0.49019  0.10519  1.0000
  S   S78       1.0  0.46082  0.37717  0.03124  1.0000
  S   S79       1.0  0.48375  0.43675  0.03208  1.0000
  H   H703      1.0  0.57955  0.32816  0.18849  1.0000
  S   S80       1.0  0.64190  0.39985  0.08843  1.0000
  Fe  Fe38      1.0  0.58726  0.10909  0.12655  1.0000
  S   S81       1.0  0.61906  0.10182  0.17955  1.0000
  S   S82       1.0  0.54778  0.11414  0.16266  1.0000
  S   S83       1.0  0.60010  0.07581  0.07977  1.0000
  S   S84       1.0  0.60981  0.13861  0.08609  1.0000
  Fe  Fe39      1.0  0.41121  0.16074  0.10679  1.0000
  S   S85       1.0  0.42598  0.17965  0.17169  1.0000
  S   S86       1.0  0.44006  0.13839  0.06015  1.0000
  Fe  Fe40      1.0  0.35590  0.18459  0.11756  1.0000
  S   S87       1.0  0.36706  0.20556  0.18415  1.0000
  Fe  Fe41      1.0  0.40399  0.21548  0.14598  1.0000
  S   S88       1.0  0.42924  0.25093  0.14978  1.0000
  Fe  Fe42      1.0  0.38844  0.16799  0.20494  1.0000
  S   S89       1.0  0.38590  0.15454  0.28137  1.0000
  S   S90       1.0  0.39165  0.19745  0.07822  1.0000
  S   S91       1.0  0.37460  0.14619  0.14137  1.0000
  S   S92       1.0  0.47472  0.09321  0.40001  1.0000
  C   C388      1.0  0.41092  0.13727  0.31332  1.0000
  C   C389      1.0  0.43376  0.12709  0.29190  1.0000
  C   C390      1.0  0.45302  0.11364  0.31891  1.0000
  C   C391      1.0  0.44999  0.11060  0.36768  1.0000
  C   C392      1.0  0.42711  0.12068  0.38903  1.0000
  C   C393      1.0  0.40758  0.13354  0.36183  1.0000
  H   H704      1.0  0.43654  0.12945  0.25451  1.0000
  H   H705      1.0  0.47048  0.10574  0.30196  1.0000
  H   H706      1.0  0.42421  0.11800  0.42631  1.0000
  H   H707      1.0  0.38967  0.14047  0.37836  1.0000
  C   C394      1.0  0.51808  0.11893  0.13244  1.0000
  C   C395      1.0  0.49475  0.12055  0.15855  1.0000
  C   C396      1.0  0.47078  0.12622  0.13646  1.0000
  C   C397      1.0  0.46988  0.12987  0.08792  1.0000
  C   C398      1.0  0.49310  0.12727  0.06150  1.0000
  C   C399      1.0  0.51724  0.12202  0.08374  1.0000
  H   H708      1.0  0.49523  0.11787  0.19616  1.0000
  H   H709      1.0  0.45293  0.12764  0.15700  1.0000
  H   H710      1.0  0.49253  0.13022  0.02399  1.0000
  H   H711      1.0  0.53517  0.12078  0.06340  1.0000
  H   H712      1.0  0.57450  0.00893  0.43583  1.0000
  H   H713      1.0  0.47827  0.48338  0.26549  1.0000
  C   C400      1.0  0.55366  0.39184  0.11031  1.0000
  C   C401      1.0  0.57138  0.38347  0.14491  1.0000
  C   C402      1.0  0.59831  0.38665  0.13893  1.0000
  C   C403      1.0  0.60786  0.39794  0.09798  1.0000
  C   C404      1.0  0.59005  0.40750  0.06415  1.0000
  C   C405      1.0  0.56292  0.40469  0.07048  1.0000
  H   H714      1.0  0.56425  0.37395  0.17613  1.0000
  H   H715      1.0  0.61166  0.38029  0.16611  1.0000
  H   H716      1.0  0.59724  0.41618  0.03227  1.0000
  H   H717      1.0  0.54934  0.41117  0.04358  1.0000
  C   C406      1.0  0.40430  0.33551  0.11516  1.0000
  C   C407      1.0  0.38522  0.31759  0.12760  1.0000
  C   C408      1.0  0.39244  0.29131  0.13726  1.0000
  C   C409      1.0  0.41877  0.28302  0.13494  1.0000
  C   C410      1.0  0.43772  0.30100  0.12262  1.0000
  C   C411      1.0  0.43055  0.32710  0.11283  1.0000
  H   H718      1.0  0.36490  0.32411  0.12944  1.0000
  H   H719      1.0  0.37786  0.27746  0.14674  1.0000
  C   C412      1.0  0.54898  0.01335  0.05364  1.0000
  H   H720      1.0  0.44545  0.34077  0.10403  1.0000
  C   C413      1.0  0.62505  0.03033  0.25293  1.0000
  H   H721      1.0  0.62042  0.05081  0.24697  1.0000
  C   C414      1.0  0.55832  0.45441  0.34675  1.0000
  H   H722      1.0  0.50827  0.02763  0.36408  1.0000
  C   C415      1.0  0.60138  0.03991  0.44140  1.0000
  H   H723      1.0  0.46759  0.46577  0.18693  1.0000
  H   H724      1.0  0.64677  0.36211  0.98919  1.0000
  N   N25       1.0  0.55691  0.44999  0.43761  1.0000
  C   C416      1.0  0.46240  0.48585  0.19550  1.0000
  C   C417      1.0  0.43454  0.45552  0.32033  1.0000
  H   H725      1.0  0.53301  0.01172  0.07997  1.0000
  C   C418      1.0  0.43995  0.19348  0.42487  1.0000
  C   C419      1.0  0.38771  0.44483  0.15621  1.0000
  H   H726      1.0  0.33809  0.19037  0.32397  1.0000
  C   C420      1.0  0.61974  0.01886  0.29699  1.0000
  C   C421      1.0  0.56495  0.23839  0.03816  1.0000
  H   H727      1.0  0.35465  0.43450  0.28677  1.0000
  H   H728      1.0  0.63701  0.41548  0.35810  1.0000
  H   H729      1.0  0.53279  0.41616  0.43118  1.0000
  C   C422      1.0  0.37158  0.46111  0.12111  1.0000
  H   H730      1.0  0.36479  0.26198  0.22935  1.0000
  H   H731      1.0  0.35001  0.31038  0.22351  1.0000
  H   H732      1.0  0.37509  0.18700  0.37783  1.0000
  Fe  Fe43      1.0  0.45485  0.41409  0.98935  1.0000
  H   H733      1.0  0.59873  0.49590  0.11946  1.0000
  H   H734      1.0  0.59686  0.44374  0.41291  1.0000
  H   H735      1.0  0.39661  0.42802  0.13673  1.0000
  C   C423      1.0  0.59315  0.48425  0.43592  1.0000
  H   H736      1.0  0.49084  0.16484  0.32843  1.0000
  H   H737      1.0  0.64678  0.17633  0.03492  1.0000
  N   N26       1.0  0.38453  0.42169  0.23727  1.0000
  C   C424      1.0  0.65129  0.24438  0.13234  1.0000
  C   C425      1.0  0.39784  0.39709  0.21860  1.0000
  C   C426      1.0  0.41213  0.37932  0.25483  1.0000
  H   H738      1.0  0.42317  0.43823  0.23532  1.0000
  C   C427      1.0  0.42207  0.35383  0.23210  1.0000
  H   H739      1.0  0.54236  0.28752  0.04484  1.0000
  Fe  Fe44      1.0  0.64283  0.12837  0.13493  1.0000
  H   H740      1.0  0.38369  0.38523  0.19909  1.0000
  H   H741      1.0  0.41288  0.40194  0.19206  1.0000
  H   H742      1.0  0.39911  0.37410  0.28433  1.0000
  H   H743      1.0  0.42949  0.38920  0.26848  1.0000
  H   H744      1.0  0.35226  0.26204  0.28836  1.0000
  H   H745      1.0  0.43574  0.35790  0.20272  1.0000
  H   H746      1.0  0.43267  0.34151  0.25839  1.0000
  H   H747      1.0  0.40545  0.34273  0.21847  1.0000
  H   H748      1.0  0.55842  0.03243  0.05794  1.0000
  H   H749      1.0  0.38457  0.46787  0.09250  1.0000
  H   H750      1.0  0.65608  0.26718  0.45491  1.0000
  H   H751      1.0  0.54389  0.23898  0.04802  1.0000
  H   H752      1.0  0.38194  0.29842  0.30818  1.0000
  H   H753      1.0  0.36718  0.30597  0.00445  1.0000
  C   C428      1.0  0.63266  0.45371  0.98158  1.0000
  H   H754      1.0  0.61447  0.30095  0.02696  1.0000
  C   C429      1.0  0.35308  0.17704  0.44129  1.0000
  Fe  Fe45      1.0  0.63297  0.06966  0.13177  1.0000
  H   H755      1.0  0.45807  0.29472  0.12025  1.0000
  C   C430      1.0  0.37574  0.28758  0.01947  1.0000
  C   C431      1.0  0.41340  0.20358  0.44359  1.0000
  Fe  Fe46      1.0  0.62596  0.10483  0.04303  1.0000
  S   S93       1.0  0.64330  0.02856  0.16005  1.0000
  H   H756      1.0  0.35634  0.42164  0.18047  1.0000
  C   C432      1.0  0.62269  0.19357  0.98190  1.0000
  H   H757      1.0  0.52899  0.00654  0.28542  1.0000
  H   H758      1.0  0.56118  0.35435  0.04339  1.0000
  C   C433      1.0  0.58105  0.31658  0.09433  1.0000
  C   C434      1.0  0.63294  0.22548  0.12265  1.0000
  C   C435      1.0  0.63833  0.19916  0.13323  1.0000
  C   C436      1.0  0.44994  0.50189  0.16205  1.0000
  H   H759      1.0  0.58860  0.33622  0.10166  1.0000
  C   C437      1.0  0.65061  0.39952  0.36636  1.0000
  H   H760      1.0  0.43728  0.17848  0.39738  1.0000
  H   H761      1.0  0.63637  0.24000  0.39441  1.0000
  H   H762      1.0  0.54406  0.33002  0.12705  1.0000
  H   H763      1.0  0.62143  0.34521  0.05427  1.0000
  H   H764      1.0  0.65026  0.31023  0.42615  1.0000
  H   H765      1.0  0.53593  0.33210  0.04817  1.0000
  H   H766      1.0  0.43042  0.47625  0.31036  1.0000
  H   H767      1.0  0.39612  0.29127  0.03043  1.0000
  H   H768      1.0  0.62393  0.18490  0.12593  1.0000
  N   N27       1.0  0.51736  0.20582  0.18730  1.0000
  C   C438      1.0  0.50374  0.23170  0.19861  1.0000
  C   C439      1.0  0.50342  0.18468  0.21322  1.0000
  C   C440      1.0  0.54559  0.20692  0.20230  1.0000
  C   C441      1.0  0.51660  0.20003  0.13554  1.0000
  C   C442      1.0  0.48890  0.19936  0.11366  1.0000
  C   C443      1.0  0.51107  0.25518  0.16735  1.0000
  C   C444      1.0  0.56229  0.18114  0.19729  1.0000
  C   C445      1.0  0.50565  0.18527  0.26743  1.0000
  C   C446      1.0  0.48798  0.16530  0.28985  1.0000
  H   H769      1.0  0.35106  0.37805  0.24812  1.0000
  C   C447      1.0  0.49934  0.28073  0.18728  1.0000
  C   C448      1.0  0.58931  0.18378  0.21918  1.0000
  H   H770      1.0  0.50785  0.23739  0.23538  1.0000
  H   H771      1.0  0.48203  0.23018  0.19725  1.0000
  H   H772      1.0  0.48215  0.18567  0.20486  1.0000
  H   H773      1.0  0.51036  0.16504  0.20101  1.0000
  H   H774      1.0  0.54687  0.21366  0.23928  1.0000
  H   H775      1.0  0.55595  0.22177  0.18140  1.0000
  H   H776      1.0  0.52848  0.21414  0.11568  1.0000
  H   H777      1.0  0.52590  0.18048  0.12814  1.0000
  H   H778      1.0  0.47644  0.21664  0.12327  1.0000
  H   H779      1.0  0.47892  0.18168  0.12581  1.0000
  H   H780      1.0  0.53256  0.25710  0.16499  1.0000
  H   H781      1.0  0.50334  0.25289  0.13134  1.0000
  H   H782      1.0  0.56532  0.17612  0.15975  1.0000
  H   H783      1.0  0.55301  0.16452  0.21493  1.0000
  H   H784      1.0  0.52604  0.18053  0.27851  1.0000
  H   H785      1.0  0.49966  0.20464  0.28185  1.0000
  H   H786      1.0  0.55790  0.43309  0.34031  1.0000
  H   H787      1.0  0.50246  0.45796  0.45705  1.0000
  C   C449      1.0  0.49040  0.19826  0.06020  1.0000
  H   H788      1.0  0.62153  0.35137  0.42834  1.0000
  H   H789      1.0  0.63261  0.47582  0.40896  1.0000
  H   H790      1.0  0.64773  0.21156  0.03150  1.0000
  H   H791      1.0  0.47787  0.27930  0.19259  1.0000
  H   H792      1.0  0.50846  0.28528  0.22142  1.0000
  H   H793      1.0  0.50280  0.29708  0.16264  1.0000
  H   H794      1.0  0.58755  0.18609  0.25779  1.0000
  H   H795      1.0  0.60161  0.16592  0.21178  1.0000
  H   H796      1.0  0.59931  0.20088  0.20438  1.0000
  H   H797      1.0  0.33898  0.15927  0.35334  1.0000
  H   H798      1.0  0.58049  0.48419  0.03273  1.0000
  H   H799      1.0  0.63077  0.49120  0.14514  1.0000
  C   C450      1.0  0.61614  0.33360  0.40885  1.0000
  H   H800      1.0  0.59449  0.33231  0.40883  1.0000
  H   H801      1.0  0.50908  0.35365  0.98579  1.0000
  S   S94       1.0  0.64242  0.41436  0.45846  1.0000
  C   C451      1.0  0.55497  0.33524  0.03014  1.0000
  C   C452      1.0  0.40451  0.44035  0.25567  1.0000
  C   C453      1.0  0.63657  0.01534  0.21679  1.0000
  C   C454      1.0  0.59973  0.31602  0.01516  1.0000
  H   H802      1.0  0.55441  0.46257  0.27226  1.0000
  H   H803      1.0  0.57774  0.26395  0.09199  1.0000
  C   C455      1.0  0.46841  0.49588  0.24012  1.0000
  C   C456      1.0  0.36442  0.41589  0.27463  1.0000
  H   H804      1.0  0.65067  0.32701  0.99046  1.0000
  N   N28       1.0  0.53252  0.04844  0.28215  1.0000
  C   C457      1.0  0.53545  0.07045  0.31672  1.0000
  C   C458      1.0  0.53763  0.02242  0.30622  1.0000
  C   C459      1.0  0.55289  0.05141  0.24405  1.0000
  C   C460      1.0  0.50603  0.04982  0.25880  1.0000
  C   C461      1.0  0.48196  0.04494  0.29024  1.0000
  C   C462      1.0  0.53568  0.09850  0.29596  1.0000
  C   C463      1.0  0.55843  0.02717  0.21222  1.0000
  C   C464      1.0  0.52844  0.01986  0.35807  1.0000
  C   C465      1.0  0.53833  0.01081  0.00397  1.0000
  C   C466      1.0  0.45646  0.04945  0.26314  1.0000
  C   C467      1.0  0.53779  0.11884  0.33479  1.0000
  N   N29       1.0  0.57470  0.31393  0.04308  1.0000
  H   H805      1.0  0.55422  0.06746  0.33609  1.0000
  H   H806      1.0  0.51979  0.07041  0.34383  1.0000
  H   H807      1.0  0.61457  0.23111  0.10654  1.0000
  C   C468      1.0  0.62887  0.30913  0.43099  1.0000
  H   H808      1.0  0.57206  0.05649  0.25949  1.0000
  H   H809      1.0  0.54722  0.06810  0.22069  1.0000
  H   H810      1.0  0.50280  0.06893  0.24082  1.0000
  H   H811      1.0  0.50515  0.03527  0.23016  1.0000
  H   H812      1.0  0.48127  0.05813  0.32089  1.0000
  H   H813      1.0  0.48235  0.02434  0.30243  1.0000
  H   H814      1.0  0.55279  0.10084  0.27234  1.0000
  H   H815      1.0  0.51761  0.10318  0.27599  1.0000
  H   H816      1.0  0.60546  0.19425  0.00576  1.0000
  H   H817      1.0  0.53341  0.37845  0.98332  1.0000
  H   H818      1.0  0.54144  0.03097  0.38127  1.0000
  H   H819      1.0  0.56208  0.28484  0.99401  1.0000
  H   H820      1.0  0.59829  0.46714  0.18921  1.0000
  H   H821      1.0  0.43836  0.45476  0.35861  1.0000
  H   H822      1.0  0.40366  0.45716  0.16877  1.0000
  H   H823      1.0  0.43952  0.04649  0.28694  1.0000
  H   H824      1.0  0.45489  0.06973  0.24930  1.0000
  H   H825      1.0  0.45537  0.03550  0.23349  1.0000
  H   H826      1.0  0.55532  0.11461  0.35674  1.0000
  H   H827      1.0  0.53964  0.13850  0.31899  1.0000
  H   H828      1.0  0.52002  0.11909  0.35741  1.0000
  C   C469      1.0  0.39874  0.18166  0.46951  1.0000
  C   C470      1.0  0.56797  0.31093  0.17943  1.0000
  H   H829      1.0  0.54716  0.29524  0.12153  1.0000
  C   C471      1.0  0.63649  0.34355  0.98417  1.0000
  H   H830      1.0  0.46709  0.17057  0.28279  1.0000
  H   H831      1.0  0.49797  0.21674  0.04595  1.0000
  H   H832      1.0  0.58053  0.29296  0.18387  1.0000
  H   H833      1.0  0.39431  0.44628  0.32988  1.0000
  H   H834      1.0  0.50236  0.03268  0.02160  1.0000
  H   H835      1.0  0.55800  0.04692  0.14459  1.0000
  H   H836      1.0  0.49265  0.14554  0.27563  1.0000
  C   C472      1.0  0.37025  0.43503  0.19705  1.0000
  H   H837      1.0  0.59180  0.05065  0.41192  1.0000
  H   H838      1.0  0.59390  0.44814  0.47406  1.0000
  C   C473      1.0  0.35992  0.27455  0.25995  1.0000
  H   H839      1.0  0.55113  0.31011  0.20407  1.0000
  H   H840      1.0  0.61367  0.21583  0.41309  1.0000
  H   H841      1.0  0.39934  0.26947  0.28711  1.0000
  H   H842      1.0  0.45066  0.20987  0.40910  1.0000
  C   C474      1.0  0.65696  0.39434  0.41355  1.0000
  H   H843      1.0  0.63883  0.43724  0.00492  1.0000
  C   C475      1.0  0.58193  0.02163  0.46400  1.0000
  H   H844      1.0  0.45240  0.44813  0.30161  1.0000
  H   H845      1.0  0.60005  0.35929  0.01038  1.0000
  H   H846      1.0  0.61110  0.45909  0.06220  1.0000
  H   H847      1.0  0.59732  0.30284  0.10410  1.0000
  H   H848      1.0  0.37377  0.40728  0.30632  1.0000
  C   C476      1.0  0.55803  0.31302  0.12906  1.0000
  H   H849      1.0  0.50329  0.18160  0.04852  1.0000
  C   C477      1.0  0.61534  0.48171  0.12472  1.0000
  H   H850      1.0  0.35772  0.15611  0.43383  1.0000
  H   H851      1.0  0.33836  0.24946  0.99953  1.0000
  S   S95       1.0  0.66004  0.09566  0.09066  1.0000
  H   H852      1.0  0.54488  0.48968  0.30954  1.0000
  S   S96       1.0  0.64412  0.27676  0.11506  1.0000
  H   H853      1.0  0.64645  0.21499  0.43618  1.0000
  Fe  Fe47      1.0  0.66689  0.36832  0.12462  1.0000
  H   H854      1.0  0.62113  0.44445  0.16123  1.0000
  H   H855      1.0  0.64306  0.45754  0.08484  1.0000
  H   H856      1.0  0.36431  0.28204  0.05096  1.0000
  C   C478      1.0  0.38551  0.28572  0.27710  1.0000
  H   H857      1.0  0.60406  0.25841  0.45241  1.0000
  S   S97       1.0  0.65073  0.34147  0.17910  1.0000
  H   H858      1.0  0.61086  0.03069  0.32452  1.0000
  H   H859      1.0  0.47049  0.19554  0.04589  1.0000
  H   H860      1.0  0.39482  0.29715  0.24876  1.0000
  C   C479      1.0  0.56308  0.28789  0.03257  1.0000
  H   H861      1.0  0.35163  0.21234  0.39604  1.0000
  H   H862      1.0  0.52406  0.45570  0.39066  1.0000
  C   C480      1.0  0.33971  0.29671  0.24714  1.0000
  C   C481      1.0  0.57786  0.26352  0.05310  1.0000
  C   C482      1.0  0.60527  0.45941  0.15484  1.0000
  H   H863      1.0  0.62254  0.29209  0.41052  1.0000
  H   H864      1.0  0.58642  0.49301  0.40234  1.0000
  H   H865      1.0  0.35823  0.45206  0.21034  1.0000
  H   H866      1.0  0.66411  0.06424  0.44499  1.0000
  H   H867      1.0  0.40225  0.21185  0.41366  1.0000
  C   C483      1.0  0.41127  0.43878  0.30868  1.0000
  C   C484      1.0  0.62994  0.22809  0.42470  1.0000
  C   C485      1.0  0.55367  0.42082  0.43676  1.0000
  C   C486      1.0  0.40681  0.50128  0.98224  1.0000
  C   C487      1.0  0.61350  0.34251  0.01851  1.0000
  C   C488      1.0  0.66209  0.19147  0.15374  1.0000
  H   H868      1.0  0.62306  0.33560  0.37204  1.0000
  H   H869      1.0  0.58864  0.45003  0.13737  1.0000
  C   C489      1.0  0.35540  0.19097  0.39326  1.0000
  H   H870      1.0  0.54045  0.01692  0.20296  1.0000
  H   H871      1.0  0.56442  0.41198  0.40638  1.0000
  H   H872      1.0  0.57468  0.22137  0.05588  1.0000
  C   C490      1.0  0.57177  0.03506  0.16661  1.0000
  H   H873      1.0  0.60793  0.05440  0.46737  1.0000
  H   H874      1.0  0.41610  0.41857  0.32023  1.0000
  C   C491      1.0  0.62633  0.47141  0.07712  1.0000
  H   H875      1.0  0.39768  0.46106  0.25013  1.0000
  H   H876      1.0  0.41915  0.49010  0.00776  1.0000
  C   C492      1.0  0.58573  0.45521  0.44004  1.0000
  H   H877      1.0  0.57901  0.46027  0.34609  1.0000
  C   C493      1.0  0.37598  0.26561  0.98331  1.0000
  H   H878      1.0  0.66667  0.47334  0.00236  1.0000
  H   H879      1.0  0.54307  0.48400  0.47654  1.0000
  H   H880      1.0  0.65693  0.38876  0.29355  1.0000
  C   C494      1.0  0.66188  0.38436  0.32960  1.0000
  C   C495      1.0  0.54443  0.46810  0.30567  1.0000
  H   H881      1.0  0.61863  0.02860  0.42732  1.0000
  H   H882      1.0  0.40148  0.16331  0.44905  1.0000
  H   H883      1.0  0.54333  0.48343  0.39640  1.0000
  C   C496      1.0  0.62284  0.48680  0.43813  1.0000
  H   H884      1.0  0.45202  0.18481  0.45356  1.0000
  H   H885      1.0  0.52371  0.46228  0.30361  1.0000
  N   N30       1.0  0.63492  0.49185  0.04256  1.0000
  C   C497      1.0  0.64555  0.47909  0.99815  1.0000
  H   H886      1.0  0.58441  0.49591  0.46515  1.0000
  H   H887      1.0  0.59852  0.26236  0.04095  1.0000
  H   H888      1.0  0.58909  0.04682  0.17410  1.0000
  H   H889      1.0  0.56227  0.36745  0.44700  1.0000
  H   H890      1.0  0.57171  0.01288  0.23042  1.0000
  H   H891      1.0  0.35609  0.44923  0.10541  1.0000
  C   C498      1.0  0.64778  0.19326  0.01084  1.0000
  H   H892      1.0  0.41705  0.21989  0.46801  1.0000
  H   H893      1.0  0.36871  0.22755  0.45946  1.0000
  C   C499      1.0  0.62058  0.24571  0.46502  1.0000
  H   H894      1.0  0.55911  0.01775  0.30756  1.0000
  H   H895      1.0  0.63055  0.47910  0.47200  1.0000
  H   H896      1.0  0.61105  0.45533  0.98220  1.0000
  C   C500      1.0  0.34260  0.39702  0.26064  1.0000
  H   H897      1.0  0.52756  0.05161  0.99830  1.0000
  H   H898      1.0  0.35352  0.33430  0.46729  1.0000
  C   C501      1.0  0.58771  0.50058  0.01143  1.0000
  H   H899      1.0  0.56682  0.23563  0.99964  1.0000
  H   H900      1.0  0.37369  0.47754  0.99924  1.0000
  H   H901      1.0  0.57846  0.01738  0.14683  1.0000
  H   H902      1.0  0.36248  0.47860  0.13842  1.0000
  H   H903      1.0  0.38599  0.24834  0.99981  1.0000
  C   C502      1.0  0.51754  0.03285  0.99342  1.0000
  S   S98       1.0  0.66943  0.15832  0.16572  1.0000
  H   H904      1.0  0.56520  0.03362  0.47811  1.0000
  H   H905      1.0  0.55523  0.01186  0.97956  1.0000
  S   S99       1.0  0.45675  0.41508  0.90899  1.0000
  H   H906      1.0  0.62946  0.34279  0.94744  1.0000
  H   H907      1.0  0.53177  0.44861  0.64237  1.0000
  Fe  Fe48      1.0  0.42760  0.36200  0.60246  1.0000
  S   S100      1.0  0.43999  0.33241  0.65659  1.0000
  S   S101      1.0  0.45643  0.39235  0.58021  1.0000
  Fe  Fe49      1.0  0.42056  0.30394  0.60940  1.0000
  S   S102      1.0  0.44485  0.26930  0.58269  1.0000
  Fe  Fe50      1.0  0.40031  0.34020  0.68832  1.0000
  S   S103      1.0  0.39372  0.34286  0.76776  1.0000
  S   S104      1.0  0.41052  0.33322  0.55281  1.0000
  S   S105      1.0  0.38874  0.37187  0.63698  1.0000
  S   S106      1.0  0.60823  0.42356  0.57965  1.0000
  S   S107      1.0  0.64063  0.36761  0.56850  1.0000
  Fe  Fe51      1.0  0.64301  0.40772  0.53806  1.0000
  Fe  Fe52      1.0  0.60812  0.38423  0.61350  1.0000
  S   S108      1.0  0.57384  0.35855  0.62511  1.0000
  S   S109      1.0  0.63402  0.39510  0.67326  1.0000
  Fe  Fe53      1.0  0.37247  0.34004  0.59151  1.0000
  Fe  Fe54      1.0  0.46165  0.12056  0.57162  1.0000
  S   S110      1.0  0.48597  0.13448  0.51177  1.0000
  S   S111      1.0  0.43059  0.14751  0.60536  1.0000
  Fe  Fe55      1.0  0.48976  0.06654  0.57430  1.0000
  S   S112      1.0  0.51607  0.07730  0.51324  1.0000
  S   S113      1.0  0.49542  0.02465  0.60401  1.0000
  Fe  Fe56      1.0  0.51989  0.11569  0.55006  1.0000
  S   S114      1.0  0.55364  0.14304  0.55623  1.0000
  H   H908      1.0  0.50259  0.08628  0.91410  1.0000
  S   S115      1.0  0.49602  0.10421  0.61280  1.0000
  S   S116      1.0  0.45314  0.08199  0.53747  1.0000
  H   H909      1.0  0.47044  0.04959  0.91274  1.0000
  C   C503      1.0  0.63778  0.11953  0.59586  1.0000
  C   C504      1.0  0.62093  0.10049  0.57957  1.0000
  C   C505      1.0  0.59496  0.10744  0.56730  1.0000
  C   C506      1.0  0.58590  0.13337  0.57107  1.0000
  C   C507      1.0  0.60300  0.15247  0.58601  1.0000
  C   C508      1.0  0.62880  0.14557  0.59876  1.0000
  H   H910      1.0  0.62788  0.08037  0.57684  1.0000
  H   H911      1.0  0.58196  0.09299  0.55440  1.0000
  H   H912      1.0  0.59622  0.17264  0.58808  1.0000
  H   H913      1.0  0.64173  0.16041  0.61083  1.0000
  H   H914      1.0  0.66410  0.47347  0.83350  1.0000
  H   H915      1.0  0.48197  0.46375  0.53502  1.0000
  H   H916      1.0  0.40726  0.19139  0.65601  1.0000
  C   C509      1.0  0.43824  0.23600  0.58843  1.0000
  C   C510      1.0  0.45086  0.21864  0.55726  1.0000
  C   C511      1.0  0.44868  0.19163  0.56257  1.0000
  C   C512      1.0  0.43316  0.18160  0.59824  1.0000
  C   C513      1.0  0.41947  0.19901  0.62842  1.0000
  C   C514      1.0  0.42221  0.22624  0.62388  1.0000
  H   H917      1.0  0.46283  0.22613  0.52918  1.0000
  H   H918      1.0  0.45885  0.17864  0.53865  1.0000
  H   H919      1.0  0.54115  0.02177  0.90919  1.0000
  H   H920      1.0  0.36103  0.28374  0.79948  1.0000
  C   C515      1.0  0.48951  0.38267  0.58850  1.0000
  C   C516      1.0  0.49677  0.35644  0.59597  1.0000
  C   C517      1.0  0.52289  0.34925  0.60581  1.0000
  C   C518      1.0  0.54203  0.36815  0.60747  1.0000
  C   C519      1.0  0.53511  0.39426  0.59783  1.0000
  C   C520      1.0  0.50882  0.40151  0.58872  1.0000
  H   H921      1.0  0.48224  0.34166  0.59431  1.0000
  H   H922      1.0  0.52819  0.32900  0.61273  1.0000
  H   H923      1.0  0.54979  0.40892  0.59924  1.0000
  H   H924      1.0  0.50321  0.42178  0.58318  1.0000
  C   C521      1.0  0.43923  0.39455  0.87045  1.0000
  C   C522      1.0  0.42151  0.37636  0.88703  1.0000
  C   C523      1.0  0.40784  0.36071  0.85523  1.0000
  C   C524      1.0  0.41180  0.36282  0.80646  1.0000
  C   C525      1.0  0.42966  0.38088  0.78990  1.0000
  C   C526      1.0  0.44314  0.39669  0.82168  1.0000
  H   H925      1.0  0.41820  0.37446  0.92436  1.0000
  H   H926      1.0  0.39413  0.34689  0.86860  1.0000
  H   H927      1.0  0.43286  0.38290  0.75255  1.0000
  H   H928      1.0  0.45653  0.41084  0.80836  1.0000
  H   H929      1.0  0.66882  0.15939  0.51175  1.0000
  C   C527      1.0  0.49182  0.01105  0.66156  1.0000
  C   C528      1.0  0.48714  0.02654  0.70131  1.0000
  H   H930      1.0  0.61965  0.30983  0.60267  1.0000
  H   H931      1.0  0.48525  0.04754  0.69755  1.0000
  C   C529      1.0  0.65194  0.12173  0.92423  1.0000
  C   C530      1.0  0.51600  0.03955  0.85784  1.0000
  H   H932      1.0  0.58577  0.40537  0.48086  1.0000
  C   C531      1.0  0.65890  0.29663  0.53526  1.0000
  H   H933      1.0  0.51653  0.48048  0.84589  1.0000
  C   C532      1.0  0.34774  0.25892  0.96868  1.0000
  C   C533      1.0  0.52568  0.03756  0.90920  1.0000
  H   H934      1.0  0.33689  0.27791  0.96353  1.0000
  C   C534      1.0  0.34395  0.25037  0.83493  1.0000
  H   H935      1.0  0.53409  0.37637  0.48336  1.0000
  H   H936      1.0  0.39707  0.17538  0.92010  1.0000
  H   H937      1.0  0.35448  0.20761  0.96735  1.0000
  H   H938      1.0  0.62184  0.17552  0.96042  1.0000
  H   H939      1.0  0.62468  0.13385  0.87038  1.0000
  C   C535      1.0  0.49082  0.08129  0.94545  1.0000
  C   C536      1.0  0.56017  0.05201  0.61790  1.0000
  H   H940      1.0  0.49952  0.05399  0.85391  1.0000
  Fe  Fe57      1.0  0.47982  0.09545  0.47964  1.0000
  H   H941      1.0  0.55523  0.04003  0.64889  1.0000
  H   H942      1.0  0.54303  0.46895  0.77044  1.0000
  C   C537      1.0  0.63361  0.48643  0.72938  1.0000
  C   C538      1.0  0.36166  0.12856  0.56878  1.0000
  H   H943      1.0  0.52753  0.47350  0.68654  1.0000
  C   C539      1.0  0.36138  0.21708  0.93446  1.0000
  H   H944      1.0  0.38229  0.22133  0.94031  1.0000
  H   H945      1.0  0.54335  0.01870  0.54916  1.0000
  H   H946      1.0  0.55470  0.45809  0.51239  1.0000
  H   H947      1.0  0.36490  0.10706  0.56589  1.0000
  H   H948      1.0  0.35029  0.25845  0.76097  1.0000
  H   H949      1.0  0.37093  0.49434  0.94377  1.0000
  C   C540      1.0  0.36297  0.21514  0.48941  1.0000
  C   C541      1.0  0.59498  0.00428  0.50264  1.0000
  H   H950      1.0  0.58203  0.01142  0.71962  1.0000
  H   H951      1.0  0.65876  0.14735  0.81358  1.0000
  N   N31       1.0  0.50504  0.03208  0.94563  1.0000
  H   H952      1.0  0.65706  0.45384  0.75497  1.0000
  H   H953      1.0  0.35359  0.26449  0.52920  1.0000
  H   H954      1.0  0.34200  0.19102  0.88441  1.0000
  C   C542      1.0  0.35981  0.26227  0.79508  1.0000
  C   C543      1.0  0.64120  0.44652  0.93168  1.0000
  C   C544      1.0  0.60470  0.29925  0.58320  1.0000
  S   S117      1.0  0.66728  0.23702  0.66045  1.0000
  H   H955      1.0  0.54173  0.05982  0.60213  1.0000
  H   H956      1.0  0.38185  0.26418  0.56678  1.0000
  H   H957      1.0  0.50240  0.08540  0.97721  1.0000
  H   H958      1.0  0.66288  0.44438  0.92928  1.0000
  C   C545      1.0  0.56144  0.01117  0.56702  1.0000
  H   H959      1.0  0.51344  0.45412  0.75562  1.0000
  C   C546      1.0  0.65246  0.48411  0.80779  1.0000
  H   H960      1.0  0.36363  0.22057  0.56573  1.0000
  H   H961      1.0  0.57872  0.30338  0.64353  1.0000
  H   H962      1.0  0.45422  0.09646  0.91493  1.0000
  H   H963      1.0  0.55677  0.41455  0.51347  1.0000
  C   C547      1.0  0.38470  0.48370  0.96765  1.0000
  H   H964      1.0  0.39279  0.46591  0.94974  1.0000
  C   C548      1.0  0.36193  0.19640  0.89494  1.0000
  C   C549      1.0  0.49801  0.37495  0.72243  1.0000
  C   C550      1.0  0.53023  0.44181  0.82236  1.0000
  H   H965      1.0  0.43547  0.49138  0.92881  1.0000
  H   H966      1.0  0.59541  0.03124  0.59738  1.0000
  H   H967      1.0  0.50112  0.49145  0.51969  1.0000
  H   H968      1.0  0.62757  0.26282  0.57484  1.0000
  H   H969      1.0  0.57188  0.46946  0.61303  1.0000
  H   H970      1.0  0.37523  0.13581  0.59569  1.0000
  H   H971      1.0  0.34116  0.13267  0.58047  1.0000
  N   N32       1.0  0.54812  0.43067  0.73819  1.0000
  C   C551      1.0  0.56952  0.41517  0.76316  1.0000
  C   C552      1.0  0.52981  0.41181  0.71594  1.0000
  C   C553      1.0  0.56092  0.44569  0.69900  1.0000
  C   C554      1.0  0.53337  0.44975  0.76998  1.0000
  C   C555      1.0  0.51039  0.45990  0.84764  1.0000
  C   C556      1.0  0.59280  0.43125  0.78055  1.0000
  H   H972      1.0  0.57924  0.04852  0.55106  1.0000
  C   C557      1.0  0.51355  0.39492  0.74955  1.0000
  H   H973      1.0  0.52410  0.36176  0.93068  1.0000
  H   H974      1.0  0.54920  0.44311  0.84083  1.0000
  C   C558      1.0  0.60899  0.41639  0.81740  1.0000
  C   C559      1.0  0.46662  0.09968  0.94613  1.0000
  H   H975      1.0  0.57805  0.39973  0.73946  1.0000
  H   H976      1.0  0.56163  0.40421  0.79333  1.0000
  H   H977      1.0  0.51505  0.42229  0.69375  1.0000
  H   H978      1.0  0.54110  0.39832  0.69220  1.0000
  H   H979      1.0  0.57317  0.43223  0.67651  1.0000
  H   H980      1.0  0.57461  0.45999  0.71365  1.0000
  H   H981      1.0  0.51387  0.43351  0.49810  1.0000
  C   C560      1.0  0.48468  0.01486  0.74606  1.0000
  H   H982      1.0  0.37258  0.20386  0.86395  1.0000
  H   H983      1.0  0.63867  0.28510  0.66941  1.0000
  H   H984      1.0  0.60606  0.43527  0.75057  1.0000
  H   H985      1.0  0.58606  0.45031  0.79558  1.0000
  C   C561      1.0  0.64512  0.13189  0.87984  1.0000
  H   H986      1.0  0.56679  0.34436  0.95760  1.0000
  H   H987      1.0  0.52611  0.38393  0.77481  1.0000
  H   H988      1.0  0.49909  0.40751  0.76886  1.0000
  C   C562      1.0  0.66446  0.13952  0.84740  1.0000
  H   H989      1.0  0.64489  0.49335  0.96855  1.0000
  Fe  Fe58      1.0  0.63667  0.43391  0.63673  1.0000
  H   H990      1.0  0.41231  0.23956  0.64803  1.0000
  C   C563      1.0  0.58614  0.28781  0.61944  1.0000
  H   H991      1.0  0.59654  0.27261  0.64075  1.0000
  H   H992      1.0  0.62599  0.42809  0.82738  1.0000
  H   H993      1.0  0.59701  0.41295  0.84930  1.0000
  H   H994      1.0  0.61646  0.39737  0.80312  1.0000
  H   H995      1.0  0.51356  0.46740  0.56137  1.0000
  N   N33       1.0  0.34546  0.24199  0.92558  1.0000
  H   H996      1.0  0.57163  0.06874  0.62994  1.0000
  C   C564      1.0  0.54223  0.46173  0.66621  1.0000
  C   C565      1.0  0.57605  0.03589  0.58197  1.0000
  H   H997      1.0  0.39535  0.21985  0.53855  1.0000
  H   H998      1.0  0.37996  0.25341  0.79401  1.0000
  S   S118      1.0  0.62649  0.11215  0.96337  1.0000
  H   H999      1.0  0.59998  0.26710  0.53737  1.0000
  H   H1000     1.0  0.51912  0.21990  0.49184  1.0000
  S   S119      1.0  0.38150  0.30865  0.64566  1.0000
  H   H1001     1.0  0.35252  0.32825  0.83155  1.0000
  H   H1002     1.0  0.63269  0.42769  0.92165  1.0000
  N   N34       1.0  0.52001  0.21473  0.63771  1.0000
  C   C566      1.0  0.51515  0.24399  0.63815  1.0000
  C   C567      1.0  0.52017  0.20563  0.58742  1.0000
  C   C568      1.0  0.49705  0.20255  0.66211  1.0000
  C   C569      1.0  0.54491  0.20584  0.66243  1.0000
  C   C570      1.0  0.56819  0.22450  0.66086  1.0000
  C   C571      1.0  0.50881  0.25630  0.68673  1.0000
  C   C572      1.0  0.49622  0.17227  0.66016  1.0000
  C   C573      1.0  0.54241  0.21531  0.55540  1.0000
  C   C574      1.0  0.53708  0.20913  0.50395  1.0000
  C   C575      1.0  0.59263  0.21193  0.68338  1.0000
  C   C576      1.0  0.51054  0.28604  0.68524  1.0000
  C   C577      1.0  0.47733  0.16182  0.69691  1.0000
  H   H1003     1.0  0.49829  0.24949  0.61498  1.0000
  H   H1004     1.0  0.53188  0.25426  0.62290  1.0000
  H   H1005     1.0  0.52157  0.18405  0.58544  1.0000
  H   H1006     1.0  0.50128  0.21125  0.57077  1.0000
  H   H1007     1.0  0.47822  0.21046  0.64749  1.0000
  H   H1008     1.0  0.49669  0.20793  0.69989  1.0000
  H   H1009     1.0  0.54105  0.20221  0.70035  1.0000
  H   H1010     1.0  0.55206  0.18658  0.64824  1.0000
  H   H1011     1.0  0.56336  0.24269  0.68058  1.0000
  H   H1012     1.0  0.57337  0.22999  0.62460  1.0000
  H   H1013     1.0  0.48843  0.25192  0.69726  1.0000
  H   H1014     1.0  0.52228  0.24844  0.71409  1.0000
  H   H1015     1.0  0.51578  0.16288  0.66628  1.0000
  H   H1016     1.0  0.48925  0.16603  0.62523  1.0000
  H   H1017     1.0  0.54468  0.23667  0.55781  1.0000
  H   H1018     1.0  0.56115  0.20511  0.56492  1.0000
  H   H1019     1.0  0.59919  0.30280  0.48255  1.0000
  H   H1020     1.0  0.52367  0.42160  0.82676  1.0000
  H   H1021     1.0  0.60925  0.01618  0.52146  1.0000
  H   H1022     1.0  0.60894  0.22573  0.68195  1.0000
  H   H1023     1.0  0.58882  0.20704  0.72070  1.0000
  H   H1024     1.0  0.59898  0.19386  0.66446  1.0000
  H   H1025     1.0  0.53084  0.29175  0.67705  1.0000
  H   H1026     1.0  0.49701  0.29449  0.65835  1.0000
  H   H1027     1.0  0.50481  0.29441  0.71984  1.0000
  H   H1028     1.0  0.47561  0.14042  0.69242  1.0000
  H   H1029     1.0  0.48458  0.16556  0.73282  1.0000
  H   H1030     1.0  0.45754  0.17116  0.69287  1.0000
  H   H1031     1.0  0.34350  0.37158  0.72020  1.0000
  H   H1032     1.0  0.51146  0.36096  0.70377  1.0000
  S   S120      1.0  0.62830  0.47374  0.67202  1.0000
  C   C578      1.0  0.61702  0.27727  0.55169  1.0000
  H   H1033     1.0  0.33756  0.33040  0.74384  1.0000
  C   C579      1.0  0.36314  0.17154  0.52425  1.0000
  C   C580      1.0  0.36671  0.14133  0.52123  1.0000
  H   H1034     1.0  0.65091  0.33133  0.66285  1.0000
  C   C581      1.0  0.65894  0.28971  0.66412  1.0000
  H   H1035     1.0  0.49066  0.45841  0.83183  1.0000
  H   H1036     1.0  0.34131  0.21812  0.49234  1.0000
  H   H1037     1.0  0.55478  0.03341  0.82648  1.0000
  H   H1038     1.0  0.62163  0.21093  0.95850  1.0000
  H   H1039     1.0  0.37756  0.25322  0.88080  1.0000
  C   C582      1.0  0.53795  0.04768  0.82485  1.0000
  C   C583      1.0  0.48286  0.05231  0.94423  1.0000
  H   H1040     1.0  0.54681  0.01457  0.72439  1.0000
  H   H1041     1.0  0.38636  0.26395  0.50428  1.0000
  C   C584      1.0  0.37655  0.17135  0.91058  1.0000
  C   C585      1.0  0.66588  0.31591  0.66064  1.0000
  N   N35       1.0  0.63488  0.28591  0.51252  1.0000
  C   C586      1.0  0.50220  0.47031  0.52863  1.0000
  H   H1042     1.0  0.48483  0.38485  0.69655  1.0000
  H   H1043     1.0  0.46942  0.04967  0.97459  1.0000
  H   H1044     1.0  0.37689  0.15692  0.88154  1.0000
  C   C587      1.0  0.49403  0.00568  0.93582  1.0000
  H   H1045     1.0  0.48072  0.02715  0.77619  1.0000
  C   C588      1.0  0.64318  0.26198  0.48464  1.0000
  H   H1046     1.0  0.56916  0.27931  0.60172  1.0000
  H   H1047     1.0  0.65549  0.24842  0.50670  1.0000
  H   H1048     1.0  0.50893  0.45405  0.88509  1.0000
  C   C589      1.0  0.64849  0.47289  0.76321  1.0000
  H   H1049     1.0  0.47271  0.12029  0.94570  1.0000
  H   H1050     1.0  0.50948  0.02028  0.84576  1.0000
  C   C590      1.0  0.37400  0.25667  0.53336  1.0000
  H   H1051     1.0  0.54236  0.31989  0.96192  1.0000
  H   H1052     1.0  0.59636  0.31162  0.97752  1.0000
  H   H1053     1.0  0.36664  0.16254  0.94123  1.0000
  C   C591      1.0  0.35593  0.25652  0.88355  1.0000
  C   C592      1.0  0.54912  0.33838  0.97710  1.0000
  H   H1054     1.0  0.65352  0.31277  0.55954  1.0000
  H   H1055     1.0  0.38691  0.13554  0.50988  1.0000
  C   C593      1.0  0.55746  0.48046  0.63535  1.0000
  C   C594      1.0  0.37481  0.22680  0.53434  1.0000
  H   H1056     1.0  0.63422  0.46183  0.90658  1.0000
  H   H1057     1.0  0.48575  0.36377  0.74713  1.0000
  H   H1058     1.0  0.61299  0.23285  0.49310  1.0000
  H   H1059     1.0  0.53453  0.18785  0.49907  1.0000
  H   H1060     1.0  0.37558  0.17747  0.55413  1.0000
  H   H1061     1.0  0.56477  0.36661  0.51000  1.0000
  H   H1062     1.0  0.59320  0.31377  0.56217  1.0000
  H   H1063     1.0  0.54468  0.06739  0.83424  1.0000
  H   H1064     1.0  0.53061  0.04838  0.78824  1.0000
  H   H1065     1.0  0.53606  0.05568  0.91798  1.0000
  H   H1066     1.0  0.56803  0.49455  0.65726  1.0000
  H   H1067     1.0  0.34249  0.17614  0.53507  1.0000
  H   H1068     1.0  0.34299  0.22916  0.82835  1.0000
  H   H1069     1.0  0.38778  0.27185  0.95277  1.0000
  H   H1070     1.0  0.48310  0.00612  0.90211  1.0000
  H   H1071     1.0  0.35313  0.27804  0.88819  1.0000
  H   H1072     1.0  0.55387  0.21507  0.48195  1.0000
  H   H1073     1.0  0.35259  0.13303  0.49642  1.0000
  H   H1074     1.0  0.34832  0.41532  0.68617  1.0000
  H   H1075     1.0  0.54374  0.49171  0.61229  1.0000
  C   C595      1.0  0.52765  0.35937  0.96886  1.0000
  H   H1076     1.0  0.45710  0.00851  0.97619  1.0000
  H   H1077     1.0  0.65326  0.05268  0.50137  1.0000
  H   H1078     1.0  0.40999  0.17776  0.50221  1.0000
  H   H1079     1.0  0.62206  0.32597  0.50023  1.0000
  H   H1080     1.0  0.59118  0.49393  0.97484  1.0000
  Fe  Fe59      1.0  0.66684  0.38174  0.62517  1.0000
  C   C596      1.0  0.51472  0.45448  0.48852  1.0000
  N   N36       1.0  0.36999  0.18668  0.48048  1.0000
  H   H1081     1.0  0.45485  0.09664  0.97848  1.0000
  C   C597      1.0  0.62056  0.30647  0.48331  1.0000
  H   H1082     1.0  0.66871  0.28131  0.55755  1.0000
  C   C598      1.0  0.54343  0.46232  0.47976  1.0000
  C   C599      1.0  0.56404  0.40565  0.48041  1.0000
  C   C600      1.0  0.55573  0.37728  0.47991  1.0000
  Fe  Fe60      1.0  0.46433  0.57435  0.34142  1.0000
  S   S121      1.0  0.49355  0.58564  0.39653  1.0000
  S   S122      1.0  0.46915  0.53311  0.30980  1.0000
  Fe  Fe61      1.0  0.43621  0.62766  0.34714  1.0000
  S   S123      1.0  0.46311  0.64291  0.40151  1.0000
  S   S124      1.0  0.40368  0.65473  0.32029  1.0000
  Fe  Fe62      1.0  0.49515  0.62372  0.35824  1.0000
  S   S125      1.0  0.53070  0.64757  0.34204  1.0000
  Fe  Fe63      1.0  0.45945  0.60414  0.43687  1.0000
  S   S126      1.0  0.46845  0.61158  0.30042  1.0000
  S   S127      1.0  0.42993  0.58959  0.38506  1.0000
  Fe  Fe64      1.0  0.41747  0.80543  0.28784  1.0000
  S   S128      1.0  0.40586  0.82739  0.35346  1.0000
  S   S129      1.0  0.44381  0.76905  0.28572  1.0000
  Fe  Fe65      1.0  0.39555  0.84798  0.22196  1.0000
  S   S130      1.0  0.38133  0.87307  0.28232  1.0000
  S   S131      1.0  0.38914  0.85942  0.14524  1.0000
  Fe  Fe66      1.0  0.42038  0.86255  0.31487  1.0000
  S   S132      1.0  0.44534  0.89413  0.34525  1.0000
  Fe  Fe67      1.0  0.36762  0.83609  0.31642  1.0000
  S   S133      1.0  0.43513  0.83991  0.25248  1.0000
  S   S134      1.0  0.37860  0.81161  0.25270  1.0000
  H   H1083     1.0  0.51932  0.70923  0.36935  1.0000
  S   S135      1.0  0.64572  0.61785  0.41061  1.0000
  Fe  Fe68      1.0  0.59690  0.88543  0.39824  1.0000
  S   S136      1.0  0.62225  0.90056  0.34040  1.0000
  S   S137      1.0  0.56379  0.85902  0.38031  1.0000
  H   H1084     1.0  0.37575  0.70465  0.31242  1.0000
  S   S138      1.0  0.59843  0.92175  0.44171  1.0000
  S   S139      1.0  0.62998  0.86573  0.43741  1.0000
  S   S140      1.0  0.64626  0.58970  0.07830  1.0000
  H   H1085     1.0  0.55020  0.58833  0.07164  1.0000
  C   C601      1.0  0.64295  0.98883  0.22573  1.0000
  C   C602      1.0  0.41442  0.87089  0.10806  1.0000
  C   C603      1.0  0.40823  0.87967  0.06253  1.0000
  C   C604      1.0  0.42790  0.88832  0.03173  1.0000
  C   C605      1.0  0.45400  0.88848  0.04632  1.0000
  C   C606      1.0  0.46018  0.87964  0.09175  1.0000
  C   C607      1.0  0.44058  0.87075  0.12234  1.0000
  H   H1086     1.0  0.38809  0.87981  0.05102  1.0000
  C   C608      1.0  0.33981  0.67959  0.98404  1.0000
  H   H1087     1.0  0.48031  0.87951  0.10312  1.0000
  H   H1088     1.0  0.44562  0.86374  0.15696  1.0000
  C   C609      1.0  0.47807  0.88452  0.35705  1.0000
  C   C610      1.0  0.48695  0.85897  0.34807  1.0000
  C   C611      1.0  0.51324  0.85168  0.35567  1.0000
  C   C612      1.0  0.53102  0.86977  0.37192  1.0000
  C   C613      1.0  0.52228  0.89549  0.38084  1.0000
  C   C614      1.0  0.49574  0.90279  0.37373  1.0000
  H   H1089     1.0  0.47350  0.84474  0.33544  1.0000
  H   H1090     1.0  0.51974  0.83189  0.34892  1.0000
  H   H1091     1.0  0.53583  0.90955  0.39364  1.0000
  H   H1092     1.0  0.48887  0.92259  0.38099  1.0000
  C   C615      1.0  0.46188  0.52196  0.25221  1.0000
  C   C616      1.0  0.44959  0.53805  0.21863  1.0000
  C   C617      1.0  0.44366  0.52806  0.17389  1.0000
  H   H1093     1.0  0.44462  0.55816  0.22723  1.0000
  H   H1094     1.0  0.43408  0.54070  0.14835  1.0000
  C   C618      1.0  0.56167  0.63905  0.36549  1.0000
  C   C619      1.0  0.56824  0.61368  0.38052  1.0000
  C   C620      1.0  0.59386  0.60745  0.39593  1.0000
  C   C621      1.0  0.61297  0.62654  0.39620  1.0000
  C   C622      1.0  0.60587  0.65216  0.38337  1.0000
  C   C623      1.0  0.58042  0.65831  0.36772  1.0000
  H   H1095     1.0  0.55385  0.59869  0.37909  1.0000
  H   H1096     1.0  0.59914  0.58763  0.40618  1.0000
  H   H1097     1.0  0.62000  0.66729  0.38559  1.0000
  H   H1098     1.0  0.57521  0.67810  0.35741  1.0000
  C   C624      1.0  0.41450  0.68665  0.31076  1.0000
  C   C625      1.0  0.44121  0.69103  0.30563  1.0000
  C   C626      1.0  0.44980  0.71639  0.29753  1.0000
  C   C627      1.0  0.43180  0.73763  0.29518  1.0000
  C   C628      1.0  0.40502  0.73334  0.30017  1.0000
  C   C629      1.0  0.39639  0.70784  0.30779  1.0000
  H   H1099     1.0  0.45529  0.67483  0.30773  1.0000
  H   H1100     1.0  0.47050  0.71958  0.29346  1.0000
  H   H1101     1.0  0.39105  0.74966  0.29853  1.0000
  H   H1102     1.0  0.43094  0.95735  0.24413  1.0000
  C   C630      1.0  0.34057  0.62950  0.11917  1.0000
  C   C631      1.0  0.52685  0.93327  0.09969  1.0000
  H   H1103     1.0  0.56011  0.56489  0.11650  1.0000
  H   H1104     1.0  0.61610  0.60982  0.30130  1.0000
  H   H1105     1.0  0.45152  0.96138  0.98689  1.0000
  H   H1106     1.0  0.62780  0.50769  0.43510  1.0000
  H   H1107     1.0  0.51945  0.89993  0.14232  1.0000
  H   H1108     1.0  0.51567  0.89271  0.27656  1.0000
  H   H1109     1.0  0.40920  0.59677  0.18860  1.0000
  H   H1110     1.0  0.61365  0.66032  0.23171  1.0000
  C   C632      1.0  0.52628  0.92002  0.14777  1.0000
  H   H1111     1.0  0.34976  0.85363  0.42974  1.0000
  C   C633      1.0  0.40180  0.60089  0.22462  1.0000
  H   H1112     1.0  0.59223  0.58434  0.30071  1.0000
  C   C634      1.0  0.60028  0.60168  0.23248  1.0000
  N   N37       1.0  0.55860  0.76991  0.32573  1.0000
  C   C635      1.0  0.53996  0.76275  0.28732  1.0000
  C   C636      1.0  0.57794  0.74738  0.33327  1.0000
  C   C637      1.0  0.54285  0.77315  0.37053  1.0000
  C   C638      1.0  0.57239  0.79502  0.31585  1.0000
  C   C639      1.0  0.57912  0.80143  0.26404  1.0000
  C   C640      1.0  0.51617  0.78198  0.28017  1.0000
  C   C641      1.0  0.55864  0.77902  0.41554  1.0000
  C   C642      1.0  0.59696  0.74067  0.29232  1.0000
  C   C643      1.0  0.61013  0.71378  0.29936  1.0000
  C   C644      1.0  0.59573  0.82568  0.26102  1.0000
  C   C645      1.0  0.50379  0.77858  0.23200  1.0000
  C   C646      1.0  0.66491  0.77140  0.36902  1.0000
  H   H1113     1.0  0.53184  0.74316  0.29433  1.0000
  H   H1114     1.0  0.55026  0.76065  0.25321  1.0000
  H   H1115     1.0  0.59102  0.75124  0.36332  1.0000
  H   H1116     1.0  0.56726  0.72946  0.34281  1.0000
  H   H1117     1.0  0.53143  0.75542  0.37756  1.0000
  H   H1118     1.0  0.52803  0.78936  0.36695  1.0000
  H   H1119     1.0  0.56042  0.81208  0.32869  1.0000
  H   H1120     1.0  0.59083  0.79554  0.33614  1.0000
  H   H1121     1.0  0.56104  0.80563  0.24365  1.0000
  H   H1122     1.0  0.59012  0.78525  0.24652  1.0000
  H   H1123     1.0  0.50093  0.77834  0.30715  1.0000
  H   H1124     1.0  0.52186  0.80254  0.28355  1.0000
  H   H1125     1.0  0.57280  0.79465  0.40948  1.0000
  H   H1126     1.0  0.56953  0.76118  0.42769  1.0000
  H   H1127     1.0  0.58720  0.74024  0.25786  1.0000
  H   H1128     1.0  0.61260  0.75525  0.29117  1.0000
  H   H1129     1.0  0.62697  0.71135  0.27486  1.0000
  H   H1130     1.0  0.61749  0.71145  0.33569  1.0000
  H   H1131     1.0  0.59610  0.69822  0.29245  1.0000
  H   H1132     1.0  0.59980  0.83041  0.22373  1.0000
  H   H1133     1.0  0.58527  0.84276  0.27741  1.0000
  H   H1134     1.0  0.61474  0.82218  0.27912  1.0000
  H   H1135     1.0  0.51793  0.78303  0.20364  1.0000
  H   H1136     1.0  0.49703  0.75832  0.22787  1.0000
  H   H1137     1.0  0.48652  0.79221  0.22860  1.0000
  H   H1138     1.0  0.47510  0.87954  0.24552  1.0000
  H   H1139     1.0  0.35756  0.61570  0.12364  1.0000
  Fe  Fe69      1.0  0.64533  0.59463  0.99855  1.0000
  H   H1140     1.0  0.50767  0.55182  0.05726  1.0000
  H   H1141     1.0  0.36806  0.61722  0.25987  1.0000
  H   H1142     1.0  0.39103  0.71780  0.12635  1.0000
  H   H1143     1.0  0.43856  0.98709  0.27409  1.0000
  C   C647      1.0  0.57404  0.94885  0.28484  1.0000
  N   N38       1.0  0.56983  0.63518  0.18909  1.0000
  H   H1144     1.0  0.48616  0.83964  0.19952  1.0000
  C   C648      1.0  0.55938  0.61599  0.15400  1.0000
  C   C649      1.0  0.54837  0.65543  0.19981  1.0000
  C   C650      1.0  0.57706  0.62175  0.23462  1.0000
  C   C651      1.0  0.48086  0.93298  0.25363  1.0000
  C   C652      1.0  0.52113  0.64480  0.21317  1.0000
  C   C653      1.0  0.63792  0.97743  0.26989  1.0000
  C   C654      1.0  0.51305  0.89764  0.23876  1.0000
  H   H1145     1.0  0.39054  0.69493  0.20273  1.0000
  C   C655      1.0  0.50168  0.66714  0.22552  1.0000
  H   H1146     1.0  0.48916  0.72726  0.38265  1.0000
  H   H1147     1.0  0.41606  0.61292  0.24343  1.0000
  H   H1148     1.0  0.54813  0.60073  0.17245  1.0000
  C   C656      1.0  0.60878  0.59296  0.28140  1.0000
  H   H1149     1.0  0.54528  0.66870  0.16914  1.0000
  H   H1150     1.0  0.55409  0.66805  0.22955  1.0000
  H   H1151     1.0  0.58126  0.63641  0.26216  1.0000
  H   H1152     1.0  0.56024  0.61098  0.24889  1.0000
  C   C657      1.0  0.65256  0.81746  0.36340  1.0000
  H   H1153     1.0  0.42106  0.83682  0.00794  1.0000
  H   H1154     1.0  0.52242  0.63157  0.24388  1.0000
  H   H1155     1.0  0.51263  0.63385  0.18372  1.0000
  H   H1156     1.0  0.63748  0.83268  0.36408  1.0000
  C   C658      1.0  0.50767  0.93527  0.18207  1.0000
  S   S141      1.0  0.66213  0.91993  0.42398  1.0000
  Fe  Fe70      1.0  0.65557  0.88317  0.38257  1.0000
  H   H1157     1.0  0.50842  0.67797  0.25671  1.0000
  H   H1158     1.0  0.49923  0.68088  0.19557  1.0000
  H   H1159     1.0  0.48230  0.65911  0.23401  1.0000
  H   H1160     1.0  0.61752  0.61010  0.21558  1.0000
  H   H1161     1.0  0.56216  0.91490  0.24910  1.0000
  H   H1162     1.0  0.47953  0.92500  0.28976  1.0000
  C   C659      1.0  0.37783  0.72501  0.15494  1.0000
  H   H1163     1.0  0.52311  0.99006  0.41109  1.0000
  C   C660      1.0  0.56568  0.52152  0.01000  1.0000
  C   C661      1.0  0.44325  0.79366  0.04662  1.0000
  H   H1164     1.0  0.57077  0.97038  0.28477  1.0000
  H   H1165     1.0  0.59485  0.94442  0.27574  1.0000
  H   H1166     1.0  0.36014  0.71140  0.21826  1.0000
  H   H1167     1.0  0.56113  0.94458  0.21436  1.0000
  H   H1168     1.0  0.54658  0.91832  0.16084  1.0000
  C   C662      1.0  0.42058  0.79682  0.08296  1.0000
  C   C663      1.0  0.42960  0.78918  0.13230  1.0000
  C   C664      1.0  0.37664  0.64199  0.19877  1.0000
  C   C665      1.0  0.44385  0.96596  0.27081  1.0000
  H   H1169     1.0  0.44463  0.52528  0.02262  1.0000
  C   C666      1.0  0.61322  0.51158  0.03134  1.0000
  H   H1170     1.0  0.45280  0.77399  0.05182  1.0000
  H   H1171     1.0  0.45790  0.80797  0.05818  1.0000
  C   C667      1.0  0.57946  0.60214  0.12033  1.0000
  H   H1172     1.0  0.44029  0.95638  0.30519  1.0000
  C   C668      1.0  0.37495  0.61494  0.22309  1.0000
  H   H1173     1.0  0.56039  0.52802  0.04605  1.0000
  H   H1174     1.0  0.64268  0.66738  0.16160  1.0000
  H   H1175     1.0  0.39026  0.65337  0.22033  1.0000
  H   H1176     1.0  0.59655  0.59349  0.13901  1.0000
  H   H1177     1.0  0.58689  0.61641  0.09443  1.0000
  H   H1178     1.0  0.42279  0.89526  0.99700  1.0000
  H   H1179     1.0  0.64319  0.95708  0.27606  1.0000
  H   H1180     1.0  0.41362  0.81755  0.08449  1.0000
  H   H1181     1.0  0.40363  0.78499  0.07408  1.0000
  C   C669      1.0  0.34004  0.66420  0.24003  1.0000
  H   H1182     1.0  0.41313  0.79235  0.15750  1.0000
  H   H1183     1.0  0.43601  0.76826  0.13364  1.0000
  H   H1184     1.0  0.36758  0.67586  0.13149  1.0000
  C   C670      1.0  0.62807  0.68244  0.17371  1.0000
  H   H1185     1.0  0.48423  0.97237  0.28337  1.0000
  H   H1186     1.0  0.47604  0.54226  0.07825  1.0000
  H   H1187     1.0  0.63814  0.69594  0.19744  1.0000
  H   H1188     1.0  0.48894  0.69250  0.37426  1.0000
  H   H1189     1.0  0.53184  0.89140  0.22200  1.0000
  C   C671      1.0  0.49158  0.87987  0.21998  1.0000
  C   C672      1.0  0.62615  0.99233  0.30584  1.0000
  H   H1190     1.0  0.58619  0.65939  0.13498  1.0000
  H   H1191     1.0  0.59131  0.68555  0.20974  1.0000
  H   H1192     1.0  0.48774  0.93387  0.16665  1.0000
  H   H1193     1.0  0.52459  0.93659  0.29925  1.0000
  H   H1194     1.0  0.60863  0.63553  0.15682  1.0000
  C   C673      1.0  0.52974  0.99133  0.37407  1.0000
  H   H1195     1.0  0.46532  0.92332  0.23340  1.0000
  H   H1196     1.0  0.38690  0.63915  0.16454  1.0000
  H   H1197     1.0  0.62497  0.57801  0.27867  1.0000
  H   H1198     1.0  0.51839  0.85107  0.18744  1.0000
  C   C674      1.0  0.52729  0.94110  0.26123  1.0000
  H   H1199     1.0  0.65270  0.58880  0.17811  1.0000
  H   H1200     1.0  0.59450  0.58397  0.21335  1.0000
  C   C675      1.0  0.66450  0.60966  0.11637  1.0000
  H   H1201     1.0  0.51219  0.95635  0.17963  1.0000
  H   H1202     1.0  0.51667  0.97938  0.35249  1.0000
  H   H1203     1.0  0.57160  0.53860  0.98887  1.0000
  H   H1204     1.0  0.52400  0.96252  0.25739  1.0000
  C   C676      1.0  0.56695  0.58040  0.09254  1.0000
  C   C677      1.0  0.54049  0.78797  0.45559  1.0000
  H   H1205     1.0  0.65769  0.54228  0.02345  1.0000
  H   H1206     1.0  0.50878  0.84355  0.24714  1.0000
  S   S142      1.0  0.66341  0.67296  0.32636  1.0000
  H   H1207     1.0  0.53494  0.95306  0.10238  1.0000
  H   H1208     1.0  0.42219  0.56048  0.99313  1.0000
  C   C678      1.0  0.47261  0.96240  0.25642  1.0000
  H   H1209     1.0  0.56579  0.70674  0.45221  1.0000
  H   H1210     1.0  0.61969  0.77892  0.46949  1.0000
  H   H1211     1.0  0.58174  0.57161  0.06802  1.0000
  H   H1212     1.0  0.53940  0.92143  0.07527  1.0000
  C   C679      1.0  0.50042  0.70863  0.38867  1.0000
  C   C680      1.0  0.49124  0.53867  0.05074  1.0000
  Fe  Fe71      1.0  0.62622  0.93612  0.38587  1.0000
  H   H1213     1.0  0.38779  0.74065  0.17423  1.0000
  H   H1214     1.0  0.50682  0.93485  0.08466  1.0000
  C   C681      1.0  0.47988  0.54406  0.00203  1.0000
  S   S143      1.0  0.47927  0.90082  0.01023  1.0000
  H   H1215     1.0  0.48373  0.88726  0.18622  1.0000
  N   N39       1.0  0.50761  0.92660  0.23284  1.0000
  S   S144      1.0  0.61867  0.97868  0.36190  1.0000
  C   C682      1.0  0.64599  0.79165  0.37231  1.0000
  H   H1216     1.0  0.54520  0.62613  0.12995  1.0000
  H   H1217     1.0  0.62623  0.78739  0.38254  1.0000
  C   C683      1.0  0.50199  0.85181  0.21315  1.0000
  C   C684      1.0  0.52086  0.67893  0.45056  1.0000
  C   C685      1.0  0.55655  0.93597  0.24903  1.0000
  H   H1218     1.0  0.62071  0.69367  0.14286  1.0000
  H   H1219     1.0  0.48545  0.70385  0.45813  1.0000
  S   S145      1.0  0.65557  0.73986  0.38476  1.0000
  C   C686      1.0  0.59256  0.64932  0.16792  1.0000
  H   H1220     1.0  0.44593  0.80147  0.14355  1.0000
  H   H1221     1.0  0.36154  0.60202  0.20443  1.0000
  H   H1222     1.0  0.49108  0.78633  0.01199  1.0000
  C   C687      1.0  0.65693  0.50620  0.06517  1.0000
  C   C688      1.0  0.66362  0.60500  0.16494  1.0000
  H   H1223     1.0  0.35955  0.73347  0.13937  1.0000
  H   H1224     1.0  0.53014  0.80671  0.44631  1.0000
  H   H1225     1.0  0.60827  0.52381  0.06258  1.0000
  C   C689      1.0  0.60550  0.66971  0.19958  1.0000
  H   H1226     1.0  0.47533  0.97227  0.22216  1.0000
  H   H1227     1.0  0.57043  0.94113  0.32067  1.0000
  H   H1228     1.0  0.40026  0.58206  0.24366  1.0000
  H   H1229     1.0  0.55013  0.98314  0.37153  1.0000
  H   H1230     1.0  0.52585  0.77299  0.46337  1.0000
  H   H1231     1.0  0.65203  0.97704  0.19830  1.0000
  C   C690      1.0  0.41507  0.81863  0.99041  1.0000
  H   H1232     1.0  0.39697  0.81294  0.00888  1.0000
  H   H1233     1.0  0.47278  0.56477  0.00075  1.0000
  N   N40       1.0  0.43664  0.79794  0.99533  1.0000
  H   H1234     1.0  0.40520  0.75342  0.02372  1.0000
  H   H1235     1.0  0.53806  0.67807  0.42667  1.0000
  C   C691      1.0  0.37167  0.70279  0.18870  1.0000
  H   H1236     1.0  0.34102  0.90488  0.20041  1.0000
  H   H1237     1.0  0.64962  0.51771  0.09591  1.0000
  H   H1238     1.0  0.61997  0.52572  0.00464  1.0000
  C   C692      1.0  0.40386  0.76042  0.98702  1.0000
  H   H1239     1.0  0.38697  0.77439  0.98330  1.0000
  H   H1240     1.0  0.48397  0.99369  0.00828  1.0000
  C   C693      1.0  0.50501  0.70465  0.44118  1.0000
  H   H1241     1.0  0.54804  0.51336  0.99371  1.0000
  H   H1242     1.0  0.39817  0.51866  0.00050  1.0000
  H   H1243     1.0  0.50846  0.66304  0.43827  1.0000
  H   H1244     1.0  0.49870  0.51809  0.05348  1.0000
  H   H1245     1.0  0.52299  0.94060  0.47201  1.0000
  Fe  Fe72      1.0  0.63412  0.90299  0.47632  1.0000
  H   H1246     1.0  0.52636  0.62352  0.44985  1.0000
  H   H1247     1.0  0.34620  0.64514  0.09456  1.0000
  H   H1248     1.0  0.46499  0.82792  0.98450  1.0000
  H   H1249     1.0  0.46641  0.50511  0.98869  1.0000
  H   H1250     1.0  0.51531  0.72186  0.45419  1.0000
  C   C694      1.0  0.45751  0.52527  0.99099  1.0000
  H   H1251     1.0  0.66868  0.77550  0.46911  1.0000
  H   H1252     1.0  0.35500  0.67388  0.26151  1.0000
  C   C695      1.0  0.35626  0.68125  0.16368  1.0000
  N   N41       1.0  0.35105  0.65713  0.19238  1.0000
  H   H1253     1.0  0.56394  0.99755  0.06030  1.0000
  H   H1254     1.0  0.33764  0.69039  0.15039  1.0000
  H   H1255     1.0  0.33963  0.69418  0.05515  1.0000
  H   H1256     1.0  0.34139  0.77137  0.18998  1.0000
  H   H1257     1.0  0.56203  0.64903  0.47656  1.0000
  H   H1258     1.0  0.53004  0.99116  0.00103  1.0000
  H   H1259     1.0  0.63946  0.79497  0.98815  1.0000
  C   C696      1.0  0.56450  0.96173  0.89661  1.0000
  Fe  Fe73      1.0  0.42635  0.69846  0.84011  1.0000
  S   S146      1.0  0.41696  0.66965  0.89701  1.0000
  S   S147      1.0  0.44881  0.73390  0.86091  1.0000
  Fe  Fe74      1.0  0.40702  0.66372  0.76098  1.0000
  S   S148      1.0  0.39567  0.63241  0.81222  1.0000
  S   S149      1.0  0.39945  0.66342  0.68155  1.0000
  Fe  Fe75      1.0  0.37921  0.66480  0.85869  1.0000
  Fe  Fe76      1.0  0.43419  0.63983  0.84706  1.0000
  S   S150      1.0  0.46136  0.60696  0.87272  1.0000
  S   S151      1.0  0.38740  0.69588  0.80466  1.0000
  S   S152      1.0  0.44656  0.66887  0.79295  1.0000
  Fe  Fe77      1.0  0.47875  0.90078  0.93009  1.0000
  S   S153      1.0  0.44787  0.91669  0.88077  1.0000
  Fe  Fe78      1.0  0.51361  0.88070  0.84894  1.0000
  S   S154      1.0  0.48503  0.89466  0.79386  1.0000
  S   S155      1.0  0.54878  0.85770  0.82074  1.0000
  Fe  Fe79      1.0  0.48126  0.93157  0.83620  1.0000
  S   S156      1.0  0.48416  0.97402  0.80986  1.0000
  Fe  Fe80      1.0  0.45462  0.87857  0.84219  1.0000
  S   S157      1.0  0.42195  0.85287  0.81810  1.0000
  S   S158      1.0  0.51178  0.91829  0.88883  1.0000
  S   S159      1.0  0.48346  0.86212  0.89418  1.0000
  Fe  Fe81      1.0  0.61171  0.61582  0.91824  1.0000
  S   S160      1.0  0.63965  0.60144  0.86191  1.0000
  S   S161      1.0  0.57756  0.64337  0.90218  1.0000
  H   H1260     1.0  0.48372  0.77182  0.95625  1.0000
  H   H1261     1.0  0.60220  0.99209  0.62905  1.0000
  H   H1262     1.0  0.46684  0.60102  0.61743  1.0000
  H   H1263     1.0  0.66739  0.93025  0.77731  1.0000
  C   C697      1.0  0.58663  0.72271  0.50956  1.0000
  H   H1264     1.0  0.56130  0.99221  0.68248  1.0000
  C   C698      1.0  0.48602  0.79059  0.97494  1.0000
  C   C699      1.0  0.57095  0.93596  0.82030  1.0000
  H   H1265     1.0  0.36613  0.83624  0.95592  1.0000
  C   C700      1.0  0.47475  0.99539  0.97328  1.0000
  H   H1266     1.0  0.56696  0.96466  0.48067  1.0000
  C   C701      1.0  0.49144  0.97202  0.71222  1.0000
  H   H1267     1.0  0.50562  0.80763  0.91468  1.0000
  H   H1268     1.0  0.49288  0.95100  0.71584  1.0000
  C   C702      1.0  0.66285  0.88418  0.58836  1.0000
  C   C703      1.0  0.58124  0.85951  0.84043  1.0000
  C   C704      1.0  0.58765  0.87086  0.88326  1.0000
  C   C705      1.0  0.61404  0.87120  0.89737  1.0000
  C   C706      1.0  0.63401  0.86019  0.86881  1.0000
  C   C707      1.0  0.62743  0.84939  0.82573  1.0000
  C   C708      1.0  0.60122  0.84896  0.81173  1.0000
  H   H1269     1.0  0.57232  0.87905  0.90565  1.0000
  H   H1270     1.0  0.61898  0.87971  0.93073  1.0000
  H   H1271     1.0  0.64245  0.84146  0.80292  1.0000
  H   H1272     1.0  0.59640  0.84044  0.77829  1.0000
  H   H1273     1.0  0.39716  0.87909  0.67258  1.0000
  C   C709      1.0  0.44113  0.76576  0.84078  1.0000
  C   C710      1.0  0.46096  0.78394  0.84126  1.0000
  C   C711      1.0  0.45535  0.81034  0.83141  1.0000
  C   C712      1.0  0.42965  0.81907  0.82275  1.0000
  C   C713      1.0  0.40980  0.80077  0.82054  1.0000
  C   C714      1.0  0.41555  0.77407  0.82935  1.0000
  H   H1274     1.0  0.48075  0.77759  0.84976  1.0000
  H   H1275     1.0  0.47100  0.82392  0.83077  1.0000
  H   H1276     1.0  0.38988  0.80736  0.81348  1.0000
  H   H1277     1.0  0.40015  0.76011  0.82905  1.0000
  C   C715      1.0  0.49371  0.61682  0.88157  1.0000
  C   C716      1.0  0.51374  0.59823  0.89183  1.0000
  C   C717      1.0  0.53964  0.60602  0.89842  1.0000
  C   C718      1.0  0.54551  0.63245  0.89483  1.0000
  C   C719      1.0  0.52545  0.65095  0.88504  1.0000
  C   C720      1.0  0.49966  0.64320  0.87848  1.0000
  H   H1278     1.0  0.50933  0.57781  0.89415  1.0000
  H   H1279     1.0  0.55504  0.59165  0.90592  1.0000
  H   H1280     1.0  0.52984  0.67142  0.88235  1.0000
  H   H1281     1.0  0.48437  0.65771  0.87110  1.0000
  C   C721      1.0  0.44400  0.61904  0.56207  1.0000
  C   C722      1.0  0.42358  0.63710  0.55224  1.0000
  C   C723      1.0  0.41030  0.65051  0.58913  1.0000
  C   C724      1.0  0.41732  0.64629  0.63635  1.0000
  C   C725      1.0  0.43801  0.62851  0.64609  1.0000
  C   C726      1.0  0.45115  0.61496  0.60924  1.0000
  H   H1282     1.0  0.41775  0.64048  0.51628  1.0000
  H   H1283     1.0  0.39437  0.66419  0.58103  1.0000
  H   H1284     1.0  0.44368  0.62497  0.68209  1.0000
  H   H1285     1.0  0.64678  0.81712  0.49015  1.0000
  H   H1286     1.0  0.66595  0.76266  0.52625  1.0000
  H   H1287     1.0  0.35198  0.74116  0.88659  1.0000
  H   H1288     1.0  0.61727  0.54099  0.79441  1.0000
  H   H1289     1.0  0.61280  0.90629  0.80914  1.0000
  H   H1290     1.0  0.63600  0.57933  0.76967  1.0000
  H   H1291     1.0  0.49758  0.97142  0.63717  1.0000
  H   H1292     1.0  0.58470  0.68327  0.48626  1.0000
  H   H1293     1.0  0.47366  0.51554  0.90606  1.0000
  H   H1294     1.0  0.66706  0.77680  0.60274  1.0000
  C   C727      1.0  0.62651  0.52234  0.78564  1.0000
  C   C728      1.0  0.46814  0.69023  0.58136  1.0000
  C   C729      1.0  0.63750  0.58859  0.73487  1.0000
  C   C730      1.0  0.66538  0.59890  0.72620  1.0000
  H   H1295     1.0  0.36016  0.68363  0.97771  1.0000
  H   H1296     1.0  0.64586  0.73856  0.86812  1.0000
  H   H1297     1.0  0.60108  0.95667  0.54185  1.0000
  C   C731      1.0  0.53749  0.95986  0.53455  1.0000
  C   C732      1.0  0.48673  0.98752  0.75199  1.0000
  H   H1298     1.0  0.41038  0.51326  0.90964  1.0000
  H   H1299     1.0  0.63124  0.93273  0.71763  1.0000
  S   S162      1.0  0.61211  0.57778  0.95765  1.0000
  H   H1300     1.0  0.64938  0.69178  0.86745  1.0000
  H   H1301     1.0  0.66155  0.89583  0.78532  1.0000
  H   H1302     1.0  0.48390  0.55234  0.82596  1.0000
  H   H1303     1.0  0.62955  0.75967  0.69841  1.0000
  H   H1304     1.0  0.45320  0.68558  0.55479  1.0000
  H   H1305     1.0  0.52951  0.77287  0.86419  1.0000
  H   H1306     1.0  0.55800  0.94467  0.91709  1.0000
  H   H1307     1.0  0.34809  0.88375  0.66338  1.0000
  S   S163      1.0  0.64694  0.52205  0.87640  1.0000
  H   H1308     1.0  0.53628  0.58148  0.48675  1.0000
  H   H1309     1.0  0.33894  0.81227  0.67896  1.0000
  H   H1310     1.0  0.54783  0.94177  0.54710  1.0000
  H   H1311     1.0  0.52872  0.97039  0.56509  1.0000
  H   H1312     1.0  0.62541  0.99574  0.58153  1.0000
  C   C733      1.0  0.44858  0.53694  0.85747  1.0000
  C   C734      1.0  0.64577  0.80036  0.51467  1.0000
  H   H1313     1.0  0.56372  0.98839  0.78981  1.0000
  H   H1314     1.0  0.61837  0.79518  0.80990  1.0000
  H   H1315     1.0  0.38795  0.86339  0.95864  1.0000
  H   H1316     1.0  0.38809  0.59648  0.96960  1.0000
  H   H1317     1.0  0.54727  0.97221  0.88094  1.0000
  H   H1318     1.0  0.37163  0.59303  0.91432  1.0000
  C   C735      1.0  0.66003  0.91248  0.76027  1.0000
  H   H1319     1.0  0.43497  0.52129  0.84884  1.0000
  H   H1320     1.0  0.50309  0.96858  0.49152  1.0000
  H   H1321     1.0  0.60401  0.72640  0.48719  1.0000
  C   C736      1.0  0.63072  0.77252  0.72959  1.0000
  C   C737      1.0  0.62936  0.95990  0.61936  1.0000
  H   H1322     1.0  0.45722  0.81045  0.93282  1.0000
  H   H1323     1.0  0.47332  0.55025  0.91153  1.0000
  H   H1324     1.0  0.34679  0.88884  0.72520  1.0000
  H   H1325     1.0  0.34092  0.73808  0.80244  1.0000
  H   H1326     1.0  0.51160  0.62222  0.50693  1.0000
  H   H1327     1.0  0.42313  0.83601  0.92133  1.0000
  H   H1328     1.0  0.62029  0.62554  0.76041  1.0000
  H   H1329     1.0  0.52723  0.80027  0.82443  1.0000
  H   H1330     1.0  0.50231  0.93819  0.52315  1.0000
  H   H1331     1.0  0.57428  0.75591  0.89027  1.0000
  S   S164      1.0  0.63680  0.89964  0.55618  1.0000
  C   C738      1.0  0.64706  0.80597  0.95768  1.0000
  H   H1332     1.0  0.43960  0.57395  0.94595  1.0000
  H   H1333     1.0  0.61121  0.71331  0.82201  1.0000
  C   C739      1.0  0.49414  0.98371  0.66751  1.0000
  H   H1334     1.0  0.36620  0.84149  0.73411  1.0000
  C   C740      1.0  0.62491  0.77473  0.81761  1.0000
  C   C741      1.0  0.51517  0.95134  0.50318  1.0000
  H   H1335     1.0  0.54929  0.59687  0.53792  1.0000
  H   H1336     1.0  0.65667  0.77126  0.91873  1.0000
  S   S165      1.0  0.66689  0.85998  0.88775  1.0000
  H   H1337     1.0  0.65137  0.77802  0.73403  1.0000
  C   C742      1.0  0.34462  0.87376  0.69742  1.0000
  C   C743      1.0  0.61215  0.98208  0.59906  1.0000
  H   H1338     1.0  0.36890  0.84094  0.67064  1.0000
  H   H1339     1.0  0.62373  0.93882  0.80718  1.0000
  H   H1340     1.0  0.45553  0.96907  0.92559  1.0000
  C   C744      1.0  0.38341  0.84524  0.93949  1.0000
  H   H1341     1.0  0.53542  0.71404  0.52118  1.0000
  H   H1342     1.0  0.59238  0.71206  0.87531  1.0000
  S   S166      1.0  0.64264  0.63352  0.96271  1.0000
  H   H1343     1.0  0.40164  0.55663  0.89185  1.0000
  H   H1344     1.0  0.59707  0.60284  0.73899  1.0000
  H   H1345     1.0  0.47025  0.67365  0.60641  1.0000
  H   H1346     1.0  0.38514  0.54976  0.94547  1.0000
  H   H1347     1.0  0.57436  0.74100  0.51157  1.0000
  H   H1348     1.0  0.53674  0.76836  0.80252  1.0000
  H   H1349     1.0  0.57830  0.74752  0.83062  1.0000
  C   C745      1.0  0.50931  0.80392  0.95250  1.0000
  C   C746      1.0  0.42685  0.55747  0.95527  1.0000
  H   H1350     1.0  0.64648  0.77565  0.82233  1.0000
  H   H1351     1.0  0.59988  0.94112  0.87587  1.0000
  S   S167      1.0  0.46096  0.60077  0.51722  1.0000
  H   H1352     1.0  0.41414  0.72142  0.96048  1.0000
  H   H1353     1.0  0.62423  0.73809  0.91704  1.0000
  C   C747      1.0  0.65835  0.87668  0.63513  1.0000
  H   H1354     1.0  0.63315  0.73964  0.77594  1.0000
  C   C748      1.0  0.62123  0.75810  0.77311  1.0000
  C   C749      1.0  0.54666  0.59880  0.49942  1.0000
  C   C750      1.0  0.53043  0.62358  0.48799  1.0000
  C   C751      1.0  0.36777  0.85363  0.70209  1.0000
  H   H1355     1.0  0.51001  0.99067  0.93039  1.0000
  H   H1356     1.0  0.61728  0.94409  0.63376  1.0000
  H   H1357     1.0  0.60724  0.98902  0.48409  1.0000
  C   C752      1.0  0.55669  0.97726  0.50721  1.0000
  H   H1358     1.0  0.46105  0.70778  0.60109  1.0000
  H   H1359     1.0  0.41014  0.85259  0.70813  1.0000
  C   C753      1.0  0.59136  0.97158  0.56529  1.0000
  H   H1360     1.0  0.63894  0.87936  0.64998  1.0000
  H   H1361     1.0  0.54441  0.96941  0.75206  1.0000
  H   H1362     1.0  0.48095  0.51730  0.81982  1.0000
  H   H1363     1.0  0.39419  0.88037  0.73587  1.0000
  H   H1364     1.0  0.57500  0.79622  0.80888  1.0000
  C   C754      1.0  0.62852  0.69003  0.87707  1.0000
  N   N42       1.0  0.52921  0.67390  0.50039  1.0000
  C   C755      1.0  0.54644  0.69509  0.51824  1.0000
  C   C756      1.0  0.50553  0.67080  0.53206  1.0000
  C   C757      1.0  0.40702  0.82613  0.93968  1.0000
  C   C758      1.0  0.57120  0.70063  0.48832  1.0000
  C   C759      1.0  0.64534  0.78981  0.91288  1.0000
  C   C760      1.0  0.53842  0.78186  0.83271  1.0000
  H   H1365     1.0  0.60049  0.75357  0.76716  1.0000
  C   C761      1.0  0.49431  0.69554  0.55755  1.0000
  H   H1366     1.0  0.61841  0.79048  0.72338  1.0000
  H   H1367     1.0  0.57796  0.96066  0.58835  1.0000
  C   C762      1.0  0.47005  0.53642  0.81988  1.0000
  H   H1368     1.0  0.40490  0.60339  0.91516  1.0000
  H   H1369     1.0  0.55295  0.69025  0.55459  1.0000
  H   H1370     1.0  0.63235  0.57395  0.70809  1.0000
  H   H1371     1.0  0.48921  0.66204  0.51224  1.0000
  H   H1372     1.0  0.51005  0.65659  0.56087  1.0000
  C   C763      1.0  0.56338  0.97900  0.75483  1.0000
  H   H1373     1.0  0.61688  0.62040  0.69788  1.0000
  H   H1374     1.0  0.64507  0.80800  0.55101  1.0000
  C   C764      1.0  0.40038  0.56187  0.92934  1.0000
  H   H1375     1.0  0.61708  0.77122  0.53136  1.0000
  Fe  Fe82      1.0  0.64247  0.56424  0.90412  1.0000
  C   C765      1.0  0.54520  0.64850  0.50140  1.0000
  H   H1376     1.0  0.63570  0.82474  0.95413  1.0000
  H   H1377     1.0  0.62691  0.68778  0.91571  1.0000
  C   C766      1.0  0.63170  0.91694  0.74429  1.0000
  C   C767      1.0  0.56708  0.78782  0.84165  1.0000
  H   H1378     1.0  0.49114  0.71224  0.53336  1.0000
  H   H1379     1.0  0.42954  0.77517  0.93330  1.0000
  C   C768      1.0  0.61676  0.61078  0.73282  1.0000
  H   H1380     1.0  0.62570  0.89850  0.72769  1.0000
  H   H1381     1.0  0.50810  0.70147  0.58528  1.0000
  H   H1382     1.0  0.55373  0.64534  0.53696  1.0000
  C   C769      1.0  0.46048  0.53335  0.90697  1.0000
  C   C770      1.0  0.61994  0.78712  0.50552  1.0000
  H   H1383     1.0  0.40168  0.80869  0.91940  1.0000
  H   H1384     1.0  0.56616  0.59911  0.48213  1.0000
  H   H1385     1.0  0.62118  0.67217  0.86029  1.0000
  C   C771      1.0  0.61244  0.71398  0.86068  1.0000
  N   N43       1.0  0.58598  0.93378  0.77462  1.0000
  H   H1386     1.0  0.56833  0.91619  0.83563  1.0000
  C   C772      1.0  0.57386  0.91348  0.74398  1.0000
  C   C773      1.0  0.61345  0.92398  0.78637  1.0000
  C   C774      1.0  0.58730  0.95959  0.74895  1.0000
  H   H1387     1.0  0.48239  0.95412  0.95838  1.0000
  H   H1388     1.0  0.51291  0.82276  0.97022  1.0000
  H   H1389     1.0  0.34445  0.65645  0.72833  1.0000
  C   C775      1.0  0.54531  0.91907  0.72817  1.0000
  C   C776      1.0  0.53484  0.89587  0.70128  1.0000
  H   H1390     1.0  0.60344  0.80169  0.50900  1.0000
  H   H1391     1.0  0.43826  0.55623  0.85465  1.0000
  H   H1392     1.0  0.55065  0.94363  0.81486  1.0000
  H   H1393     1.0  0.58516  0.91084  0.71082  1.0000
  H   H1394     1.0  0.57480  0.89415  0.76187  1.0000
  C   C777      1.0  0.61635  0.78533  0.89974  1.0000
  H   H1395     1.0  0.56722  0.80284  0.86961  1.0000
  H   H1396     1.0  0.60469  0.97049  0.76020  1.0000
  H   H1397     1.0  0.59051  0.95609  0.71077  1.0000
  H   H1398     1.0  0.59267  0.97039  0.84311  1.0000
  C   C778      1.0  0.39073  0.59043  0.93246  1.0000
  H   H1399     1.0  0.59354  0.71728  0.54524  1.0000
  H   H1400     1.0  0.60555  0.77994  0.93226  1.0000
  H   H1401     1.0  0.53204  0.92290  0.75836  1.0000
  H   H1402     1.0  0.54443  0.93601  0.70387  1.0000
  H   H1403     1.0  0.54702  0.89157  0.66967  1.0000
  H   H1404     1.0  0.53466  0.87822  0.72398  1.0000
  H   H1405     1.0  0.51444  0.90049  0.68991  1.0000
  C   C779      1.0  0.62264  0.51120  0.74102  1.0000
  H   H1406     1.0  0.60825  0.80488  0.88914  1.0000
  C   C780      1.0  0.39382  0.86737  0.70474  1.0000
  N   N44       1.0  0.61209  0.76528  0.86195  1.0000
  C   C781      1.0  0.58288  0.76277  0.85657  1.0000
  C   C782      1.0  0.62469  0.73957  0.87801  1.0000
  H   H1407     1.0  0.46108  0.53954  0.78483  1.0000
  H   H1408     1.0  0.61089  0.52180  0.71540  1.0000
  H   H1409     1.0  0.37848  0.85057  0.90272  1.0000
  C   C783      1.0  0.39828  0.73666  0.95673  1.0000
  C   C784      1.0  0.46553  0.96835  0.96008  1.0000
  C   C785      1.0  0.58391  0.95279  0.85852  1.0000
  C   C786      1.0  0.42372  0.50919  0.93947  1.0000
  H   H1410     1.0  0.65512  0.80072  0.88440  1.0000
  C   C787      1.0  0.64168  0.50900  0.81925  1.0000
  H   H1411     1.0  0.57419  0.97516  0.92105  1.0000
  H   H1412     1.0  0.64256  0.95163  0.59170  1.0000
  H   H1413     1.0  0.39682  0.74233  0.91919  1.0000
  N   N45       1.0  0.44155  0.53163  0.94766  1.0000
  C   C788      1.0  0.42986  0.77265  0.97198  1.0000
  H   H1414     1.0  0.54424  0.99145  0.48695  1.0000
  H   H1415     1.0  0.37948  0.72823  0.96772  1.0000
  H   H1416     1.0  0.52718  0.79109  0.95561  1.0000
  H   H1417     1.0  0.55218  0.79123  0.48764  1.0000
  H   H1418     1.0  0.64172  0.96746  0.64784  1.0000
  H   H1419     1.0  0.35314  0.77235  0.85743  1.0000
  C   C789      1.0  0.33995  0.75681  0.86922  1.0000
  C   C790      1.0  0.46066  0.80807  0.97104  1.0000
  S   S168      1.0  0.33852  0.66039  0.89207  1.0000
  N   N46       1.0  0.57626  0.99162  0.53625  1.0000
  H   H1420     1.0  0.49617  0.54131  0.97637  1.0000
  H   H1421     1.0  0.66783  0.81048  0.96438  1.0000
  H   H1422     1.0  0.66549  0.60719  0.69000  1.0000
  C   C791      1.0  0.56357  0.00062  0.71801  1.0000
  H   H1423     1.0  0.55420  0.00140  0.59925  1.0000
  H   H1424     1.0  0.44542  0.75736  0.97827  1.0000
  H   H1425     1.0  0.66894  0.54228  0.72679  1.0000
  C   C792      1.0  0.66945  0.78106  0.50670  1.0000
  H   H1426     1.0  0.66746  0.61575  0.75035  1.0000
  Fe  Fe83      1.0  0.97291  0.44078  0.38774  1.0000
  H   H1427     1.0  0.97629  0.22508  0.01179  1.0000
  S   S169      1.0  0.97621  0.48192  0.35679  1.0000
  Fe  Fe84      1.0  0.94801  0.38745  0.39143  1.0000
  S   S170      1.0  0.97241  0.37358  0.45228  1.0000
  S   S171      1.0  0.91947  0.36179  0.35411  1.0000
  H   H1428     1.0  0.77500  0.26937  0.27323  1.0000
  H   H1429     1.0  0.78362  0.10205  0.38474  1.0000
  S   S172      1.0  0.93678  0.42631  0.42411  1.0000
  C   C793      1.0  0.00287  0.08701  0.16837  1.0000
  S   S173      1.0  0.94792  0.09738  0.05648  1.0000
  Fe  Fe85      1.0  0.91201  0.21000  0.38052  1.0000
  S   S174      1.0  0.90606  0.17555  0.42731  1.0000
  S   S175      1.0  0.92380  0.24441  0.42357  1.0000
  Fe  Fe86      1.0  0.90368  0.17764  0.29057  1.0000
  S   S176      1.0  0.89584  0.14133  0.33246  1.0000
  S   S177      1.0  0.90888  0.18163  0.21069  1.0000
  Fe  Fe87      1.0  0.87176  0.16779  0.38171  1.0000
  S   S178      1.0  0.83035  0.16305  0.41219  1.0000
  Fe  Fe88      1.0  0.93069  0.15316  0.37479  1.0000
  S   S179      1.0  0.96484  0.12710  0.39855  1.0000
  S   S180      1.0  0.87685  0.20342  0.33605  1.0000
  S   S181      1.0  0.93910  0.18835  0.33165  1.0000
  Fe  Fe89      1.0  0.72051  0.33942  0.12080  1.0000
  S   S182      1.0  0.70785  0.31030  0.17536  1.0000
  S   S183      1.0  0.76312  0.33677  0.09420  1.0000
  H   H1430     1.0  0.95021  0.02399  0.04738  1.0000
  Fe  Fe90      1.0  0.68955  0.34469  0.21480  1.0000
  S   S184      1.0  0.69556  0.34471  0.29463  1.0000
  C   C794      1.0  0.99774  0.05748  0.17417  1.0000
  H   H1431     1.0  0.69261  0.14880  0.01511  1.0000
  S   S185      1.0  0.70485  0.37399  0.16301  1.0000
  S   S186      1.0  0.68375  0.33618  0.07884  1.0000
  S   S187      1.0  0.99912  0.43070  0.44935  1.0000
  H   H1432     1.0  0.90285  0.24865  0.09499  1.0000
  H   H1433     1.0  0.69875  0.20458  0.18049  1.0000
  H   H1434     1.0  0.92855  0.08538  0.29155  1.0000
  C   C795      1.0  0.92235  0.21708  0.02050  1.0000
  H   H1435     1.0  0.73999  0.33600  0.99966  1.0000
  C   C796      1.0  0.86757  0.24330  0.13397  1.0000
  H   H1436     1.0  0.70934  0.13148  0.10836  1.0000
  C   C797      1.0  0.72507  0.13199  0.08141  1.0000
  H   H1437     1.0  0.84603  0.21909  0.46707  1.0000
  H   H1438     1.0  0.87574  0.22663  0.15495  1.0000
  H   H1439     1.0  0.99790  0.18329  0.44295  1.0000
  C   C798      1.0  0.99630  0.00251  0.00831  1.0000
  H   H1440     1.0  0.72653  0.25961  0.05983  1.0000
  H   H1441     1.0  0.85777  0.21714  0.05290  1.0000
  C   C799      1.0  0.98878  0.20149  0.45783  1.0000
  H   H1442     1.0  0.99231  0.02301  0.13156  1.0000
  N   N47       1.0  0.89334  0.21911  0.01111  1.0000
  C   C800      1.0  0.82143  0.24206  0.39151  1.0000
  H   H1443     1.0  0.95797  0.11778  0.26034  1.0000
  C   C801      1.0  0.00202  0.17277  0.15804  1.0000
  C   C802      1.0  0.99442  0.22590  0.38135  1.0000
  S   S188      1.0  0.98201  0.40285  0.35067  1.0000
  H   H1444     1.0  0.96007  0.47150  0.18674  1.0000
  H   H1445     1.0  0.92694  0.20048  0.04438  1.0000
  C   C803      1.0  0.88434  0.19571  0.98420  1.0000
  H   H1446     1.0  0.92886  0.23471  0.03917  1.0000
  H   H1447     1.0  0.83812  0.25064  0.37243  1.0000
  H   H1448     1.0  0.96196  0.04626  0.00329  1.0000
  C   C804      1.0  0.81894  0.16576  0.47137  1.0000
  C   C805      1.0  0.99624  0.00887  0.43737  1.0000
  C   C806      1.0  0.93711  0.12115  0.09888  1.0000
  C   C807      1.0  0.93861  0.14804  0.09096  1.0000
  C   C808      1.0  0.93002  0.16608  0.12574  1.0000
  C   C809      1.0  0.92025  0.15766  0.16920  1.0000
  C   C810      1.0  0.91913  0.13077  0.17748  1.0000
  C   C811      1.0  0.92741  0.11270  0.14248  1.0000
  H   H1449     1.0  0.94671  0.15485  0.05827  1.0000
  H   H1450     1.0  0.93148  0.18679  0.11966  1.0000
  H   H1451     1.0  0.91138  0.12388  0.21047  1.0000
  H   H1452     1.0  0.92604  0.09198  0.14908  1.0000
  C   C812      1.0  0.80404  0.33758  0.03040  1.0000
  C   C813      1.0  0.77664  0.33707  0.03617  1.0000
  H   H1453     1.0  0.91460  0.16521  0.99842  1.0000
  H   H1454     1.0  0.81636  0.33805  0.06107  1.0000
  H   H1455     1.0  0.86888  0.28820  0.45251  1.0000
  C   C814      1.0  0.91955  0.32912  0.37348  1.0000
  C   C815      1.0  0.92886  0.32251  0.41800  1.0000
  C   C816      1.0  0.93015  0.29640  0.43250  1.0000
  C   C817      1.0  0.92165  0.27667  0.40297  1.0000
  C   C818      1.0  0.91184  0.28310  0.35859  1.0000
  C   C819      1.0  0.91074  0.30939  0.34390  1.0000
  H   H1456     1.0  0.93460  0.33754  0.44174  1.0000
  H   H1457     1.0  0.68620  0.29372  0.47474  1.0000
  H   H1458     1.0  0.90525  0.26790  0.33565  1.0000
  H   H1459     1.0  0.90347  0.31442  0.30939  1.0000
  H   H1460     1.0  0.84634  0.24062  0.12832  1.0000
  C   C820      1.0  0.96768  0.47530  0.26086  1.0000
  H   H1461     1.0  0.96304  0.45533  0.26895  1.0000
  H   H1462     1.0  0.96701  0.48193  0.98236  1.0000
  C   C821      1.0  0.69906  0.16621  0.03470  1.0000
  H   H1463     1.0  0.76144  0.06954  0.43605  1.0000
  Fe  Fe91      1.0  0.67001  0.30964  0.13599  1.0000
  H   H1464     1.0  0.95539  0.09121  0.21953  1.0000
  C   C822      1.0  0.67979  0.36384  0.33956  1.0000
  H   H1465     1.0  0.97063  0.19033  0.01202  1.0000
  C   C823      1.0  0.68601  0.35857  0.38680  1.0000
  C   C824      1.0  0.98976  0.03853  0.44166  1.0000
  C   C825      1.0  0.71218  0.08297  0.47635  1.0000
  H   H1466     1.0  0.88737  0.12736  0.99272  1.0000
  H   H1467     1.0  0.99898  0.14161  0.23746  1.0000
  H   H1468     1.0  0.97075  0.32121  0.34030  1.0000
  C   C826      1.0  0.82124  0.25047  0.44290  1.0000
  H   H1469     1.0  0.68465  0.12683  0.45229  1.0000
  H   H1470     1.0  0.99241  0.07403  0.40062  1.0000
  H   H1471     1.0  0.74405  0.12743  0.09885  1.0000
  H   H1472     1.0  0.98076  0.05309  0.10471  1.0000
  C   C827      1.0  0.99766  0.05293  0.39699  1.0000
  H   H1473     1.0  0.82301  0.22043  0.38874  1.0000
  H   H1474     1.0  0.87376  0.26271  0.06845  1.0000
  C   C828      1.0  0.84654  0.24078  0.46786  1.0000
  C   C829      1.0  0.81571  0.33776  0.98530  1.0000
  C   C830      1.0  0.70369  0.24003  0.00654  1.0000
  H   H1475     1.0  0.98977  0.32531  0.39309  1.0000
  C   C831      1.0  0.96596  0.48455  0.21422  1.0000
  H   H1476     1.0  0.98083  0.15709  0.31762  1.0000
  C   C832      1.0  0.76105  0.33650  0.99599  1.0000
  C   C833      1.0  0.70285  0.21358  0.03265  1.0000
  H   H1477     1.0  0.72316  0.06395  0.47252  1.0000
  H   H1478     1.0  0.68779  0.21524  0.06087  1.0000
  H   H1479     1.0  0.84572  0.32937  0.47746  1.0000
  H   H1480     1.0  0.72168  0.11668  0.05478  1.0000
  H   H1481     1.0  0.96421  0.33068  0.99436  1.0000
  H   H1482     1.0  0.68493  0.16896  0.06422  1.0000
  H   H1483     1.0  0.72180  0.21143  0.05144  1.0000
  H   H1484     1.0  0.68922  0.25142  0.16136  1.0000
  C   C834      1.0  0.88759  0.24339  0.98245  1.0000
  H   H1485     1.0  0.67146  0.17312  0.45376  1.0000
  H   H1486     1.0  0.88592  0.20359  0.08046  1.0000
  H   H1487     1.0  0.95754  0.08597  0.32710  1.0000
  H   H1488     1.0  0.97985  0.24514  0.21174  1.0000
  H   H1489     1.0  0.77898  0.17360  0.45055  1.0000
  H   H1490     1.0  0.98540  0.09529  0.14951  1.0000
  H   H1491     1.0  0.96859  0.04283  0.44721  1.0000
  C   C835      1.0  0.72567  0.15895  0.05841  1.0000
  N   N48       1.0  0.78182  0.34975  0.25883  1.0000
  C   C836      1.0  0.76621  0.36877  0.28923  1.0000
  C   C837      1.0  0.78113  0.35936  0.20870  1.0000
  C   C838      1.0  0.76808  0.32405  0.26014  1.0000
  C   C839      1.0  0.80973  0.34521  0.27531  1.0000
  C   C840      1.0  0.82314  0.36845  0.29932  1.0000
  C   C841      1.0  0.76091  0.35951  0.34022  1.0000
  C   C842      1.0  0.77873  0.30261  0.22592  1.0000
  C   C843      1.0  0.79305  0.38620  0.19869  1.0000
  C   C844      1.0  0.78834  0.39463  0.14788  1.0000
  C   C845      1.0  0.85229  0.36232  0.30713  1.0000
  C   C846      1.0  0.75078  0.38210  0.37102  1.0000
  C   C847      1.0  0.76802  0.27592  0.23817  1.0000
  H   H1492     1.0  0.74669  0.37324  0.27311  1.0000
  H   H1493     1.0  0.77568  0.38787  0.29119  1.0000
  H   H1494     1.0  0.79203  0.34547  0.18517  1.0000
  H   H1495     1.0  0.76054  0.36009  0.19586  1.0000
  H   H1496     1.0  0.74681  0.32723  0.25254  1.0000
  H   H1497     1.0  0.76903  0.31544  0.29596  1.0000
  H   H1498     1.0  0.81099  0.32885  0.30112  1.0000
  H   H1499     1.0  0.82243  0.33859  0.24543  1.0000
  H   H1500     1.0  0.81426  0.37255  0.33420  1.0000
  H   H1501     1.0  0.82131  0.38669  0.27868  1.0000
  H   H1502     1.0  0.74572  0.34453  0.34047  1.0000
  H   H1503     1.0  0.77873  0.35061  0.35648  1.0000
  H   H1504     1.0  0.80042  0.30089  0.22671  1.0000
  H   H1505     1.0  0.77249  0.30730  0.18951  1.0000
  H   H1506     1.0  0.78441  0.40179  0.22138  1.0000
  H   H1507     1.0  0.81457  0.38485  0.20351  1.0000
  H   H1508     1.0  0.76703  0.39605  0.14025  1.0000
  H   H1509     1.0  0.79672  0.41406  0.14167  1.0000
  H   H1510     1.0  0.79793  0.38043  0.12328  1.0000
  H   H1511     1.0  0.86266  0.35914  0.27318  1.0000
  H   H1512     1.0  0.86130  0.37897  0.32516  1.0000
  H   H1513     1.0  0.85520  0.34466  0.32947  1.0000
  H   H1514     1.0  0.76581  0.39715  0.37431  1.0000
  H   H1515     1.0  0.73265  0.39120  0.35589  1.0000
  H   H1516     1.0  0.74604  0.37471  0.40660  1.0000
  H   H1517     1.0  0.74626  0.27678  0.23812  1.0000
  H   H1518     1.0  0.77490  0.26130  0.21174  1.0000
  H   H1519     1.0  0.93758  0.29153  0.46700  1.0000
  H   H1520     1.0  0.72987  0.17327  0.08635  1.0000
  C   C848      1.0  0.69869  0.14059  0.46707  1.0000
  C   C849      1.0  0.96333  0.09685  0.25395  1.0000
  H   H1521     1.0  0.93273  0.02861  0.99311  1.0000
  H   H1522     1.0  0.80635  0.07868  0.41086  1.0000
  H   H1523     1.0  0.88037  0.33346  0.47069  1.0000
  H   H1524     1.0  0.94157  0.48438  0.05949  1.0000
  H   H1525     1.0  0.97821  0.13146  0.19216  1.0000
  C   C850      1.0  0.94998  0.08092  0.29196  1.0000
  C   C851      1.0  0.88202  0.24530  0.08707  1.0000
  H   H1526     1.0  0.95335  0.05967  0.28569  1.0000
  H   H1527     1.0  0.84645  0.25102  0.00500  1.0000
  C   C852      1.0  0.89327  0.16858  0.00396  1.0000
  H   H1528     1.0  0.70642  0.08855  0.44000  1.0000
  H   H1529     1.0  0.86991  0.26151  0.15438  1.0000
  C   C853      1.0  0.67497  0.23692  0.15367  1.0000
  H   H1530     1.0  0.74221  0.11459  0.42803  1.0000
  H   H1531     1.0  0.74225  0.15844  0.03320  1.0000
  H   H1532     1.0  0.00051  0.10227  0.28726  1.0000
  H   H1533     1.0  0.96725  0.20129  0.45248  1.0000
  H   H1534     1.0  0.80401  0.24166  0.45970  1.0000
  N   N49       1.0  0.69859  0.18985  0.00277  1.0000
  C   C854      1.0  0.93011  0.50123  0.04461  1.0000
  C   C855      1.0  0.87907  0.22009  0.05766  1.0000
  C   C856      1.0  0.68035  0.21043  0.16435  1.0000
  C   C857      1.0  0.99656  0.04396  0.12651  1.0000
  H   H1535     1.0  0.68521  0.24427  0.98736  1.0000
  C   C858      1.0  0.79234  0.09521  0.41838  1.0000
  H   H1536     1.0  0.88905  0.16690  0.04196  1.0000
  H   H1537     1.0  0.00024  0.33941  0.33855  1.0000
  H   H1538     1.0  0.97416  0.27410  0.36734  1.0000
  H   H1539     1.0  0.98252  0.17060  0.14204  1.0000
  C   C859      1.0  0.96882  0.20860  0.99108  1.0000
  C   C860      1.0  0.99589  0.13481  0.37589  1.0000
  H   H1540     1.0  0.86258  0.19597  0.98268  1.0000
  C   C861      1.0  0.99349  0.09256  0.25493  1.0000
  H   H1541     1.0  0.97279  0.22744  0.37838  1.0000
  C   C862      1.0  0.70781  0.26253  0.04058  1.0000
  H   H1542     1.0  0.67201  0.49192  0.07890  1.0000
  H   H1543     1.0  0.98711  0.04542  0.36613  1.0000
  H   H1544     1.0  0.86366  0.24550  0.44539  1.0000
  H   H1545     1.0  0.99776  0.07148  0.26095  1.0000
  C   C863      1.0  0.97475  0.49209  0.29695  1.0000
  C   C864      1.0  0.97207  0.24929  0.28676  1.0000
  H   H1546     1.0  0.98867  0.00222  0.40290  1.0000
  C   C865      1.0  0.96611  0.23784  0.23868  1.0000
  H   H1547     1.0  0.80294  0.24886  0.37447  1.0000
  H   H1548     1.0  0.96882  0.27081  0.28459  1.0000
  C   C866      1.0  0.67473  0.37371  0.42353  1.0000
  H   H1549     1.0  0.81891  0.27204  0.44340  1.0000
  H   H1550     1.0  0.99979  0.18418  0.19100  1.0000
  C   C867      1.0  0.75089  0.10893  0.46243  1.0000
  C   C868      1.0  0.00021  0.22558  0.43464  1.0000
  H   H1551     1.0  0.71200  0.14680  0.43859  1.0000
  H   H1552     1.0  0.99105  0.24304  0.45189  1.0000
  C   C869      1.0  0.99593  0.27336  0.36906  1.0000
  H   H1553     1.0  0.96759  0.21614  0.23984  1.0000
  H   H1554     1.0  0.91241  0.49410  0.02694  1.0000
  H   H1555     1.0  0.69990  0.34285  0.39503  1.0000
  H   H1556     1.0  0.94579  0.24365  0.22840  1.0000
  H   H1557     1.0  0.95755  0.24182  0.31195  1.0000
  C   C870      1.0  0.99894  0.13046  0.20416  1.0000
  H   H1558     1.0  0.97863  0.05475  0.19188  1.0000
  C   C871      1.0  0.99807  0.15050  0.33603  1.0000
  H   H1559     1.0  0.70848  0.28126  0.02097  1.0000
  H   H1560     1.0  0.80340  0.11131  0.43404  1.0000
  C   C872      1.0  0.99083  0.32229  0.35457  1.0000
  C   C873      1.0  0.95250  0.02732  0.00910  1.0000
  C   C874      1.0  0.77111  0.08634  0.45227  1.0000
  H   H1561     1.0  0.89629  0.26074  0.99899  1.0000
  C   C875      1.0  0.96868  0.00501  0.98644  1.0000
  H   H1562     1.0  0.69151  0.26409  0.06624  1.0000
  C   C876      1.0  0.00069  0.24245  0.30192  1.0000
  H   H1563     1.0  0.68011  0.36977  0.45952  1.0000
  H   H1564     1.0  0.00036  0.27649  0.40670  1.0000
  H   H1565     1.0  0.68240  0.03831  0.47492  1.0000
  H   H1566     1.0  0.85808  0.14772  0.98676  1.0000
  H   H1567     1.0  0.99998  0.20627  0.36697  1.0000
  H   H1568     1.0  0.76178  0.12628  0.47354  1.0000
  H   H1569     1.0  0.00102  0.04688  0.47085  1.0000
  H   H1570     1.0  0.72050  0.23997  0.98183  1.0000
  H   H1571     1.0  0.73908  0.19326  0.98088  1.0000
  H   H1572     1.0  0.83675  0.33847  0.98167  1.0000
  S   S189      1.0  0.95617  0.41888  0.56112  1.0000
  Fe  Fe92      1.0  0.88944  0.34134  0.77051  1.0000
  S   S190      1.0  0.87331  0.37183  0.82089  1.0000
  S   S191      1.0  0.89004  0.34248  0.69032  1.0000
  Fe  Fe93      1.0  0.90684  0.30455  0.85046  1.0000
  S   S192      1.0  0.89268  0.33235  0.90669  1.0000
  S   S193      1.0  0.93326  0.26972  0.86856  1.0000
  Fe  Fe94      1.0  0.85669  0.33825  0.86226  1.0000
  S   S194      1.0  0.81369  0.33766  0.88709  1.0000
  Fe  Fe95      1.0  0.91046  0.36332  0.86153  1.0000
  S   S195      1.0  0.93714  0.39281  0.89423  1.0000
  S   S196      1.0  0.87002  0.30820  0.80824  1.0000
  S   S197      1.0  0.92709  0.33504  0.80883  1.0000
  Fe  Fe96      1.0  0.93969  0.12540  0.88388  1.0000
  S   S198      1.0  0.96213  0.14142  0.94395  1.0000
  S   S199      1.0  0.90728  0.15043  0.85102  1.0000
  Fe  Fe97      1.0  0.96974  0.07273  0.88387  1.0000
  H   H1573     1.0  0.71835  0.12425  0.91208  1.0000
  S   S200      1.0  0.97615  0.03094  0.85433  1.0000
  C   C877      1.0  0.83557  0.16206  0.50983  1.0000
  C   C878      1.0  0.72033  0.18616  0.96674  1.0000
  S   S201      1.0  0.93245  0.08712  0.92004  1.0000
  H   H1574     1.0  0.69598  0.17979  0.49699  1.0000
  H   H1575     1.0  0.77784  0.22322  0.56502  1.0000
  H   H1576     1.0  0.75792  0.08924  0.63417  1.0000
  H   H1577     1.0  0.83099  0.35350  0.69642  1.0000
  H   H1578     1.0  0.71910  0.26001  0.65255  1.0000
  H   H1579     1.0  0.75920  0.11095  0.77529  1.0000
  Fe  Fe98      1.0  0.74419  0.16945  0.65100  1.0000
  S   S202      1.0  0.73059  0.19530  0.71146  1.0000
  S   S203      1.0  0.78670  0.16895  0.62366  1.0000
  C   C879      1.0  0.90937  0.20384  0.55410  1.0000
  C   C880      1.0  0.69790  0.12669  0.90306  1.0000
  Fe  Fe99      1.0  0.69334  0.20066  0.67016  1.0000
  H   H1580     1.0  0.67031  0.17361  0.95625  1.0000
  Fe  Fe100     1.0  0.71179  0.15966  0.74251  1.0000
  H   H1581     1.0  0.88202  0.24994  0.56757  1.0000
  S   S204      1.0  0.70796  0.17716  0.60805  1.0000
  S   S205      1.0  0.72862  0.13351  0.68562  1.0000
  H   H1582     1.0  0.94942  0.33599  0.93779  1.0000
  C   C881      1.0  0.70429  0.27555  0.65527  1.0000
  H   H1583     1.0  0.96703  0.01064  0.56859  1.0000
  H   H1584     1.0  0.97502  0.29331  0.94403  1.0000
  H   H1585     1.0  0.73197  0.43432  0.71034  1.0000
  H   H1586     1.0  0.99026  0.26201  0.88431  1.0000
  H   H1587     1.0  0.78447  0.07658  0.59757  1.0000
  C   C882      1.0  0.71712  0.41900  0.70917  1.0000
  C   C883      1.0  0.83020  0.23902  0.55027  1.0000
  H   H1588     1.0  0.96969  0.31259  0.86797  1.0000
  C   C884      1.0  0.78443  0.23986  0.58629  1.0000
  C   C885      1.0  0.76163  0.10886  0.56655  1.0000
  C   C886      1.0  0.71453  0.12817  0.50814  1.0000
  H   H1589     1.0  0.83860  0.23607  0.58599  1.0000
  H   H1590     1.0  0.92369  0.21065  0.52764  1.0000
  H   H1591     1.0  0.96232  0.31558  0.58539  1.0000
  C   C887      1.0  0.86523  0.32371  0.49193  1.0000
  H   H1592     1.0  0.71878  0.32320  0.50392  1.0000
  C   C888      1.0  0.79845  0.16773  0.56455  1.0000
  C   C889      1.0  0.77273  0.33647  0.95089  1.0000
  H   H1593     1.0  0.82995  0.32272  0.72747  1.0000
  C   C890      1.0  0.71593  0.19862  0.91747  1.0000
  H   H1594     1.0  0.79292  0.23224  0.61961  1.0000
  C   C891      1.0  0.96007  0.01762  0.71498  1.0000
  H   H1595     1.0  0.80867  0.27298  0.58001  1.0000
  C   C892      1.0  0.99698  0.43068  0.71621  1.0000
  H   H1596     1.0  0.76039  0.33592  0.92030  1.0000
  C   C893      1.0  0.92551  0.23715  0.85692  1.0000
  C   C894      1.0  0.94564  0.21797  0.85961  1.0000
  C   C895      1.0  0.94015  0.19142  0.85652  1.0000
  C   C896      1.0  0.91442  0.18381  0.85060  1.0000
  C   C897      1.0  0.89425  0.20298  0.84611  1.0000
  C   C898      1.0  0.89979  0.22969  0.84922  1.0000
  H   H1597     1.0  0.96553  0.22357  0.86534  1.0000
  H   H1598     1.0  0.95588  0.17683  0.85938  1.0000
  H   H1599     1.0  0.87427  0.19721  0.84173  1.0000
  H   H1600     1.0  0.88414  0.24440  0.84713  1.0000
  C   C899      1.0  0.96982  0.39211  0.87362  1.0000
  H   H1601     1.0  0.99517  0.29700  0.71151  1.0000
  H   H1602     1.0  0.96034  0.37834  0.80485  1.0000
  C   C900      1.0  0.93776  0.39736  0.59648  1.0000
  C   C901      1.0  0.92445  0.37653  0.57721  1.0000
  C   C902      1.0  0.91018  0.35982  0.60646  1.0000
  C   C903      1.0  0.90910  0.36360  0.65531  1.0000
  C   C904      1.0  0.92265  0.38426  0.67467  1.0000
  C   C905      1.0  0.93667  0.40115  0.64535  1.0000
  H   H1603     1.0  0.92496  0.37341  0.53970  1.0000
  H   H1604     1.0  0.89981  0.34393  0.59110  1.0000
  H   H1605     1.0  0.92188  0.38754  0.71213  1.0000
  H   H1606     1.0  0.94654  0.41738  0.66064  1.0000
  H   H1607     1.0  0.77306  0.09480  0.72394  1.0000
  C   C906      1.0  0.96357  0.03038  0.75844  1.0000
  H   H1608     1.0  0.74908  0.07207  0.53731  1.0000
  H   H1609     1.0  0.99733  0.37756  0.57066  1.0000
  H   H1610     1.0  0.80854  0.14507  0.91901  1.0000
  H   H1611     1.0  0.73657  0.28563  0.73996  1.0000
  C   C907      1.0  0.80446  0.25541  0.55888  1.0000
  C   C908      1.0  0.84741  0.16399  0.70326  1.0000
  H   H1612     1.0  0.71292  0.49962  0.65488  1.0000
  C   C909      1.0  0.67795  0.26943  0.66073  1.0000
  H   H1613     1.0  0.96071  0.05135  0.76094  1.0000
  Fe  Fe101     1.0  0.99729  0.12331  0.90724  1.0000
  H   H1614     1.0  0.99375  0.40732  0.63256  1.0000
  H   H1615     1.0  0.94485  0.48771  0.54142  1.0000
  H   H1616     1.0  0.78723  0.10750  0.62696  1.0000
  C   C910      1.0  0.97080  0.01599  0.79842  1.0000
  C   C911      1.0  0.69104  0.13699  0.85874  1.0000
  H   H1617     1.0  0.69761  0.42820  0.71715  1.0000
  C   C912      1.0  0.71134  0.30191  0.65245  1.0000
  H   H1618     1.0  0.85620  0.15779  0.50393  1.0000
  H   H1619     1.0  0.70864  0.21917  0.91916  1.0000
  H   H1620     1.0  0.86705  0.15445  0.69819  1.0000
  H   H1621     1.0  0.98340  0.33155  0.79733  1.0000
  H   H1622     1.0  0.95788  0.47137  0.48973  1.0000
  C   C913      1.0  0.80013  0.33723  0.94511  1.0000
  H   H1623     1.0  0.86275  0.20329  0.70358  1.0000
  H   H1624     1.0  0.96806  0.47145  0.80455  1.0000
  H   H1625     1.0  0.78348  0.35110  0.67871  1.0000
  C   C914      1.0  0.00035  0.29191  0.80979  1.0000
  H   H1626     1.0  0.75598  0.21036  0.90479  1.0000
  H   H1627     1.0  0.83844  0.15974  0.58528  1.0000
  C   C915      1.0  0.68692  0.07719  0.50455  1.0000
  H   H1628     1.0  0.89303  0.06497  0.81042  1.0000
  H   H1629     1.0  0.76121  0.17578  0.53197  1.0000
  C   C916      1.0  0.99011  0.40029  0.90268  1.0000
  H   H1630     1.0  0.85009  0.23440  0.94965  1.0000
  H   H1631     1.0  0.71294  0.29849  0.54758  1.0000
  H   H1632     1.0  0.73550  0.27493  0.80003  1.0000
  H   H1633     1.0  0.95443  0.02904  0.68452  1.0000
  C   C917      1.0  0.87945  0.14646  0.97949  1.0000
  C   C918      1.0  0.69206  0.32214  0.65453  1.0000
  H   H1634     1.0  0.71031  0.29723  0.77822  1.0000
  H   H1635     1.0  0.89731  0.24174  0.94756  1.0000
  S   S206      1.0  0.71630  0.14722  0.81973  1.0000
  H   H1636     1.0  0.89249  0.24714  0.50814  1.0000
  N   N50       1.0  0.83519  0.13826  0.77885  1.0000
  C   C919      1.0  0.83327  0.14266  0.83111  1.0000
  C   C920      1.0  0.85867  0.12043  0.76757  1.0000
  C   C921      1.0  0.83949  0.16448  0.75601  1.0000
  C   C922      1.0  0.81027  0.12779  0.75913  1.0000
  C   C923      1.0  0.80111  0.10165  0.77968  1.0000
  C   C924      1.0  0.81081  0.16142  0.84842  1.0000
  H   H1637     1.0  0.67169  0.32597  0.48522  1.0000
  C   C925      1.0  0.86574  0.09815  0.80293  1.0000
  C   C926      1.0  0.88795  0.08029  0.78406  1.0000
  C   C927      1.0  0.77360  0.09572  0.76282  1.0000
  C   C928      1.0  0.81162  0.16421  0.90179  1.0000
  H   H1638     1.0  0.67068  0.20816  0.95453  1.0000
  H   H1639     1.0  0.85199  0.15046  0.84399  1.0000
  H   H1640     1.0  0.83102  0.12405  0.85037  1.0000
  H   H1641     1.0  0.85649  0.11160  0.73219  1.0000
  H   H1642     1.0  0.87678  0.13200  0.76578  1.0000
  H   H1643     1.0  0.85513  0.17489  0.77480  1.0000
  H   H1644     1.0  0.82146  0.17723  0.75856  1.0000
  H   H1645     1.0  0.79388  0.14258  0.76261  1.0000
  H   H1646     1.0  0.81225  0.12451  0.72076  1.0000
  H   H1647     1.0  0.80046  0.10183  0.81849  1.0000
  H   H1648     1.0  0.81430  0.08541  0.76736  1.0000
  H   H1649     1.0  0.81261  0.18127  0.83344  1.0000
  H   H1650     1.0  0.79141  0.15390  0.83894  1.0000
  H   H1651     1.0  0.83366  0.27972  0.93881  1.0000
  H   H1652     1.0  0.77801  0.11331  0.54252  1.0000
  H   H1653     1.0  0.87270  0.10647  0.83638  1.0000
  H   H1654     1.0  0.84893  0.08595  0.81131  1.0000
  H   H1655     1.0  0.85507  0.19089  0.64635  1.0000
  C   C929      1.0  0.96835  0.33421  0.95667  1.0000
  H   H1656     1.0  0.88198  0.07058  0.75121  1.0000
  H   H1657     1.0  0.76770  0.07659  0.77707  1.0000
  C   C930      1.0  0.82537  0.16302  0.55601  1.0000
  H   H1658     1.0  0.92331  0.47145  0.50214  1.0000
  C   C931      1.0  0.87721  0.24090  0.53327  1.0000
  H   H1659     1.0  0.75259  0.12756  0.57921  1.0000
  H   H1660     1.0  0.86576  0.27543  0.91291  1.0000
  H   H1661     1.0  0.76703  0.25260  0.59479  1.0000
  H   H1662     1.0  0.82374  0.32407  0.66539  1.0000
  H   H1663     1.0  0.83076  0.17173  0.91295  1.0000
  H   H1664     1.0  0.93770  0.49119  0.95342  1.0000
  C   C932      1.0  0.98568  0.01796  0.55445  1.0000
  H   H1665     1.0  0.83324  0.15339  0.68185  1.0000
  C   C933      1.0  0.94111  0.48328  0.50399  1.0000
  H   H1666     1.0  0.71654  0.41076  0.67319  1.0000
  C   C934      1.0  0.98952  0.31482  0.88315  1.0000
  H   H1667     1.0  0.98555  0.40724  0.93768  1.0000
  C   C935      1.0  0.94037  0.21417  0.97689  1.0000
  C   C936      1.0  0.85471  0.27578  0.94659  1.0000
  C   C937      1.0  0.86990  0.29409  0.48984  1.0000
  C   C938      1.0  0.74119  0.19789  0.88852  1.0000
  H   H1668     1.0  0.74000  0.33377  0.72357  1.0000
  H   H1669     1.0  0.91351  0.21280  0.58859  1.0000
  Fe  Fe102     1.0  0.69143  0.14318  0.64690  1.0000
  C   C939      1.0  0.78187  0.17171  0.52611  1.0000
  C   C940      1.0  0.84862  0.19172  0.68354  1.0000
  N   N51       1.0  0.75902  0.36204  0.76706  1.0000
  C   C941      1.0  0.75761  0.37099  0.81736  1.0000
  C   C942      1.0  0.74117  0.33943  0.76115  1.0000
  C   C943      1.0  0.78708  0.35413  0.75566  1.0000
  C   C944      1.0  0.75032  0.38358  0.73380  1.0000
  C   C945      1.0  0.72350  0.39747  0.74497  1.0000
  C   C946      1.0  0.77315  0.39565  0.82898  1.0000
  C   C947      1.0  0.79163  0.33957  0.70849  1.0000
  C   C948      1.0  0.74808  0.31471  0.79080  1.0000
  H   H1670     1.0  0.90574  0.09166  0.77721  1.0000
  H   H1671     1.0  0.96705  0.34282  0.54671  1.0000
  C   C949      1.0  0.76904  0.40374  0.88011  1.0000
  C   C950      1.0  0.82084  0.33469  0.69902  1.0000
  H   H1672     1.0  0.76554  0.35535  0.84090  1.0000
  H   H1673     1.0  0.73690  0.37424  0.82878  1.0000
  H   H1674     1.0  0.72072  0.34531  0.77092  1.0000
  H   H1675     1.0  0.95904  0.45696  0.90817  1.0000
  H   H1676     1.0  0.79587  0.34180  0.78412  1.0000
  H   H1677     1.0  0.79937  0.37166  0.75448  1.0000
  H   H1678     1.0  0.76531  0.39880  0.73133  1.0000
  H   H1679     1.0  0.74875  0.37579  0.69755  1.0000
  H   H1680     1.0  0.72342  0.40675  0.78004  1.0000
  H   H1681     1.0  0.70742  0.38348  0.74382  1.0000
  H   H1682     1.0  0.79447  0.39172  0.82375  1.0000
  H   H1683     1.0  0.76700  0.41251  0.80675  1.0000
  C   C951      1.0  0.84953  0.27982  0.52026  1.0000
  H   H1684     1.0  0.78238  0.32029  0.70898  1.0000
  H   H1685     1.0  0.76893  0.30837  0.78694  1.0000
  H   H1686     1.0  0.74413  0.31860  0.82852  1.0000
  H   H1687     1.0  0.82487  0.21920  0.53834  1.0000
  H   H1688     1.0  0.83005  0.28819  0.51045  1.0000
  H   H1689     1.0  0.89002  0.28988  0.50286  1.0000
  H   H1690     1.0  0.82894  0.20164  0.68495  1.0000
  C   C952      1.0  0.98986  0.34347  0.61117  1.0000
  H   H1691     1.0  0.74801  0.40833  0.88739  1.0000
  H   H1692     1.0  0.77608  0.38789  0.90401  1.0000
  H   H1693     1.0  0.78035  0.42138  0.88753  1.0000
  H   H1694     1.0  0.69177  0.06936  0.53984  1.0000
  H   H1695     1.0  0.91188  0.18229  0.55739  1.0000
  Fe  Fe103     1.0  0.96358  0.41310  0.48270  1.0000
  S   S207      1.0  0.70068  0.35506  0.64855  1.0000
  N   N52       1.0  0.72959  0.10306  0.49735  1.0000
  H   H1696     1.0  0.67420  0.09500  0.50890  1.0000
  H   H1697     1.0  0.79592  0.17820  0.91364  1.0000
  H   H1698     1.0  0.99222  0.03847  0.61963  1.0000
  H   H1699     1.0  0.95376  0.44226  0.82692  1.0000
  H   H1700     1.0  0.86787  0.20281  0.56502  1.0000
  H   H1701     1.0  0.68418  0.11062  0.96890  1.0000
  C   C953      1.0  0.77348  0.09457  0.60890  1.0000
  C   C954      1.0  0.70406  0.31560  0.52880  1.0000
  C   C955      1.0  0.95980  0.47185  0.87977  1.0000
  H   H1702     1.0  0.87831  0.20088  0.50493  1.0000
  H   H1703     1.0  0.72804  0.14329  0.52022  1.0000
  H   H1704     1.0  0.72488  0.09011  0.56909  1.0000
  H   H1705     1.0  0.73703  0.20530  0.85258  1.0000
  H   H1706     1.0  0.73165  0.30661  0.64754  1.0000
  C   C956      1.0  0.74074  0.09222  0.54254  1.0000
  H   H1707     1.0  0.74919  0.17752  0.88555  1.0000
  S   S208      1.0  0.97510  0.11023  0.84401  1.0000
  H   H1708     1.0  0.72405  0.16498  0.95939  1.0000
  H   H1709     1.0  0.70120  0.18752  0.89795  1.0000
  H   H1710     1.0  0.85245  0.28597  0.55732  1.0000
  H   H1711     1.0  0.69895  0.33128  0.55437  1.0000
  C   C957      1.0  0.97584  0.38356  0.82825  1.0000
  H   H1712     1.0  0.98769  0.44812  0.83833  1.0000
  C   C958      1.0  0.73153  0.29180  0.77629  1.0000
  H   H1713     1.0  0.78109  0.07950  0.48466  1.0000
  H   H1714     1.0  0.89081  0.19657  0.94690  1.0000
  H   H1715     1.0  0.93972  0.48004  0.87491  1.0000
  C   C959      1.0  0.88142  0.21088  0.53864  1.0000
  S   S209      1.0  0.99475  0.08498  0.94517  1.0000
  C   C960      1.0  0.96794  0.45764  0.83460  1.0000
  H   H1716     1.0  0.98189  0.41871  0.73332  1.0000
  H   H1717     1.0  0.79519  0.26205  0.52581  1.0000
  H   H1718     1.0  0.98743  0.44378  0.68983  1.0000
  H   H1719     1.0  0.68847  0.49979  0.70061  1.0000
  H   H1720     1.0  0.98175  0.28105  0.81023  1.0000
  H   H1721     1.0  0.99211  0.38288  0.67589  1.0000
  C   C961      1.0  0.98532  0.31168  0.93680  1.0000
  H   H1722     1.0  0.86651  0.33079  0.52862  1.0000
  C   C962      1.0  0.85824  0.24970  0.97231  1.0000
  H   H1723     1.0  0.70097  0.12546  0.53810  1.0000
  C   C963      1.0  0.97969  0.49295  0.89277  1.0000
  H   H1724     1.0  0.96345  0.30116  0.73979  1.0000
  H   H1725     1.0  0.88282  0.14722  0.94110  1.0000
  C   C964      1.0  0.67854  0.11907  0.93553  1.0000
  H   H1726     1.0  0.99261  0.20178  0.49609  1.0000
  H   H1727     1.0  0.97859  0.35290  0.95337  1.0000
  H   H1728     1.0  0.93446  0.19795  0.95414  1.0000
  S   S210      1.0  0.67172  0.42146  0.59206  1.0000
  H   H1729     1.0  0.98112  0.20603  0.95911  1.0000
  H   H1730     1.0  0.97393  0.35342  0.63161  1.0000
  H   H1731     1.0  0.86161  0.29200  0.96862  1.0000
  Fe  Fe104     1.0  0.95772  0.10248  0.97805  1.0000
  H   H1732     1.0  0.93984  0.23253  0.95620  1.0000
  C   C965      1.0  0.97711  0.32888  0.57103  1.0000
  C   C966      1.0  0.67972  0.30791  0.50200  1.0000
  C   C967      1.0  0.98250  0.31037  0.73307  1.0000
  H   H1733     1.0  0.96942  0.00904  0.94837  1.0000
  H   H1734     1.0  0.99759  0.48138  0.90342  1.0000
  H   H1735     1.0  0.99203  0.31711  0.55108  1.0000
  H   H1736     1.0  0.98100  0.03642  0.53575  1.0000
  C   C968      1.0  0.99592  0.31674  0.77921  1.0000
  C   C969      1.0  0.00194  0.38204  0.81274  1.0000
  H   H1737     1.0  0.99969  0.32861  0.63388  1.0000
  N   N53       1.0  0.85034  0.25033  0.51736  1.0000
  H   H1738     1.0  0.97850  0.32872  0.71318  1.0000
  S   S211      1.0  0.67368  0.16701  0.70543  1.0000
  H   H1739     1.0  0.99437  0.33553  0.87619  1.0000
  C   C970      1.0  0.67231  0.19122  0.97870  1.0000
  S   S212      1.0  0.67009  0.11067  0.61190  1.0000
  C   C971      1.0  0.00280  0.02420  0.59648  1.0000
  H   H1740     1.0  0.95044  0.01393  0.49024  1.0000
  C   C972      1.0  0.68281  0.16472  0.48357  1.0000
  C   C973      1.0  0.95577  0.49921  0.96814  1.0000
  C   C974      1.0  0.79205  0.17067  0.47994  1.0000
  C   C975      1.0  0.67077  0.05685  0.47973  1.0000
  C   C976      1.0  0.86181  0.89869  0.31014  1.0000
  C   C977      1.0  0.69355  0.64548  0.13117  1.0000
  H   H1741     1.0  0.73174  0.83158  0.26353  1.0000
  Fe  Fe105     1.0  0.72979  0.67015  0.39406  1.0000
  S   S213      1.0  0.72054  0.69885  0.33566  1.0000
  S   S214      1.0  0.77182  0.67063  0.42256  1.0000
  H   H1742     1.0  0.73682  0.72126  0.47943  1.0000
  H   H1743     1.0  0.76113  0.74577  0.47076  1.0000
  Fe  Fe106     1.0  0.70343  0.66503  0.29696  1.0000
  S   S215      1.0  0.71052  0.66096  0.21811  1.0000
  S   S216      1.0  0.69126  0.67785  0.43107  1.0000
  S   S217      1.0  0.71512  0.63586  0.35277  1.0000
  C   C978      1.0  0.82516  0.83028  0.20849  1.0000
  H   H1744     1.0  0.99265  0.99643  0.04514  1.0000
  H   H1745     1.0  0.79372  0.91037  0.12036  1.0000
  C   C979      1.0  0.69060  0.77704  0.35620  1.0000
  H   H1746     1.0  0.86228  0.72707  0.04607  1.0000
  H   H1747     1.0  0.72657  0.77591  0.43690  1.0000
  S   S218      1.0  0.98463  0.59663  0.16133  1.0000
  Fe  Fe107     1.0  0.98440  0.59459  0.02499  1.0000
  S   S219      1.0  0.94879  0.58663  0.06870  1.0000
  Fe  Fe108     1.0  0.96106  0.62142  0.11074  1.0000
  S   S220      1.0  0.93158  0.65295  0.13503  1.0000
  Fe  Fe109     1.0  0.97592  0.56257  0.11583  1.0000
  H   H1748     1.0  0.99590  0.95271  0.01989  1.0000
  H   H1749     1.0  0.91521  0.57147  0.39465  1.0000
  H   H1750     1.0  0.76802  0.71974  0.28895  1.0000
  Fe  Fe110     1.0  0.88758  0.83651  0.11464  1.0000
  S   S221      1.0  0.89799  0.80552  0.16859  1.0000
  S   S222      1.0  0.84680  0.83632  0.07980  1.0000
  Fe  Fe111     1.0  0.93925  0.86437  0.13263  1.0000
  S   S223      1.0  0.95327  0.83495  0.18593  1.0000
  S   S224      1.0  0.96427  0.89967  0.12278  1.0000
  Fe  Fe112     1.0  0.93797  0.80550  0.13571  1.0000
  S   S225      1.0  0.96431  0.77098  0.11577  1.0000
  Fe  Fe113     1.0  0.91244  0.83789  0.21491  1.0000
  S   S226      1.0  0.90333  0.83869  0.29404  1.0000
  S   S227      1.0  0.92716  0.83479  0.07941  1.0000
  S   S228      1.0  0.89873  0.86900  0.16387  1.0000
  S   S229      1.0  0.96156  0.90367  0.45309  1.0000
  C   C980      1.0  0.91999  0.85665  0.33787  1.0000
  C   C981      1.0  0.94092  0.87257  0.32694  1.0000
  C   C982      1.0  0.95341  0.88659  0.36262  1.0000
  C   C983      1.0  0.94537  0.88487  0.40982  1.0000
  C   C984      1.0  0.92440  0.86898  0.42077  1.0000
  C   C985      1.0  0.91183  0.85500  0.38505  1.0000
  H   H1751     1.0  0.94743  0.87420  0.29092  1.0000
  H   H1752     1.0  0.96946  0.89891  0.35348  1.0000
  H   H1753     1.0  0.91759  0.86786  0.45664  1.0000
  H   H1754     1.0  0.89554  0.84298  0.39399  1.0000
  H   H1755     1.0  0.79924  0.72561  0.31515  1.0000
  C   C986      1.0  0.97901  0.52722  0.23891  1.0000
  H   H1756     1.0  0.98703  0.80668  0.42705  1.0000
  C   C987      1.0  0.83172  0.78181  0.22686  1.0000
  H   H1757     1.0  0.92367  0.51416  0.07402  1.0000
  H   H1758     1.0  0.91198  0.53815  0.41160  1.0000
  H   H1759     1.0  0.83869  0.76759  0.25384  1.0000
  C   C988      1.0  0.94059  0.68590  0.13030  1.0000
  C   C989      1.0  0.92329  0.70608  0.14555  1.0000
  C   C990      1.0  0.93026  0.73240  0.14174  1.0000
  C   C991      1.0  0.95447  0.73858  0.12221  1.0000
  C   C992      1.0  0.97160  0.71847  0.10683  1.0000
  C   C993      1.0  0.96473  0.69232  0.11101  1.0000
  H   H1760     1.0  0.90456  0.70132  0.16059  1.0000
  H   H1761     1.0  0.91703  0.74783  0.15407  1.0000
  N   N54       1.0  0.98638  0.99144  0.47596  1.0000
  H   H1762     1.0  0.97822  0.67719  0.09919  1.0000
  S   S230      1.0  0.96824  0.52146  0.14365  1.0000
  C   C994      1.0  0.84010  0.89411  0.27470  1.0000
  H   H1763     1.0  0.69686  0.80925  0.44937  1.0000
  C   C995      1.0  0.90395  0.69865  0.01086  1.0000
  H   H1764     1.0  0.79559  0.85091  0.13600  1.0000
  H   H1765     1.0  0.96198  0.56669  0.38311  1.0000
  H   H1766     1.0  0.82101  0.89882  0.29194  1.0000
  C   C996      1.0  0.83369  0.82971  0.02285  1.0000
  C   C997      1.0  0.80645  0.83272  0.01595  1.0000
  C   C998      1.0  0.94170  0.77708  0.99829  1.0000
  H   H1767     1.0  0.79404  0.83899  0.04490  1.0000
  C   C999      1.0  0.67126  0.52593  0.03350  1.0000
  H   H1768     1.0  0.94837  0.99209  0.44281  1.0000
  C   C1000     1.0  0.96125  0.79965  0.36983  1.0000
  H   H1769     1.0  0.88135  0.89549  0.29339  1.0000
  H   H1770     1.0  0.84800  0.75723  0.02416  1.0000
  H   H1771     1.0  0.92635  0.52320  0.33267  1.0000
  C   C1001     1.0  0.79396  0.85844  0.25709  1.0000
  H   H1772     1.0  0.85698  0.77886  0.10036  1.0000
  C   C1002     1.0  0.98073  0.51799  0.28551  1.0000
  C   C1003     1.0  0.69746  0.80321  0.34918  1.0000
  H   H1773     1.0  0.74498  0.73185  0.42119  1.0000
  C   C1004     1.0  0.89065  0.75806  0.03209  1.0000
  C   C1005     1.0  0.69204  0.64130  0.17989  1.0000
  H   H1774     1.0  0.71754  0.80772  0.34140  1.0000
  H   H1775     1.0  0.70531  0.76142  0.35339  1.0000
  H   H1776     1.0  0.82084  0.81130  0.27786  1.0000
  H   H1777     1.0  0.80883  0.82257  0.18787  1.0000
  H   H1778     1.0  0.77477  0.87467  0.16672  1.0000
  H   H1779     1.0  0.71678  0.86329  0.46020  1.0000
  H   H1780     1.0  0.93342  0.72641  0.02166  1.0000
  C   C1006     1.0  0.92363  0.55139  0.38985  1.0000
  H   H1781     1.0  0.77828  0.81893  0.25441  1.0000
  H   H1782     1.0  0.70931  0.52202  0.06767  1.0000
  H   H1783     1.0  0.87079  0.74829  0.12275  1.0000
  H   H1784     1.0  0.73903  0.86568  0.26238  1.0000
  H   H1785     1.0  0.84428  0.77937  0.19516  1.0000
  N   N55       1.0  0.95984  0.55171  0.45445  1.0000
  H   H1786     1.0  0.85391  0.81238  0.25662  1.0000
  H   H1787     1.0  0.94003  0.77063  0.43533  1.0000
  H   H1788     1.0  0.98662  0.53112  0.31280  1.0000
  C   C1007     1.0  0.95870  0.77767  0.44993  1.0000
  C   C1008     1.0  0.99478  0.89578  0.09402  1.0000
  H   H1789     1.0  0.81120  0.77749  0.21780  1.0000
  H   H1790     1.0  0.78152  0.69739  0.33254  1.0000
  H   H1791     1.0  0.86001  0.86279  0.23650  1.0000
  H   H1792     1.0  0.93397  0.78388  0.03259  1.0000
  H   H1793     1.0  0.86022  0.88530  0.34065  1.0000
  H   H1794     1.0  0.94007  0.79736  0.36286  1.0000
  C   C1009     1.0  0.95690  0.99412  0.47848  1.0000
  C   C1010     1.0  0.99338  0.96359  0.46192  1.0000
  H   H1795     1.0  0.75154  0.85603  0.45788  1.0000
  C   C1011     1.0  0.67688  0.62098  0.19665  1.0000
  C   C1012     1.0  0.95311  0.55040  0.40295  1.0000
  H   H1796     1.0  0.96215  0.53239  0.38733  1.0000
  H   H1797     1.0  0.83670  0.75101  0.10693  1.0000
  S   S231      1.0  0.68731  0.85650  0.35115  1.0000
  H   H1798     1.0  0.84174  0.83108  0.18299  1.0000
  H   H1799     1.0  0.75032  0.84520  0.31045  1.0000
  H   H1800     1.0  0.84303  0.90806  0.24545  1.0000
  H   H1801     1.0  0.93108  0.55667  0.31491  1.0000
  H   H1802     1.0  0.96751  0.81744  0.35104  1.0000
  Fe  Fe114     1.0  0.68121  0.70403  0.37006  1.0000
  C   C1013     1.0  0.91981  0.54386  0.33854  1.0000
  C   C1014     1.0  0.96600  0.80271  0.42237  1.0000
  H   H1803     1.0  0.70348  0.55242  0.03687  1.0000
  H   H1804     1.0  0.95629  0.76092  0.00457  1.0000
  C   C1015     1.0  0.74686  0.84590  0.27203  1.0000
  H   H1805     1.0  0.84352  0.85283  0.28797  1.0000
  H   H1806     1.0  0.97676  0.51228  0.45655  1.0000
  H   H1807     1.0  0.99032  0.72311  0.09160  1.0000
  H   H1808     1.0  0.78511  0.87863  0.25685  1.0000
  H   H1809     1.0  0.97376  0.76247  0.43970  1.0000
  H   H1810     1.0  0.98344  0.54725  0.23085  1.0000
  C   C1016     1.0  0.73195  0.84758  0.45400  1.0000
  H   H1811     1.0  0.95479  0.82034  0.43411  1.0000
  H   H1812     1.0  0.81495  0.88690  0.08989  1.0000
  H   H1813     1.0  0.99807  0.66979  0.23180  1.0000
  C   C1017     1.0  0.84134  0.86555  0.25643  1.0000
  N   N56       1.0  0.81849  0.85729  0.22705  1.0000
  H   H1814     1.0  0.73015  0.84032  0.41752  1.0000
  H   H1815     1.0  0.86031  0.91912  0.32307  1.0000
  H   H1816     1.0  0.93952  0.73077  0.47583  1.0000
  C   C1018     1.0  0.79425  0.87103  0.15021  1.0000
  C   C1019     1.0  0.86337  0.74858  0.04750  1.0000
  C   C1020     1.0  0.83329  0.80957  0.24597  1.0000
  H   H1817     1.0  0.82514  0.66848  0.45385  1.0000
  H   H1818     1.0  0.96400  0.52331  0.03030  1.0000
  H   H1819     1.0  0.79879  0.85451  0.29458  1.0000
  H   H1820     1.0  0.87028  0.81939  0.98899  1.0000
  H   H1821     1.0  0.70266  0.75139  0.44646  1.0000
  C   C1021     1.0  0.67848  0.82355  0.35385  1.0000
  C   C1022     1.0  0.67962  0.62999  0.09960  1.0000
  C   C1023     1.0  0.81613  0.87599  0.18612  1.0000
  H   H1822     1.0  0.77999  0.88588  0.08338  1.0000
  H   H1823     1.0  0.98849  0.65506  0.17768  1.0000
  C   C1024     1.0  0.79591  0.88975  0.10853  1.0000
  C   C1025     1.0  0.77210  0.83922  0.24487  1.0000
  C   C1026     1.0  0.85665  0.75725  0.09749  1.0000
  H   H1824     1.0  0.81205  0.89628  0.19854  1.0000
  H   H1825     1.0  0.76735  0.83926  0.20712  1.0000
  H   H1826     1.0  0.83513  0.87628  0.16661  1.0000
  H   H1827     1.0  0.70539  0.66095  0.11772  1.0000
  H   H1828     1.0  0.78780  0.61776  0.39752  1.0000
  H   H1829     1.0  0.98118  0.86912  0.04210  1.0000
  N   N57       1.0  0.79426  0.64448  0.25524  1.0000
  C   C1027     1.0  0.78353  0.67169  0.24496  1.0000
  C   C1028     1.0  0.77562  0.62484  0.23620  1.0000
  C   C1029     1.0  0.79442  0.64131  0.30803  1.0000
  C   C1030     1.0  0.82169  0.63937  0.23624  1.0000
  C   C1031     1.0  0.82948  0.65426  0.19089  1.0000
  C   C1032     1.0  0.80012  0.69447  0.26357  1.0000
  C   C1033     1.0  0.80365  0.61398  0.32674  1.0000
  C   C1034     1.0  0.77143  0.62460  0.18247  1.0000
  C   C1035     1.0  0.75270  0.60328  0.16861  1.0000
  C   C1036     1.0  0.85472  0.64255  0.16936  1.0000
  C   C1037     1.0  0.78630  0.71017  0.30247  1.0000
  C   C1038     1.0  0.80702  0.61410  0.37995  1.0000
  H   H1830     1.0  0.76305  0.67401  0.25854  1.0000
  H   H1831     1.0  0.78127  0.67493  0.20675  1.0000
  H   H1832     1.0  0.78253  0.60463  0.24491  1.0000
  H   H1833     1.0  0.75599  0.62764  0.25321  1.0000
  H   H1834     1.0  0.77449  0.64569  0.32288  1.0000
  H   H1835     1.0  0.80725  0.65575  0.32450  1.0000
  H   H1836     1.0  0.83660  0.64439  0.26285  1.0000
  H   H1837     1.0  0.82514  0.61806  0.22990  1.0000
  H   H1838     1.0  0.83321  0.67495  0.19901  1.0000
  H   H1839     1.0  0.81409  0.65425  0.16380  1.0000
  H   H1840     1.0  0.81965  0.68770  0.27632  1.0000
  H   H1841     1.0  0.80381  0.70826  0.23426  1.0000
  H   H1842     1.0  0.82265  0.60759  0.31082  1.0000
  H   H1843     1.0  0.78895  0.59914  0.31906  1.0000
  H   H1844     1.0  0.76286  0.64348  0.16981  1.0000
  H   H1845     1.0  0.79012  0.62007  0.16392  1.0000
  H   H1846     1.0  0.74813  0.60490  0.13066  1.0000
  H   H1847     1.0  0.76170  0.58360  0.17545  1.0000
  H   H1848     1.0  0.73405  0.60527  0.18862  1.0000
  H   H1849     1.0  0.87106  0.64297  0.19489  1.0000
  H   H1850     1.0  0.85195  0.62207  0.15816  1.0000
  H   H1851     1.0  0.86036  0.65409  0.13808  1.0000
  H   H1852     1.0  0.00102  0.82679  0.08482  1.0000
  H   H1853     1.0  0.95799  0.98683  0.99282  1.0000
  H   H1854     1.0  0.89876  0.54592  0.32935  1.0000
  H   H1855     1.0  0.81497  0.59477  0.39184  1.0000
  H   H1856     1.0  0.82072  0.62931  0.39085  1.0000
  H   H1857     1.0  0.90461  0.75392  0.06126  1.0000
  S   S232      1.0  0.99547  0.63031  0.06485  1.0000
  C   C1039     1.0  0.72070  0.75986  0.46041  1.0000
  C   C1040     1.0  0.97134  0.51063  0.20294  1.0000
  C   C1041     1.0  0.93698  0.50843  0.47562  1.0000
  C   C1042     1.0  0.92187  0.67420  0.00769  1.0000
  C   C1043     1.0  0.98630  0.56377  0.45934  1.0000
  C   C1044     1.0  0.69430  0.53750  0.05933  1.0000
  H   H1858     1.0  0.68758  0.54715  0.09233  1.0000
  H   H1859     1.0  0.91157  0.65705  0.02163  1.0000
  H   H1860     1.0  0.67914  0.51673  0.00096  1.0000
  H   H1861     1.0  0.91551  0.81318  0.46097  1.0000
  H   H1862     1.0  0.98602  0.58360  0.44330  1.0000
  H   H1863     1.0  0.68071  0.63371  0.06230  1.0000
  H   H1864     1.0  0.89796  0.70101  0.04813  1.0000
  H   H1865     1.0  0.97258  0.78250  0.35570  1.0000
  C   C1045     1.0  0.93933  0.59781  0.47038  1.0000
  H   H1866     1.0  0.98254  0.95812  0.42971  1.0000
  H   H1867     1.0  0.89687  0.60349  0.46648  1.0000
  H   H1868     1.0  0.88826  0.77979  0.03085  1.0000
  C   C1046     1.0  0.99755  0.88011  0.05415  1.0000
  C   C1047     1.0  0.91845  0.72307  0.99431  1.0000
  H   H1869     1.0  0.94161  0.60119  0.43217  1.0000
  C   C1048     1.0  0.74224  0.73843  0.45805  1.0000
  H   H1870     1.0  0.93239  0.50258  0.43918  1.0000
  H   H1871     1.0  0.96701  0.92058  0.98826  1.0000
  H   H1872     1.0  0.97206  0.80560  0.00030  1.0000
  H   H1873     1.0  0.93993  0.67655  0.02844  1.0000
  H   H1874     1.0  0.67587  0.61719  0.23394  1.0000
  Fe  Fe115     1.0  0.67564  0.64637  0.38509  1.0000
  C   C1049     1.0  0.84932  0.82152  0.98470  1.0000
  C   C1050     1.0  0.96197  0.52468  0.47574  1.0000
  C   C1051     1.0  0.94693  0.51651  0.01040  1.0000
  H   H1875     1.0  0.88651  0.69494  0.98936  1.0000
  N   N58       1.0  0.90188  0.74761  0.98621  1.0000
  H   H1876     1.0  0.93498  0.53376  0.99870  1.0000
  H   H1877     1.0  0.92029  0.56090  0.47928  1.0000
  H   H1878     1.0  0.69135  0.59199  0.80455  1.0000
  C   C1052     1.0  0.97976  0.64620  0.59148  1.0000
  C   C1053     1.0  0.77384  0.72422  0.84020  1.0000
  S   S233      1.0  0.70632  0.63702  0.88496  1.0000
  N   N59       1.0  0.69597  0.79132  0.51826  1.0000
  Fe  Fe116     1.0  0.69788  0.83657  0.84689  1.0000
  C   C1054     1.0  0.83423  0.76661  0.67978  1.0000
  Fe  Fe117     1.0  0.75530  0.81740  0.84648  1.0000
  S   S234      1.0  0.75028  0.79854  0.77541  1.0000
  S   S235      1.0  0.79707  0.81254  0.87735  1.0000
  Fe  Fe118     1.0  0.72675  0.83446  0.75359  1.0000
  S   S236      1.0  0.73090  0.85069  0.67921  1.0000
  Fe  Fe119     1.0  0.71252  0.78388  0.80404  1.0000
  H   H1879     1.0  0.96460  0.75518  0.56331  1.0000
  S   S237      1.0  0.73501  0.85493  0.82171  1.0000
  S   S238      1.0  0.71846  0.80032  0.87612  1.0000
  C   C1055     1.0  0.91939  0.76806  0.96595  1.0000
  Fe  Fe120     1.0  0.86691  0.67031  0.64834  1.0000
  S   S239      1.0  0.88171  0.69630  0.70595  1.0000
  S   S240      1.0  0.82352  0.67480  0.62732  1.0000
  Fe  Fe121     1.0  0.91965  0.64060  0.64141  1.0000
  S   S241      1.0  0.93818  0.66408  0.69762  1.0000
  S   S242      1.0  0.94420  0.60835  0.60681  1.0000
  Fe  Fe122     1.0  0.90074  0.65988  0.73739  1.0000
  S   S243      1.0  0.89852  0.65257  0.81655  1.0000
  Fe  Fe123     1.0  0.91818  0.69848  0.66215  1.0000
  S   S244      1.0  0.94448  0.73263  0.65117  1.0000
  S   S245      1.0  0.88310  0.63364  0.68350  1.0000
  S   S246      1.0  0.90243  0.67523  0.60230  1.0000
  S   S247      1.0  0.98583  0.59554  0.94477  1.0000
  C   C1056     1.0  0.68945  0.66970  0.81432  1.0000
  S   S248      1.0  0.96702  0.89606  0.67097  1.0000
  Fe  Fe124     1.0  0.96147  0.90141  0.53369  1.0000
  S   S249      1.0  0.92966  0.91602  0.58305  1.0000
  Fe  Fe125     1.0  0.96161  0.93273  0.62794  1.0000
  S   S250      1.0  0.95893  0.97538  0.65441  1.0000
  Fe  Fe126     1.0  0.93791  0.87846  0.62244  1.0000
  S   S251      1.0  0.90593  0.85148  0.64486  1.0000
  H   H1880     1.0  0.96211  0.70397  0.56426  1.0000
  S   S252      1.0  0.96768  0.86320  0.57070  1.0000
  H   H1881     1.0  0.68057  0.51329  0.64358  1.0000
  N   N60       1.0  0.97181  0.51233  0.93078  1.0000
  C   C1057     1.0  0.97089  0.97591  0.75056  1.0000
  H   H1882     1.0  0.72067  0.53427  0.71310  1.0000
  H   H1883     1.0  0.95453  0.97026  0.54326  1.0000
  C   C1058     1.0  0.93298  0.76541  0.65280  1.0000
  C   C1059     1.0  0.95133  0.78514  0.65195  1.0000
  C   C1060     1.0  0.94311  0.81154  0.65029  1.0000
  C   C1061     1.0  0.91644  0.81844  0.64955  1.0000
  C   C1062     1.0  0.89799  0.79874  0.65137  1.0000
  C   C1063     1.0  0.90624  0.77222  0.65273  1.0000
  H   H1884     1.0  0.97203  0.78003  0.65238  1.0000
  H   H1885     1.0  0.95749  0.82656  0.64978  1.0000
  H   H1886     1.0  0.87734  0.80402  0.65049  1.0000
  H   H1887     1.0  0.89206  0.75703  0.65276  1.0000
  C   C1064     1.0  0.92334  0.63713  0.85165  1.0000
  C   C1065     1.0  0.91794  0.63177  0.89909  1.0000
  C   C1066     1.0  0.93699  0.61954  0.92820  1.0000
  C   C1067     1.0  0.96170  0.61235  0.91014  1.0000
  C   C1068     1.0  0.96714  0.61774  0.86275  1.0000
  C   C1069     1.0  0.94818  0.63021  0.83373  1.0000
  H   H1888     1.0  0.89885  0.63705  0.91342  1.0000
  H   H1889     1.0  0.96984  0.54557  0.88361  1.0000
  H   H1890     1.0  0.98624  0.61247  0.84858  1.0000
  H   H1891     1.0  0.95274  0.63449  0.79750  1.0000
  H   H1892     1.0  0.91601  0.00136  0.54531  1.0000
  H   H1893     1.0  0.96432  0.65999  0.60176  1.0000
  C   C1070     1.0  0.81051  0.81939  0.93391  1.0000
  C   C1071     1.0  0.83779  0.81631  0.94074  1.0000
  C   C1072     1.0  0.72002  0.61765  0.73525  1.0000
  H   H1894     1.0  0.85014  0.81004  0.91169  1.0000
  C   C1073     1.0  0.74568  0.62718  0.71460  1.0000
  C   C1074     1.0  0.70417  0.86290  0.64466  1.0000
  C   C1075     1.0  0.89027  0.81978  0.51962  1.0000
  H   H1895     1.0  0.67275  0.90787  0.72951  1.0000
  H   H1896     1.0  0.79308  0.76153  0.68793  1.0000
  C   C1076     1.0  0.95758  0.53604  0.91051  1.0000
  C   C1077     1.0  0.70863  0.87013  0.59771  1.0000
  H   H1897     1.0  0.77334  0.70269  0.84383  1.0000
  H   H1898     1.0  0.96898  0.52594  0.51262  1.0000
  C   C1078     1.0  0.71669  0.55464  0.85220  1.0000
  C   C1079     1.0  0.78203  0.67478  0.56534  1.0000
  C   C1080     1.0  0.80949  0.67330  0.57009  1.0000
  H   H1899     1.0  0.97432  0.61167  0.71757  1.0000
  H   H1900     1.0  0.76987  0.67651  0.59638  1.0000
  H   H1901     1.0  0.67983  0.69493  0.75592  1.0000
  H   H1902     1.0  0.80668  0.64114  0.80014  1.0000
  H   H1903     1.0  0.95555  0.60756  0.48849  1.0000
  C   C1081     1.0  0.94336  0.97402  0.51055  1.0000
  C   C1082     1.0  0.92888  0.78726  0.51765  1.0000
  S   S253      1.0  0.99306  0.92101  0.57522  1.0000
  H   H1904     1.0  0.83655  0.75386  0.64842  1.0000
  C   C1083     1.0  0.70723  0.71485  0.85754  1.0000
  C   C1084     1.0  0.70950  0.69051  0.88048  1.0000
  H   H1905     1.0  0.71391  0.73225  0.87453  1.0000
  H   H1906     1.0  0.71826  0.68917  0.91488  1.0000
  H   H1907     1.0  0.85247  0.76528  0.70077  1.0000
  C   C1085     1.0  0.97497  0.61956  0.58995  1.0000
  H   H1908     1.0  0.79899  0.72849  0.90112  1.0000
  C   C1086     1.0  0.97751  0.59013  0.71876  1.0000
  C   C1087     1.0  0.69704  0.80048  0.56850  1.0000
  H   H1909     1.0  0.89096  0.82136  0.55835  1.0000
  H   H1910     1.0  0.80951  0.77198  0.73985  1.0000
  S   S254      1.0  0.67572  0.57810  0.94855  1.0000
  H   H1911     1.0  0.98333  0.74656  0.51264  1.0000
  H   H1912     1.0  0.84599  0.66983  0.53234  1.0000
  C   C1088     1.0  0.73531  0.72210  0.66643  1.0000
  C   C1089     1.0  0.79415  0.73275  0.80328  1.0000
  C   C1090     1.0  0.81440  0.72959  0.72555  1.0000
  H   H1913     1.0  0.92999  0.71791  0.96220  1.0000
  C   C1091     1.0  0.71394  0.55545  0.79892  1.0000
  C   C1092     1.0  0.88027  0.74353  0.95124  1.0000
  C   C1093     1.0  0.88889  0.73270  0.90248  1.0000
  H   H1914     1.0  0.71983  0.71400  0.68922  1.0000
  H   H1915     1.0  0.91496  0.77263  0.50516  1.0000
  C   C1094     1.0  0.98977  0.94700  0.94515  1.0000
  C   C1095     1.0  0.76246  0.71419  0.68486  1.0000
  C   C1096     1.0  0.86516  0.72811  0.87148  1.0000
  H   H1916     1.0  0.69885  0.54674  0.86854  1.0000
  H   H1917     1.0  0.94476  0.56663  0.52073  1.0000
  C   C1097     1.0  0.79709  0.69011  0.76114  1.0000
  H   H1918     1.0  0.73551  0.77506  0.52594  1.0000
  H   H1919     1.0  0.95504  0.55706  0.74217  1.0000
  C   C1098     1.0  0.69617  0.51101  0.67046  1.0000
  H   H1920     1.0  0.92930  0.76086  0.93344  1.0000
  H   H1921     1.0  0.93438  0.52118  0.85285  1.0000
  H   H1922     1.0  0.67284  0.56389  0.79753  1.0000
  H   H1923     1.0  0.82979  0.64496  0.75229  1.0000
  H   H1924     1.0  0.73298  0.71441  0.63036  1.0000
  H   H1925     1.0  0.90128  0.74665  0.88352  1.0000
  H   H1926     1.0  0.89988  0.71374  0.90596  1.0000
  C   C1099     1.0  0.99938  0.99714  0.52223  1.0000
  C   C1100     1.0  0.69714  0.71638  0.81207  1.0000
  H   H1927     1.0  0.71737  0.80566  0.57762  1.0000
  H   H1928     1.0  0.83908  0.68953  0.77960  1.0000
  H   H1929     1.0  0.79074  0.75417  0.79933  1.0000
  N   N61       1.0  0.79293  0.71932  0.75635  1.0000
  H   H1930     1.0  0.85242  0.71337  0.88765  1.0000
  C   C1101     1.0  0.72894  0.82521  0.48892  1.0000
  C   C1102     1.0  0.68792  0.69381  0.79087  1.0000
  H   H1931     1.0  0.90742  0.78576  0.95567  1.0000
  H   H1932     1.0  0.87189  0.72055  0.83678  1.0000
  H   H1933     1.0  0.73275  0.56208  0.78453  1.0000
  H   H1934     1.0  0.85365  0.74665  0.86600  1.0000
  C   C1103     1.0  0.70061  0.66787  0.85888  1.0000
  H   H1935     1.0  0.90365  0.98702  0.49200  1.0000
  H   H1936     1.0  0.90611  0.96800  0.54514  1.0000
  H   H1937     1.0  0.75052  0.64603  0.73111  1.0000
  C   C1104     1.0  0.71215  0.59156  0.71241  1.0000
  C   C1105     1.0  0.69261  0.79087  0.65561  1.0000
  H   H1938     1.0  0.78179  0.86854  0.88752  1.0000
  C   C1106     1.0  0.68821  0.78062  0.60612  1.0000
  C   C1107     1.0  0.70520  0.53767  0.68669  1.0000
  H   H1939     1.0  0.73368  0.54171  0.86195  1.0000
  H   H1940     1.0  0.92750  0.67030  0.97066  1.0000
  H   H1941     1.0  0.69192  0.88628  0.53375  1.0000
  H   H1942     1.0  0.70488  0.63325  0.72881  1.0000
  C   C1108     1.0  0.82467  0.65101  0.78870  1.0000
  H   H1943     1.0  0.97688  0.58277  0.68236  1.0000
  H   H1944     1.0  0.91190  0.56838  0.90816  1.0000
  H   H1945     1.0  0.97368  0.95492  0.74807  1.0000
  H   H1946     1.0  0.68731  0.83089  0.49486  1.0000
  C   C1109     1.0  0.97436  0.98866  0.79401  1.0000
  C   C1110     1.0  0.68807  0.88042  0.56952  1.0000
  H   H1947     1.0  0.72951  0.57806  0.71453  1.0000
  H   H1948     1.0  0.93010  0.83013  0.50959  1.0000
  H   H1949     1.0  0.72279  0.61540  0.77363  1.0000
  C   C1111     1.0  0.82488  0.67095  0.52946  1.0000
  H   H1950     1.0  0.74389  0.63032  0.67617  1.0000
  H   H1951     1.0  0.71058  0.53516  0.78742  1.0000
  H   H1952     1.0  0.93576  0.58636  0.72964  1.0000
  C   C1112     1.0  0.82070  0.68068  0.79146  1.0000
  H   H1953     1.0  0.76436  0.72951  0.91384  1.0000
  H   H1954     1.0  0.95472  0.58415  0.78265  1.0000
  H   H1955     1.0  0.74899  0.67484  0.51782  1.0000
  C   C1113     1.0  0.81296  0.67018  0.48489  1.0000
  H   H1956     1.0  0.75084  0.71576  0.75714  1.0000
  C   C1114     1.0  0.81091  0.75850  0.70951  1.0000
  N   N62       1.0  0.68797  0.57933  0.73232  1.0000
  H   H1957     1.0  0.84097  0.64458  0.81204  1.0000
  H   H1958     1.0  0.99095  0.56662  0.49701  1.0000
  H   H1959     1.0  0.86567  0.72991  0.96495  1.0000
  H   H1960     1.0  0.70945  0.59530  0.67417  1.0000
  H   H1961     1.0  0.75419  0.73178  0.82967  1.0000
  H   H1962     1.0  0.77712  0.72180  0.65999  1.0000
  H   H1963     1.0  0.91431  0.63252  0.48017  1.0000
  H   H1964     1.0  0.92732  0.78723  0.55664  1.0000
  H   H1965     1.0  0.97049  0.80238  0.56107  1.0000
  H   H1966     1.0  0.76122  0.74601  0.73567  1.0000
  C   C1115     1.0  0.99510  0.60183  0.57624  1.0000
  H   H1967     1.0  0.91781  0.52026  0.90916  1.0000
  C   C1116     1.0  0.96368  0.99029  0.71056  1.0000
  S   S255      1.0  0.68895  0.81849  0.77767  1.0000
  H   H1968     1.0  0.71425  0.54744  0.65607  1.0000
  H   H1969     1.0  0.71083  0.75195  0.53181  1.0000
  C   C1117     1.0  0.97487  0.79931  0.52311  1.0000
  H   H1970     1.0  0.87662  0.80429  0.50983  1.0000
  C   C1118     1.0  0.91761  0.81380  0.49960  1.0000
  H   H1971     1.0  0.81740  0.68582  0.82886  1.0000
  H   H1972     1.0  0.96527  0.79368  0.94229  1.0000
  C   C1119     1.0  0.77952  0.73562  0.88839  1.0000
  H   H1973     1.0  0.81412  0.73048  0.81838  1.0000
  H   H1974     1.0  0.73279  0.83295  0.52438  1.0000
  C   C1120     1.0  0.71629  0.76950  0.51149  1.0000
  C   C1121     1.0  0.95442  0.57869  0.74509  1.0000
  H   H1975     1.0  0.92642  0.73369  0.53463  1.0000
  H   H1976     1.0  0.83110  0.78712  0.66781  1.0000
  H   H1977     1.0  0.94285  0.68896  0.51979  1.0000
  H   H1978     1.0  0.76420  0.69253  0.68443  1.0000
  H   H1979     1.0  0.76200  0.61282  0.72153  1.0000
  H   H1980     1.0  0.67031  0.55997  0.67327  1.0000
  C   C1122     1.0  0.77009  0.67383  0.52074  1.0000
  H   H1981     1.0  0.77928  0.68103  0.77568  1.0000
  H   H1982     1.0  0.86904  0.76232  0.94548  1.0000
  H   H1983     1.0  0.73277  0.74372  0.66542  1.0000
  C   C1123     1.0  0.94469  0.73115  0.51354  1.0000
  H   H1984     1.0  0.77902  0.75731  0.88687  1.0000
  H   H1985     1.0  0.79998  0.68106  0.72591  1.0000
  C   C1124     1.0  0.76628  0.72473  0.73527  1.0000
  C   C1125     1.0  0.93105  0.53156  0.88660  1.0000
  H   H1986     1.0  0.83352  0.72787  0.74392  1.0000
  N   N63       1.0  0.83399  0.86451  0.77232  1.0000
  C   C1126     1.0  0.82272  0.85459  0.72713  1.0000
  C   C1127     1.0  0.85058  0.84313  0.79571  1.0000
  C   C1128     1.0  0.81127  0.87152  0.80466  1.0000
  C   C1129     1.0  0.84950  0.88879  0.76505  1.0000
  C   C1130     1.0  0.87135  0.88731  0.72738  1.0000
  C   C1131     1.0  0.80398  0.87380  0.70042  1.0000
  C   C1132     1.0  0.81861  0.87979  0.85524  1.0000
  C   C1133     1.0  0.86551  0.82318  0.76339  1.0000
  C   C1134     1.0  0.88421  0.80532  0.79141  1.0000
  C   C1135     1.0  0.88398  0.91373  0.72089  1.0000
  C   C1136     1.0  0.79777  0.86331  0.65173  1.0000
  C   C1137     1.0  0.79413  0.88590  0.88484  1.0000
  H   H1987     1.0  0.81162  0.83659  0.73424  1.0000
  H   H1988     1.0  0.83846  0.84848  0.70210  1.0000
  H   H1989     1.0  0.86500  0.85173  0.81989  1.0000
  H   H1990     1.0  0.83817  0.83081  0.81840  1.0000
  H   H1991     1.0  0.79796  0.85477  0.80757  1.0000
  H   H1992     1.0  0.79914  0.88802  0.79006  1.0000
  H   H1993     1.0  0.83624  0.90583  0.75662  1.0000
  H   H1994     1.0  0.85935  0.89425  0.79811  1.0000
  H   H1995     1.0  0.86362  0.88165  0.69278  1.0000
  H   H1996     1.0  0.88712  0.87328  0.73835  1.0000
  H   H1997     1.0  0.78510  0.87640  0.71963  1.0000
  H   H1998     1.0  0.81269  0.89316  0.69565  1.0000
  H   H1999     1.0  0.83023  0.89768  0.85476  1.0000
  H   H2000     1.0  0.83015  0.86413  0.87343  1.0000
  H   H2001     1.0  0.85135  0.81048  0.74582  1.0000
  H   H2002     1.0  0.87703  0.83280  0.73582  1.0000
  H   H2003     1.0  0.87334  0.79447  0.81864  1.0000
  H   H2004     1.0  0.89406  0.79096  0.76741  1.0000
  H   H2005     1.0  0.89950  0.81691  0.80838  1.0000
  H   H2006     1.0  0.86933  0.92869  0.70860  1.0000
  H   H2007     1.0  0.89275  0.92030  0.75423  1.0000
  H   H2008     1.0  0.89981  0.91188  0.69409  1.0000
  H   H2009     1.0  0.78327  0.87668  0.63427  1.0000
  H   H2010     1.0  0.81577  0.86196  0.62969  1.0000
  H   H2011     1.0  0.78921  0.84370  0.65443  1.0000
  H   H2012     1.0  0.72820  0.86816  0.58328  1.0000
  C   C1138     1.0  0.97839  0.92034  0.95492  1.0000
  H   H2013     1.0  0.81711  0.71737  0.69356  1.0000
  H   H2014     1.0  0.97962  0.97717  0.82458  1.0000
  C   C1139     1.0  0.96349  0.75351  0.52439  1.0000
  S   S256      1.0  0.69653  0.74563  0.77941  1.0000
  H   H2015     1.0  0.78239  0.90236  0.86932  1.0000
  H   H2016     1.0  0.95437  0.55123  0.93793  1.0000
  C   C1140     1.0  0.69056  0.57353  0.78409  1.0000
  H   H2017     1.0  0.99435  0.90517  0.95693  1.0000
  C   C1141     1.0  0.68179  0.55486  0.70535  1.0000
  C   C1142     1.0  0.91358  0.61114  0.48636  1.0000
  H   H2018     1.0  0.79995  0.89143  0.92086  1.0000
  C   C1143     1.0  0.95626  0.79967  0.97631  1.0000
  H   H2019     1.0  0.69940  0.76180  0.60309  1.0000
  H   H2020     1.0  0.71346  0.79558  0.66075  1.0000
  H   H2021     1.0  0.93242  0.61543  0.96450  1.0000
  H   H2022     1.0  0.97172  0.81886  0.50707  1.0000
  C   C1144     1.0  0.91686  0.55758  0.87536  1.0000
  H   H2023     1.0  0.67494  0.86030  0.69888  1.0000
  H   H2024     1.0  0.92922  0.56996  0.85286  1.0000
  H   H2025     1.0  0.94197  0.95514  0.49176  1.0000
  H   H2026     1.0  0.91025  0.60785  0.52439  1.0000
  H   H2027     1.0  0.68244  0.65239  0.79768  1.0000
  C   C1145     1.0  0.67877  0.86586  0.66296  1.0000
  H   H2028     1.0  0.71992  0.57450  0.86628  1.0000
  H   H2029     1.0  0.88258  0.83873  0.50544  1.0000
  H   H2030     1.0  0.94272  0.81681  0.97074  1.0000
  H   H2031     1.0  0.68763  0.77568  0.68164  1.0000
  H   H2032     1.0  0.89838  0.55400  0.85647  1.0000
  C   C1146     1.0  0.78551  0.67156  0.48010  1.0000
  H   H2033     1.0  0.00120  0.97908  0.54405  1.0000
  H   H2034     1.0  0.91991  0.51921  0.49114  1.0000
  Fe  Fe127     1.0  0.99645  0.88352  0.61571  1.0000
  C   C1147     1.0  0.91557  0.98328  0.52391  1.0000
  C   C1148     1.0  0.79496  0.82774  0.97194  1.0000
  H   H2035     1.0  0.98700  0.94983  0.48947  1.0000
  H   H2036     1.0  0.68522  0.81896  0.57347  1.0000
  N   N64       1.0  0.95657  0.77983  0.50278  1.0000
  H   H2037     1.0  0.68008  0.80863  0.66228  1.0000
  H   H2038     1.0  0.99881  0.72137  0.61661  1.0000
  H   H2039     1.0  0.99141  0.58120  0.57532  1.0000
  H   H2040     1.0  0.77401  0.83026  0.96757  1.0000
  C   C1149     1.0  0.95700  0.70449  0.52648  1.0000
  H   H2041     1.0  0.97330  0.96083  0.93750  1.0000
  H   H2042     1.0  0.00174  0.94508  0.91267  1.0000
  H   H2043     1.0  0.96513  0.91509  0.92595  1.0000
  H   H2044     1.0  0.97493  0.70022  0.50529  1.0000
  C   C1150     1.0  0.70107  0.81420  0.48648  1.0000
  H   H2045     1.0  0.99870  0.66320  0.68476  1.0000
  Fe  Fe128     1.0  0.67057  0.61610  0.90971  1.0000
  C   C1151     1.0  0.94035  0.56820  0.48251  1.0000
  H   H2046     1.0  0.74427  0.81009  0.48051  1.0000
  C   C1152     1.0  0.99648  0.52151  0.95382  1.0000
  H   H2047     1.0  0.98515  0.50353  0.86016  1.0000
  H   H2048     1.0  0.99183  0.53812  0.97796  1.0000
