data_image0
_chemical_formula_structural       FeH2SHC2H2CFeS2FeS2FeSFeS3CH2CSCHCSCH2C4H2NC6H4C4HCH3CHCH4CH2CH5CH2FeCHCH2CNH3CHCH5SCH2CH2SHCSH4CH5CH5C3NCH5CH7CHC2H2CHCH2C2HC2H2C3H3CNH2CHCSH4CFeCHC2H3FeH3CHFeH3CSFeS2FeHFeCS2FeSHFeSFeH3CH2CH2C3HCH3C9H4CSCHSCH2CH8CH3C2HCH2C2H3CH2CH3CHCH6C2HC2SNHC2HCHNH9SCH2CHCH3SCHCHC2HSCH7SH3CH4C2H4CHFeCNSFeSHFeSFeS2CH2SCHCS3FeSH2CHSC2HFeSHFeS2FeSH2S3H4SC6H4C3H2CFeH4FeHC7H9CH2C4H2C6H2C3H4SH2C6HCNC12H28CH6FeNC11H22NHC2H3C6H3CHCHC3NH7CHFeHFeCFeHNHC2HCHCH3CH5C3H2C3HCHCH3CH3SCH7SCH2CH4CHCHNH3NCH2C3HCHCHCHC2H3C2H3CH6C2H11CHCHC3H3C2HC2H3NC2H3CH5C2NH6CH3SCHC2H5CS2H2CH2CHSH2C2HS2HFeH6CSHCH3C6H8CH6CHCHSH2SHC2H2CH3CHSH2CH2CH2CHCH5CH5CH2CHCH3CH6FeCSHSH2FeHS2HNC3SCSCHSHFeSFeCSHFe2S2FeSFeS3FeS3FeS2C2H2FeC5HCH2C6H4CH3C6HCH2C8HC6H6CH4C2H3SH7C6H4S3CFeC5H5CH5NC12H28C2H2NCHC4H3C2H4C2NH21CH2FeH2FeH2C2HNCSCSH8CHC2H2NH2CH4CHCH2CHC3H7CH4CH2CHCHC2H8CSHCNHSHCSH3C2H3CH2CH2CH3SFeHCSHCHSC2H9CH5CH2SH5SHC2H3C2HC3H4CH2CNHC2H2CFeNHCHC4H2CH2CH2CH4CH2SHSH4CH5C2HC2HCH8FeCH6C3H3CH5CH4CH4CHC2H4FeC2HCHFeS2CFeS2FeS2HCSH4CH4C6H4C6H5C3H5SH3SH3CNH4FeCH2CH4FeH3CH5CH5C2H2NC4H2C2NHCH3C2H7CH2C3SHC2HC2H2CSHCFeSCS2H2SH5CHCH3C6H4CHCH3C2H3CHCHC3H8CHC3H13FeH5CNH8CHCH4NHC5H4CH4CHCH3CHC2HCHSH4C2NCHC2HSH2FeCHCHSC2HCH2SH8CHCHSH3FeSH2CHFeS2H4SC2SC2SHCHFeS2FeHFeHS2H2SFeSFeS2Fe2S2FeS2FeSFeS3HCSCH2C6H4C6H4C4H3CH3CH3C6H4CHCSFe2HCH2C2HC2HCHC2H4SCH2C6H4NC6HCHCH8CHCH10CH3NC7HCH20CFeH3CH3CH7CNH3SH2CHCH2C2H2CH9CH5CH6SC2HC6H3CH3SC5H9CNSC3HCHCH5C2HFeCHSC2H2CH3SHCH2CSCH3CH2CSCSCHCHCHC2H6CH2CH3CHCH3C2H3CHCHFeSCHCHC2H2SHCH2C3H3NCHCH3CH2CH3NHCHCH6FeSCH4CHC3HCHNH3FeHC2H3CHCHFeC2H9C2H4NCH2CH2CH4CHC2H4SHC2H6FeH4CH2CH3SC2H2C2HC2HSH2FeSCFeS2CSCHSHC2H3SCFeS2FeS2Fe2S3FeHCHFe2CHSH3SCH6SNHCHSC3HSC3FeCH4CH2CH3C6H2CHC6S2HSC6H4C6H4C4H3CH3CH2CFeHC3HCHC3H2C8HCSCH2C3H2C2H2C2HCH3CH6NC10HCH22C2H4C2H2CH2FeH9NC9HC2H21FeH4SH2CH4C3H2C2H2C2SH7NSH5CH4SCHNC4HC3HSC2H15CH9CHCH4FeSH4SH4SH3SCHC2NHNCH3C2H5CHCH2NC3H2NSCHCH3SH7SC3HC2HC2H3CH3CH6SCHC2H4CFeH2FeCH2C2HCHCH3C3HC2HCH6FeH3CH4CH2FeHCHCH2CHCHCH3CFeCHSNHSHCHFeS2FeS2FeCFeS3HCHCHCH4C3HCH4C6H4C6H2CHSHCSH2CH4CH2CH4CH2CH5CH3C3H7FeH2CFeC2HFeCHCHC2HCH3CSHC3HSHC2H2NHCH3NCHCH7CH6SCH4C2SH2C2HNCH2FeHCH2CH3CH3SFeS2FeHFeSCSFeS2CHFeHNC5SC3HC2H6C6H8CH2CH2CH4CHC3H3SH2C2H3CHCSCH2CHC3H4C2HC3H11CH4CH2CH3CH3CHCNH2C3H3CNH4CH4CH2SH3CHCFe2H2CHC3H8SHCH3CH4SCHCH2CH2CHCH4CH2FeS2FeSFeS2HCH2CFeS4FeS2HCHSHCHFeSCFeHCFeSH4SNH2CHC6H7NC3H2C2H2C7H8C2H3CH3C2H2C3HC4HC4H2C6HFeH3SH4NC3H2CSH2CH4CH4C2H2C8H17C3HCH5SHNC8HC3SHCFeNH13CH3NCHC2H2CH2NHC3HC3H2SC2H9CH5C2HSH4CH3NC2HC3HCH2SCH10CHCH3C4H2SH5C3SNCSC5H2C2H3C2H9C3HFeCH6CH7CHCHCHCHSHFeCHS2H2C2H3C2HCH3CH4CH3CH6SCH2CH3SH2CH5C2H3CH2C2H3NH4CHFeHCH5SH2C2H3C3H8CH3CH4CHCHSCHC3HCH3SH3CH3CHCH3CHCH3SH4FeHSHS2CFeS3H4FeSHS2CHCFeHFeCSHSFeS2FeSFeS3FeS3FeS2C2H2FeHC3H2CH2C6H4CNHC7H3C7HCHC6H5SH2C2SH9FeC2FeC6H4S3CFeH2CH4C2HCHCNH2CHCH3CSH9SH3NCNH8C5FeH7CH3CH2CH3C3H2SCH4C2H2CH3CNC12H28NC8SC3H16CH11CH3C2H5SHC2HFe2CH2CH3FeCH6C2SHC2HCH3C3HCH2CH2CHNHCH2SH3CHC2H3CHC2HC2H3SHC2H2CHCH4C4H4NHC2H2SHCHCH2CH4FeHCHNH11CH4CH4CH3C2H3CH5CH2SHCHCNH5C3H2CHSHFeCHSFeS2FeS2H2SH9C7H3C7H2CHCHCHFeH5CHFeCHSH7CH5CH8CHFeHCHCNCH2SHCH2CSCH2CSCH7CHCH3CSCHSH2CHCHCSFeSHS3CSH6C2H2C7H5FeH3CH8SH10CHCS2HCH3CHCHC2HCHCH2CH4CH3CH2C2HFeHCH3NSCH2CHSH2CFeS2H2FeSC2H4SCH2FeS2FeCFeS3C2HFeSFeS3FeCSFeS2FeSFeHS2CHFeHCHC6H4C6H3NHCSHC3NH2C3H2C6H4CH2C3H2CH3CH6SNH4CHC7H4NC12H26SHNHC6H2C5H7CH4CH9CH3NC7HCH19FeHCH2NCH2C3HCFeHCH3CH16C2H10C3HSH2CH2C2SHCH3CH2CH4SHCH3NCH2C2HC2H2CH4CHC2H3SCH3SH2C2H3C2FeH2CHC2HCHC2H3CH2C2H3CH3CH3CH4CHCHCHCH3FeH4C2HCHCHCH8CSH5CHC2H3NSHCHCH2CHCFeHSH2CH2CHCH3FeH5CH2SC2HC2H4CHSHC2SHC2H2CHCHC2H2C5H3CHCH3CHC3H2FeS3FeSCFeS2H2SH3CHFeH4FeS2FeS2Fe2S3FeSHSHFeCHSHCHSH2CH5SH2NSFeH2SH2CH3FeHCH2C2SH3C6H3C7H2C8H4C5H3CHC5H3FeHCH6CSH3C3H3C8HCHNC12H25FeH4NC5H2CH10CH4C3H8CHC2H5NHCHC7H3CH8CH4CH2C3HNHCHCHC4H8SHCH3SH3C2H2NSC2H2CHSCHCHCHCH3CSHCHFeHC3H2CH5C2H2CHCH2NC3H2C3SH3C2HCH3NHCH2CH2C2HC2HC3H7CH4C3H2SH8CH4CH3CH5FeH3SH2CFe2HCHCSC3SCHNHCH3C2HC2H2C2H2C3H3SFeHCH2SCH2CH4SH3NH6C2FeCHCHCH4FeH3CH2CH6FeH3C2HCH2
_chemical_formula_sum              "Fe192 H3072 S384 C1728 N96"
_cell_length_a       47.8532
_cell_length_b       48.0984
_cell_length_c       46.0918
_cell_angle_alpha    85.7061
_cell_angle_beta     87.9137
_cell_angle_gamma    86.2636

_space_group_name_H-M_alt    "P 1"
_space_group_IT_number       1

loop_
  _space_group_symop_operation_xyz
  'x, y, z'

loop_
  _atom_site_type_symbol
  _atom_site_label
  _atom_site_symmetry_multiplicity
  _atom_site_fract_x
  _atom_site_fract_y
  _atom_site_fract_z
  _atom_site_occupancy
  Fe  Fe1       1.0  0.20735  0.45162  0.44973  1.0000
  H   H1        1.0  0.06966  0.20203  0.03559  1.0000
  H   H2        1.0  0.07413  0.11194  0.98755  1.0000
  S   S1        1.0  0.19337  0.44547  0.05153  1.0000
  H   H3        1.0  0.02765  0.12107  0.01483  1.0000
  C   C1        1.0  0.16564  0.33653  0.45607  1.0000
  C   C2        1.0  0.08573  0.30718  0.29760  1.0000
  H   H4        1.0  0.03331  0.27561  0.20868  1.0000
  H   H5        1.0  0.18525  0.47098  0.31101  1.0000
  C   C3        1.0  0.05924  0.46691  0.07131  1.0000
  Fe  Fe2       1.0  0.03769  0.35280  0.39315  1.0000
  S   S2        1.0  0.08235  0.36725  0.38668  1.0000
  S   S3        1.0  0.03273  0.31080  0.37620  1.0000
  Fe  Fe3       1.0  0.04493  0.36737  0.06590  1.0000
  S   S4        1.0  0.05732  0.32738  0.09239  1.0000
  S   S5        1.0  0.07321  0.39613  0.03718  1.0000
  Fe  Fe4       1.0  0.02088  0.30904  0.07187  1.0000
  S   S6        1.0  0.01893  0.26359  0.05845  1.0000
  Fe  Fe5       1.0  0.02609  0.34294  0.12688  1.0000
  S   S7        1.0  0.03898  0.34409  0.17482  1.0000
  S   S8        1.0  0.01008  0.34813  0.04353  1.0000
  S   S9        1.0  0.01564  0.38388  0.10104  1.0000
  C   C4        1.0  0.07741  0.40650  0.14753  1.0000
  H   H6        1.0  0.07353  0.46307  0.14382  1.0000
  H   H7        1.0  0.00032  0.25714  0.30403  1.0000
  C   C5        1.0  0.01828  0.24492  0.02616  1.0000
  S   S10       1.0  0.20902  0.04392  0.97772  1.0000
  C   C6        1.0  0.01148  0.20070  0.00421  1.0000
  H   H8        1.0  0.24128  0.41132  0.36538  1.0000
  C   C7        1.0  0.08044  0.28646  0.44070  1.0000
  S   S11       1.0  0.16798  0.42745  0.46049  1.0000
  C   C8        1.0  0.02304  0.25829  0.22138  1.0000
  H   H9        1.0  0.06779  0.34243  0.32102  1.0000
  H   H10       1.0  0.03954  0.47087  0.46019  1.0000
  C   C9        1.0  0.02228  0.34037  0.21032  1.0000
  C   C10       1.0  0.03630  0.34834  0.23450  1.0000
  C   C11       1.0  0.02480  0.34453  0.26317  1.0000
  C   C12       1.0  0.02672  0.24033  0.97402  1.0000
  H   H11       1.0  0.09685  0.32304  0.33859  1.0000
  H   H12       1.0  0.04581  0.11342  0.04844  1.0000
  N   N1        1.0  0.09617  0.29725  0.46488  1.0000
  C   C13       1.0  0.16034  0.43140  0.04628  1.0000
  C   C14       1.0  0.15018  0.41148  0.06740  1.0000
  C   C15       1.0  0.12399  0.40003  0.06472  1.0000
  C   C16       1.0  0.10725  0.40865  0.04103  1.0000
  C   C17       1.0  0.11735  0.42865  0.01994  1.0000
  C   C18       1.0  0.14369  0.43989  0.02247  1.0000
  H   H13       1.0  0.16279  0.40471  0.08593  1.0000
  H   H14       1.0  0.11675  0.38457  0.08105  1.0000
  H   H15       1.0  0.10468  0.43553  0.00150  1.0000
  H   H16       1.0  0.15104  0.45524  0.00612  1.0000
  C   C19       1.0  0.10487  0.38564  0.40722  1.0000
  C   C20       1.0  0.12976  0.39505  0.39377  1.0000
  C   C21       1.0  0.14905  0.40853  0.40945  1.0000
  C   C22       1.0  0.14384  0.41229  0.43898  1.0000
  H   H17       1.0  0.02136  0.47518  0.02605  1.0000
  C   C23       1.0  0.09936  0.39004  0.43658  1.0000
  H   H18       1.0  0.13427  0.39171  0.37107  1.0000
  H   H19       1.0  0.16820  0.41546  0.39889  1.0000
  H   H20       1.0  0.07904  0.31651  0.27605  1.0000
  C   C24       1.0  0.09586  0.23641  0.02815  1.0000
  H   H21       1.0  0.06212  0.27532  0.44941  1.0000
  C   C25       1.0  0.08843  0.33111  0.31721  1.0000
  H   H22       1.0  0.08279  0.24865  0.01170  1.0000
  H   H23       1.0  0.00203  0.26612  0.22939  1.0000
  H   H24       1.0  0.11933  0.47019  0.13537  1.0000
  H   H25       1.0  0.09232  0.45396  0.42364  1.0000
  C   C26       1.0  0.07475  0.15107  0.00978  1.0000
  H   H26       1.0  0.05884  0.28513  0.25362  1.0000
  H   H27       1.0  0.04460  0.08691  0.02287  1.0000
  C   C27       1.0  0.08023  0.24733  0.40600  1.0000
  H   H28       1.0  0.07061  0.28039  0.33386  1.0000
  H   H29       1.0  0.05546  0.16076  0.99940  1.0000
  H   H30       1.0  0.05263  0.45570  0.01370  1.0000
  H   H31       1.0  0.12882  0.10940  0.99640  1.0000
  H   H32       1.0  0.04054  0.22165  0.30456  1.0000
  C   C28       1.0  0.09653  0.19490  0.99685  1.0000
  H   H33       1.0  0.10384  0.25034  0.30704  1.0000
  H   H34       1.0  0.09922  0.25700  0.26895  1.0000
  Fe  Fe6       1.0  0.22769  0.47176  0.02867  1.0000
  C   C29       1.0  0.02581  0.25663  0.99845  1.0000
  H   H35       1.0  0.09356  0.23459  0.39113  1.0000
  C   C30       1.0  0.06777  0.45503  0.12296  1.0000
  H   H36       1.0  0.05068  0.42259  0.42024  1.0000
  H   H37       1.0  0.07294  0.15578  0.03304  1.0000
  C   C31       1.0  0.99883  0.23214  0.34450  1.0000
  N   N2        1.0  0.10020  0.16358  0.99504  1.0000
  H   H38       1.0  0.04514  0.45118  0.12578  1.0000
  H   H39       1.0  0.03716  0.46168  0.07629  1.0000
  H   H40       1.0  0.17850  0.98501  0.44833  1.0000
  C   C32       1.0  0.12090  0.20483  0.27559  1.0000
  H   H41       1.0  0.08025  0.38320  0.44718  1.0000
  C   C33       1.0  0.04616  0.10963  0.02495  1.0000
  H   H42       1.0  0.07864  0.20377  0.98352  1.0000
  H   H43       1.0  0.04405  0.29916  0.31277  1.0000
  H   H44       1.0  0.07000  0.44711  0.06495  1.0000
  H   H45       1.0  0.10595  0.19385  0.04365  1.0000
  H   H46       1.0  0.11293  0.46031  0.08144  1.0000
  S   S12       1.0  0.23890  0.45043  0.41244  1.0000
  C   C34       1.0  0.04377  0.47664  0.01928  1.0000
  H   H47       1.0  0.07015  0.23299  0.42268  1.0000
  H   H48       1.0  0.06364  0.25918  0.39320  1.0000
  C   C35       1.0  0.09155  0.20522  0.02787  1.0000
  H   H49       1.0  0.07560  0.41571  0.10158  1.0000
  H   H50       1.0  0.05457  0.40400  0.15094  1.0000
  S   S13       1.0  0.00235  0.37340  0.36670  1.0000
  H   H51       1.0  0.08849  0.20407  0.30897  1.0000
  C   C36       1.0  0.01992  0.21212  0.97666  1.0000
  S   S14       1.0  0.01045  0.34366  0.43320  1.0000
  H   H52       1.0  0.08566  0.41482  0.16713  1.0000
  H   H53       1.0  0.01393  0.27246  0.33466  1.0000
  H   H54       1.0  0.15690  0.10826  0.04096  1.0000
  H   H55       1.0  0.01054  0.22821  0.36495  1.0000
  C   C37       1.0  0.06429  0.28653  0.31111  1.0000
  H   H56       1.0  0.10296  0.34623  0.30677  1.0000
  H   H57       1.0  0.00486  0.20754  0.04988  1.0000
  H   H58       1.0  0.10885  0.28023  0.40309  1.0000
  H   H59       1.0  0.05468  0.23530  0.33511  1.0000
  H   H60       1.0  0.02358  0.45042  0.41701  1.0000
  C   C38       1.0  0.04642  0.26989  0.26704  1.0000
  H   H61       1.0  0.06524  0.44242  0.46688  1.0000
  H   H62       1.0  0.11463  0.25428  0.43262  1.0000
  H   H63       1.0  0.12882  0.46956  0.39900  1.0000
  H   H64       1.0  0.08786  0.38550  0.14478  1.0000
  H   H65       1.0  0.10696  0.29689  0.29477  1.0000
  C   C39       1.0  0.08309  0.42584  0.12042  1.0000
  C   C40       1.0  0.07336  0.11901  0.00995  1.0000
  C   C41       1.0  0.09185  0.21479  0.28701  1.0000
  N   N3        1.0  0.06077  0.26072  0.29506  1.0000
  C   C42       1.0  0.10322  0.47935  0.09101  1.0000
  H   H66       1.0  0.10609  0.42722  0.11793  1.0000
  H   H67       1.0  0.13574  0.29644  0.44033  1.0000
  H   H68       1.0  0.03180  0.27799  0.99595  1.0000
  H   H69       1.0  0.09066  0.10822  0.02256  1.0000
  H   H70       1.0  0.21611  0.01638  0.43472  1.0000
  C   C43       1.0  0.16592  0.11508  0.01924  1.0000
  H   H71       1.0  0.07621  0.20773  0.27257  1.0000
  H   H72       1.0  0.02614  0.28146  0.27165  1.0000
  H   H73       1.0  0.03584  0.35096  0.28130  1.0000
  H   H74       1.0  0.07121  0.30427  0.42652  1.0000
  H   H75       1.0  0.12207  0.14838  0.03398  1.0000
  H   H76       1.0  0.12220  0.18173  0.27507  1.0000
  H   H77       1.0  0.19289  0.03104  0.46221  1.0000
  C   C44       1.0  0.09819  0.26715  0.42051  1.0000
  H   H78       1.0  0.08960  0.24369  0.04992  1.0000
  C   C45       1.0  0.01086  0.21691  0.02869  1.0000
  C   C46       1.0  0.04339  0.24144  0.31464  1.0000
  H   H79       1.0  0.05628  0.35756  0.23101  1.0000
  H   H80       1.0  0.00582  0.17923  0.00677  1.0000
  C   C47       1.0  0.11884  0.40310  0.45238  1.0000
  H   H81       1.0  0.18890  0.47912  0.25199  1.0000
  C   C48       1.0  0.19586  0.98546  0.46353  1.0000
  H   H82       1.0  0.07168  0.33662  0.46322  1.0000
  H   H83       1.0  0.02975  0.22959  0.25861  1.0000
  C   C49       1.0  0.15565  0.02308  0.97613  1.0000
  C   C50       1.0  0.12670  0.15280  0.01028  1.0000
  H   H84       1.0  0.11821  0.24053  0.02352  1.0000
  C   C51       1.0  0.01346  0.25299  0.32342  1.0000
  C   C52       1.0  0.12096  0.31171  0.45091  1.0000
  H   H85       1.0  0.16082  0.34976  0.43584  1.0000
  H   H86       1.0  0.16044  0.46590  0.10210  1.0000
  C   C53       1.0  0.05438  0.45588  0.44956  1.0000
  C   C54       1.0  0.03700  0.43739  0.43259  1.0000
  C   C55       1.0  0.08959  0.24697  0.28918  1.0000
  H   H87       1.0  0.13739  0.21069  0.28995  1.0000
  H   H88       1.0  0.17959  0.31821  0.45051  1.0000
  H   H89       1.0  0.99693  0.21211  0.33443  1.0000
  C   C56       1.0  0.99934  0.33196  0.26834  1.0000
  N   N4        1.0  0.07242  0.47637  0.09779  1.0000
  H   H90       1.0  0.15277  0.13153  0.97719  1.0000
  H   H91       1.0  0.11389  0.32729  0.43307  1.0000
  C   C57       1.0  0.04095  0.24671  0.24686  1.0000
  H   H92       1.0  0.12488  0.21411  0.25313  1.0000
  C   C58       1.0  0.07632  0.47067  0.42928  1.0000
  S   S15       1.0  0.00943  0.25775  0.43791  1.0000
  H   H93       1.0  0.02131  0.19968  0.45649  1.0000
  H   H94       1.0  0.06111  0.23824  0.23740  1.0000
  H   H95       1.0  0.02319  0.42513  0.44786  1.0000
  H   H96       1.0  0.02022  0.24155  0.20660  1.0000
  C   C59       1.0  0.17268  0.04540  0.96915  1.0000
  Fe  Fe7       1.0  0.00343  0.30241  0.41501  1.0000
  C   C60       1.0  0.20864  0.01373  0.45781  1.0000
  H   H97       1.0  0.18111  0.13118  0.02169  1.0000
  C   C61       1.0  0.99635  0.32864  0.21539  1.0000
  C   C62       1.0  0.12658  0.02614  0.97097  1.0000
  H   H98       1.0  0.11362  0.00890  0.97703  1.0000
  H   H99       1.0  0.14227  0.16913  0.00913  1.0000
  H   H100      1.0  0.11529  0.20512  0.98728  1.0000
  Fe  Fe8       1.0  0.99611  0.33098  0.35162  1.0000
  H   H101      1.0  0.11931  0.46426  0.46344  1.0000
  H   H102      1.0  0.16476  0.00371  0.98617  1.0000
  H   H103      1.0  0.06654  0.47786  0.40824  1.0000
  C   C63       1.0  0.14272  0.12645  0.99883  1.0000
  H   H104      1.0  0.17740  0.09669  0.01011  1.0000
  Fe  Fe9       1.0  0.24169  0.00750  0.98895  1.0000
  H   H105      1.0  0.22875  0.48095  0.28033  1.0000
  H   H106      1.0  0.14820  0.48094  0.42812  1.0000
  H   H107      1.0  0.10698  0.06837  0.83213  1.0000
  C   C64       1.0  0.04621  0.21626  0.64734  1.0000
  S   S16       1.0  0.20356  0.04476  0.53154  1.0000
  Fe  Fe10      1.0  0.05171  0.09149  0.60445  1.0000
  S   S17       1.0  0.04321  0.13340  0.62305  1.0000
  S   S18       1.0  0.09343  0.06597  0.61118  1.0000
  Fe  Fe11      1.0  0.01462  0.14415  0.58501  1.0000
  H   H108      1.0  0.00418  0.29233  0.61862  1.0000
  Fe  Fe12      1.0  0.00660  0.11468  0.64751  1.0000
  C   C65       1.0  0.01824  0.20169  0.64979  1.0000
  S   S19       1.0  0.02576  0.10312  0.56481  1.0000
  S   S20       1.0  0.01617  0.07238  0.63062  1.0000
  Fe  Fe13      1.0  0.04541  0.08739  0.93232  1.0000
  S   S21       1.0  0.05635  0.12669  0.90631  1.0000
  H   H109      1.0  0.05512  0.99950  0.93655  1.0000
  Fe  Fe14      1.0  0.01918  0.14759  0.92993  1.0000
  S   S22       1.0  0.02390  0.19204  0.94520  1.0000
  Fe  Fe15      1.0  0.02616  0.11541  0.87279  1.0000
  H   H110      1.0  0.11853  0.99286  0.67006  1.0000
  H   H111      1.0  0.22883  0.10327  0.53100  1.0000
  H   H112      1.0  0.12688  0.34628  0.47841  1.0000
  C   C66       1.0  0.19744  0.11074  0.57861  1.0000
  H   H113      1.0  0.16983  0.99889  0.49944  1.0000
  H   H114      1.0  0.10913  0.15975  0.90293  1.0000
  C   C67       1.0  0.12784  0.06416  0.87211  1.0000
  H   H115      1.0  0.09271  0.24260  0.53912  1.0000
  H   H116      1.0  0.14335  0.00990  0.87899  1.0000
  C   C68       1.0  0.13375  0.99560  0.86511  1.0000
  C   C69       1.0  0.12870  0.16054  0.91500  1.0000
  C   C70       1.0  0.06535  0.03334  0.83710  1.0000
  H   H117      1.0  0.12210  0.09270  0.94074  1.0000
  C   C71       1.0  0.00435  0.23743  0.52672  1.0000
  H   H118      1.0  0.08729  0.03104  0.79414  1.0000
  H   H119      1.0  0.07430  0.06573  0.80204  1.0000
  H   H120      1.0  0.10903  0.28300  0.50832  1.0000
  C   C72       1.0  0.09672  0.23051  0.51961  1.0000
  C   C73       1.0  0.11292  0.01118  0.84334  1.0000
  C   C74       1.0  0.08848  0.24836  0.49206  1.0000
  C   C75       1.0  0.17272  0.04967  0.55357  1.0000
  C   C76       1.0  0.17065  0.03766  0.58208  1.0000
  C   C77       1.0  0.14617  0.04286  0.59926  1.0000
  C   C78       1.0  0.12346  0.05999  0.58817  1.0000
  C   C79       1.0  0.12543  0.07177  0.55954  1.0000
  C   C80       1.0  0.14997  0.06661  0.54235  1.0000
  H   H121      1.0  0.18803  0.02467  0.59103  1.0000
  H   H122      1.0  0.14485  0.03369  0.62139  1.0000
  H   H123      1.0  0.10811  0.08495  0.55074  1.0000
  H   H124      1.0  0.15138  0.07601  0.52033  1.0000
  C   C81       1.0  0.03371  0.33345  0.50853  1.0000
  S   S23       1.0  0.07698  0.05433  0.95370  1.0000
  C   C82       1.0  0.06570  0.99583  0.89053  1.0000
  H   H125      1.0  0.03625  0.20754  0.74559  1.0000
  S   S24       1.0  0.01181  0.19013  0.56483  1.0000
  C   C83       1.0  0.99552  0.29595  0.64082  1.0000
  H   H126      1.0  0.17314  0.08776  0.95035  1.0000
  H   H127      1.0  0.03326  0.24955  0.95294  1.0000
  C   C84       1.0  0.00764  0.19087  0.71637  1.0000
  H   H128      1.0  0.01962  0.23138  0.69948  1.0000
  H   H129      1.0  0.09971  0.02060  0.90120  1.0000
  H   H130      1.0  0.14646  0.05380  0.86142  1.0000
  H   H131      1.0  0.18649  0.12371  0.59499  1.0000
  H   H132      1.0  0.11403  0.19579  0.93845  1.0000
  H   H133      1.0  0.05518  0.29334  0.51286  1.0000
  H   H134      1.0  0.04677  0.04871  0.76450  1.0000
  H   H135      1.0  0.11571  0.10635  0.88400  1.0000
  C   C85       1.0  0.06978  0.04336  0.80450  1.0000
  H   H136      1.0  0.23791  0.11527  0.59457  1.0000
  H   H137      1.0  0.15265  0.99537  0.54353  1.0000
  H   H138      1.0  0.12578  0.05544  0.89490  1.0000
  C   C86       1.0  0.01098  0.20832  0.52918  1.0000
  C   C87       1.0  0.00655  0.11835  0.73110  1.0000
  H   H139      1.0  0.03823  0.01839  0.78775  1.0000
  C   C88       1.0  0.02753  0.11628  0.78887  1.0000
  H   H140      1.0  0.07402  0.17854  0.64699  1.0000
  H   H141      1.0  0.12734  0.98583  0.59016  1.0000
  C   C89       1.0  0.00130  0.27000  0.66148  1.0000
  C   C90       1.0  0.10648  0.27427  0.48692  1.0000
  H   H142      1.0  0.04852  0.04754  0.84642  1.0000
  H   H143      1.0  0.14352  0.17306  0.90126  1.0000
  H   H144      1.0  0.15275  0.09694  0.88515  1.0000
  C   C91       1.0  0.11406  0.05138  0.95853  1.0000
  H   H145      1.0  0.20318  0.98389  0.50964  1.0000
  H   H146      1.0  0.02228  0.17269  0.50473  1.0000
  C   C92       1.0  0.08178  0.02295  0.88646  1.0000
  H   H147      1.0  0.05348  0.22080  0.66892  1.0000
  H   H148      1.0  0.14255  0.17495  0.95485  1.0000
  H   H149      1.0  0.07990  0.16372  0.95384  1.0000
  C   C93       1.0  0.03541  0.11475  0.73568  1.0000
  H   H150      1.0  0.14198  0.98668  0.69992  1.0000
  C   C94       1.0  0.04338  0.04059  0.78749  1.0000
  H   H151      1.0  0.13842  0.13907  0.91907  1.0000
  H   H152      1.0  0.12539  0.02198  0.82551  1.0000
  H   H153      1.0  0.08387  0.21197  0.52218  1.0000
  H   H154      1.0  0.13651  0.10480  0.85050  1.0000
  H   H155      1.0  0.19745  0.08854  0.58714  1.0000
  H   H156      1.0  0.02069  0.17605  0.75970  1.0000
  C   C95       1.0  0.00134  0.21868  0.69775  1.0000
  C   C96       1.0  0.12251  0.17398  0.94372  1.0000
  H   H157      1.0  0.01358  0.32614  0.51806  1.0000
  C   C97       1.0  0.04573  0.11389  0.76423  1.0000
  C   C98       1.0  0.01654  0.21043  0.47602  1.0000
  S   S25       1.0  0.01721  0.07477  0.89787  1.0000
  N   N5        1.0  0.99443  0.21616  0.66635  1.0000
  H   H158      1.0  0.14439  0.31354  0.49115  1.0000
  C   C99       1.0  0.10140  0.06063  0.85475  1.0000
  C   C100      1.0  0.16022  0.07042  0.95610  1.0000
  H   H159      1.0  0.06783  0.03982  0.89545  1.0000
  C   C101      1.0  0.05035  0.30925  0.49481  1.0000
  H   H160      1.0  0.04982  0.11292  0.71720  1.0000
  N   N6        1.0  0.09099  0.03158  0.85560  1.0000
  H   H161      1.0  0.06580  0.25402  0.49411  1.0000
  H   H162      1.0  0.06809  0.11136  0.76722  1.0000
  H   H163      1.0  0.12789  0.26580  0.48060  1.0000
  H   H164      1.0  0.99944  0.24813  0.54625  1.0000
  H   H165      1.0  0.01239  0.19954  0.62700  1.0000
  H   H166      1.0  0.08893  0.20959  0.63065  1.0000
  H   H167      1.0  0.04568  0.34123  0.52614  1.0000
  H   H168      1.0  0.09151  0.23489  0.47355  1.0000
  H   H169      1.0  0.00569  0.31393  0.64877  1.0000
  S   S26       1.0  0.04213  0.11497  0.82452  1.0000
  C   C102      1.0  0.00339  0.25281  0.49925  1.0000
  H   H170      1.0  0.02535  0.05303  0.79694  1.0000
  H   H171      1.0  0.99746  0.27492  0.49799  1.0000
  C   C103      1.0  0.13865  0.32713  0.47148  1.0000
  H   H172      1.0  0.04357  0.00049  0.88429  1.0000
  C   C104      1.0  0.13122  0.07337  0.95071  1.0000
  H   H173      1.0  0.18562  0.11360  0.55818  1.0000
  H   H174      1.0  0.05647  0.01254  0.83716  1.0000
  H   H175      1.0  0.09109  0.47581  0.48589  1.0000
  S   S27       1.0  0.24069  0.44648  0.48344  1.0000
  C   C105      1.0  0.01709  0.19497  0.50348  1.0000
  H   H176      1.0  0.00698  0.33151  0.96274  1.0000
  C   C106      1.0  0.13348  0.09500  0.87290  1.0000
  H   H177      1.0  0.08430  0.07554  0.86240  1.0000
  C   C107      1.0  0.06948  0.19813  0.63317  1.0000
  C   C108      1.0  0.01665  0.19628  0.74682  1.0000
  H   H178      1.0  0.20239  0.46089  0.82306  1.0000
  S   S28       1.0  0.99203  0.12124  0.69535  1.0000
  C   C109      1.0  0.10082  0.15797  0.96324  1.0000
  H   H179      1.0  0.99989  0.20864  0.75837  1.0000
  H   H180      1.0  0.11919  0.22315  0.51827  1.0000
  H   H181      1.0  0.02474  0.17778  0.70632  1.0000
  H   H182      1.0  0.22671  0.14202  0.56711  1.0000
  H   H183      1.0  0.02896  0.35097  0.49203  1.0000
  H   H184      1.0  0.02426  0.26602  0.66255  1.0000
  H   H185      1.0  0.11463  0.40598  0.47521  1.0000
  S   S29       1.0  0.00935  0.10839  0.95755  1.0000
  H   H186      1.0  0.08902  0.32820  0.49665  1.0000
  H   H187      1.0  0.02230  0.17983  0.65901  1.0000
  H   H188      1.0  0.22680  0.01495  0.47185  1.0000
  C   C110      1.0  0.99868  0.11970  0.78429  1.0000
  H   H189      1.0  0.06341  0.19296  0.61124  1.0000
  H   H190      1.0  0.04368  0.23590  0.63318  1.0000
  H   H191      1.0  0.10437  0.13536  0.96028  1.0000
  H   H192      1.0  0.99327  0.27502  0.68354  1.0000
  C   C111      1.0  0.22751  0.11928  0.57340  1.0000
  C   C112      1.0  0.07762  0.31907  0.47945  1.0000
  H   H193      1.0  0.10278  0.99445  0.83284  1.0000
  H   H194      1.0  0.17694  0.34915  0.47055  1.0000
  H   H195      1.0  0.15438  0.47278  0.50084  1.0000
  H   H196      1.0  0.03668  0.30071  0.47922  1.0000
  C   C113      1.0  0.00961  0.23948  0.47354  1.0000
  H   H197      1.0  0.16990  0.99407  0.83486  1.0000
  Fe  Fe16      1.0  0.24200  0.01703  0.54519  1.0000
  C   C114      1.0  0.06531  0.98394  0.92223  1.0000
  N   N7        1.0  0.17680  0.88471  0.00439  1.0000
  S   S30       1.0  0.01756  0.77798  0.26839  1.0000
  Fe  Fe17      1.0  0.01095  0.73390  0.34190  1.0000
  S   S31       1.0  0.05168  0.73412  0.31622  1.0000
  H   H198      1.0  0.07579  0.79509  0.04908  1.0000
  Fe  Fe18      1.0  0.04261  0.78053  0.30863  1.0000
  S   S32       1.0  0.07332  0.81505  0.31099  1.0000
  Fe  Fe19      1.0  0.02491  0.73113  0.27749  1.0000
  S   S33       1.0  0.03715  0.69322  0.25215  1.0000
  S   S34       1.0  0.00399  0.78033  0.33826  1.0000
  C   C115      1.0  0.11415  0.74772  0.38184  1.0000
  H   H199      1.0  0.00363  0.71014  0.97815  1.0000
  H   H200      1.0  0.11052  0.85895  0.31070  1.0000
  S   S35       1.0  0.22706  0.51612  0.00851  1.0000
  C   C116      1.0  0.21234  0.49785  0.28382  1.0000
  H   H201      1.0  0.21449  0.79840  0.22979  1.0000
  C   C117      1.0  0.02677  0.50644  0.10851  1.0000
  S   S36       1.0  0.20637  0.81504  0.31766  1.0000
  S   S37       1.0  0.17356  0.66007  0.23365  1.0000
  S   S38       1.0  0.18200  0.63674  0.31769  1.0000
  Fe  Fe20      1.0  0.17986  0.70573  0.22483  1.0000
  S   S39       1.0  0.15444  0.73931  0.19739  1.0000
  H   H202      1.0  0.17379  0.88199  0.18071  1.0000
  H   H203      1.0  0.22100  0.96355  0.16847  1.0000
  C   C118      1.0  0.17751  0.77188  0.11918  1.0000
  H   H204      1.0  0.04266  0.65958  0.38854  1.0000
  S   S40       1.0  0.02929  0.79055  0.17986  1.0000
  C   C119      1.0  0.13588  0.51912  0.18466  1.0000
  C   C120      1.0  0.20434  0.72245  0.36571  1.0000
  H   H205      1.0  0.19397  0.86559  0.13451  1.0000
  Fe  Fe21      1.0  0.02808  0.65422  0.09497  1.0000
  S   S41       1.0  0.01992  0.61240  0.11623  1.0000
  H   H206      1.0  0.02319  0.53672  0.14162  1.0000
  Fe  Fe22      1.0  0.04200  0.63131  0.03556  1.0000
  S   S42       1.0  0.05620  0.65016  0.99137  1.0000
  S   S43       1.0  0.01055  0.82578  0.45641  1.0000
  Fe  Fe23      1.0  0.05787  0.59700  0.09107  1.0000
  S   S44       1.0  0.06827  0.63978  0.07295  1.0000
  H   H207      1.0  0.00670  0.60485  0.39149  1.0000
  H   H208      1.0  0.16974  0.77087  0.31287  1.0000
  S   S45       1.0  0.08868  0.56893  0.11683  1.0000
  S   S46       1.0  0.22291  0.62195  0.09443  1.0000
  S   S47       1.0  0.20348  0.56615  0.04604  1.0000
  H   H209      1.0  0.19403  0.92329  0.98724  1.0000
  H   H210      1.0  0.16202  0.86000  0.31563  1.0000
  H   H211      1.0  0.99273  0.53618  0.11962  1.0000
  H   H212      1.0  0.08123  0.92012  0.41988  1.0000
  S   S48       1.0  0.99484  0.86276  0.38190  1.0000
  C   C121      1.0  0.12076  0.56430  0.09783  1.0000
  C   C122      1.0  0.14562  0.56646  0.11226  1.0000
  C   C123      1.0  0.17134  0.56561  0.09677  1.0000
  C   C124      1.0  0.17236  0.56217  0.06689  1.0000
  C   C125      1.0  0.14762  0.55797  0.05292  1.0000
  C   C126      1.0  0.12171  0.55959  0.06823  1.0000
  H   H213      1.0  0.14498  0.57025  0.13509  1.0000
  H   H214      1.0  0.19015  0.56887  0.10772  1.0000
  H   H215      1.0  0.14844  0.55458  0.02999  1.0000
  H   H216      1.0  0.18986  0.84682  0.18464  1.0000
  C   C127      1.0  0.15924  0.60347  0.42730  1.0000
  C   C128      1.0  0.18879  0.60358  0.42454  1.0000
  C   C129      1.0  0.20566  0.58624  0.44345  1.0000
  H   H217      1.0  0.05499  0.84432  0.37363  1.0000
  H   H218      1.0  0.19856  0.61603  0.40695  1.0000
  C   C130      1.0  0.07258  0.81609  0.40767  1.0000
  Fe  Fe24      1.0  0.21703  0.65235  0.21439  1.0000
  H   H219      1.0  0.01765  0.54624  0.45969  1.0000
  H   H220      1.0  0.14657  0.61569  0.41152  1.0000
  H   H221      1.0  0.15043  0.95262  0.46447  1.0000
  H   H222      1.0  0.19023  0.55442  0.28105  1.0000
  Fe  Fe25      1.0  0.23974  0.58140  0.06969  1.0000
  H   H223      1.0  0.10845  0.75422  0.40402  1.0000
  C   C131      1.0  0.02886  0.63178  0.35946  1.0000
  C   C132      1.0  0.06363  0.77717  0.18973  1.0000
  C   C133      1.0  0.08611  0.78787  0.17311  1.0000
  C   C134      1.0  0.11351  0.77633  0.17666  1.0000
  C   C135      1.0  0.11938  0.75415  0.19739  1.0000
  C   C136      1.0  0.09730  0.74405  0.21526  1.0000
  C   C137      1.0  0.06947  0.75566  0.21146  1.0000
  H   H224      1.0  0.08224  0.80498  0.15697  1.0000
  H   H225      1.0  0.13026  0.78436  0.16284  1.0000
  H   H226      1.0  0.10136  0.72690  0.23143  1.0000
  H   H227      1.0  0.05260  0.74752  0.22495  1.0000
  H   H228      1.0  0.02706  0.85911  0.99575  1.0000
  H   H229      1.0  0.17062  0.83751  0.13670  1.0000
  H   H230      1.0  0.06735  0.87033  0.43735  1.0000
  H   H231      1.0  0.21699  0.64550  0.44656  1.0000
  H   H232      1.0  0.14981  0.74211  0.35319  1.0000
  C   C138      1.0  0.20556  0.86932  0.00338  1.0000
  H   H233      1.0  0.05316  0.91770  0.30839  1.0000
  H   H234      1.0  0.21971  0.56745  0.15538  1.0000
  C   C139      1.0  0.22632  0.55347  0.35482  1.0000
  C   C140      1.0  0.19964  0.60456  0.33110  1.0000
  C   C141      1.0  0.18846  0.58994  0.35593  1.0000
  C   C142      1.0  0.20195  0.56496  0.36806  1.0000
  H   H235      1.0  0.16954  0.59837  0.36632  1.0000
  H   H236      1.0  0.19373  0.55486  0.38797  1.0000
  C   C143      1.0  0.02895  0.69259  0.21530  1.0000
  C   C144      1.0  0.01470  0.71526  0.20040  1.0000
  C   C145      1.0  0.01097  0.71509  0.17035  1.0000
  C   C146      1.0  0.02067  0.69191  0.15530  1.0000
  C   C147      1.0  0.03299  0.66834  0.17059  1.0000
  C   C148      1.0  0.03750  0.66887  0.20048  1.0000
  H   H237      1.0  0.04042  0.65036  0.15917  1.0000
  H   H238      1.0  0.04827  0.65116  0.21203  1.0000
  C   C149      1.0  0.01251  0.70540  0.41261  1.0000
  C   C150      1.0  0.03586  0.72087  0.41568  1.0000
  C   C151      1.0  0.04949  0.71894  0.44237  1.0000
  H   H239      1.0  0.99421  0.64122  0.38993  1.0000
  H   H240      1.0  0.22353  0.80617  0.42347  1.0000
  H   H241      1.0  0.16556  0.89265  0.44181  1.0000
  H   H242      1.0  0.04374  0.73364  0.39727  1.0000
  S   S49       1.0  0.22015  0.61358  0.18870  1.0000
  H   H243      1.0  0.09324  0.80466  0.41125  1.0000
  H   H244      1.0  0.07912  0.53536  0.45622  1.0000
  C   C152      1.0  0.11045  0.81419  0.31181  1.0000
  C   C153      1.0  0.12738  0.78940  0.31182  1.0000
  C   C154      1.0  0.15673  0.79009  0.31344  1.0000
  C   C155      1.0  0.16943  0.81544  0.31529  1.0000
  C   C156      1.0  0.15252  0.84030  0.31471  1.0000
  C   C157      1.0  0.12330  0.83962  0.31240  1.0000
  H   H245      1.0  0.11790  0.76973  0.31045  1.0000
  C   C158      1.0  0.05214  0.79532  0.39892  1.0000
  N   N8        1.0  0.12502  0.66525  0.13973  1.0000
  C   C159      1.0  0.12978  0.64349  0.11784  1.0000
  C   C160      1.0  0.11456  0.65223  0.16860  1.0000
  C   C161      1.0  0.10209  0.68589  0.12841  1.0000
  C   C162      1.0  0.15060  0.68132  0.14317  1.0000
  C   C163      1.0  0.17923  0.66472  0.14664  1.0000
  C   C164      1.0  0.13942  0.65488  0.08692  1.0000
  C   C165      1.0  0.09172  0.70862  0.14910  1.0000
  C   C166      1.0  0.12953  0.62428  0.18010  1.0000
  C   C167      1.0  0.11765  0.61495  0.21029  1.0000
  C   C168      1.0  0.20285  0.68250  0.13444  1.0000
  C   C169      1.0  0.14766  0.63148  0.06728  1.0000
  C   C170      1.0  0.07583  0.73311  0.13265  1.0000
  H   H246      1.0  0.11031  0.63235  0.11597  1.0000
  H   H247      1.0  0.14527  0.62655  0.12518  1.0000
  H   H248      1.0  0.11523  0.66722  0.18587  1.0000
  H   H249      1.0  0.09208  0.64781  0.16728  1.0000
  H   H250      1.0  0.08337  0.67487  0.12297  1.0000
  H   H251      1.0  0.10915  0.69726  0.10790  1.0000
  H   H252      1.0  0.15263  0.69745  0.12469  1.0000
  H   H253      1.0  0.14815  0.69352  0.16271  1.0000
  H   H254      1.0  0.18144  0.64492  0.13600  1.0000
  H   H255      1.0  0.18265  0.65972  0.17013  1.0000
  H   H256      1.0  0.12218  0.66772  0.07618  1.0000
  H   H257      1.0  0.15778  0.66766  0.08782  1.0000
  H   H258      1.0  0.10914  0.71723  0.15968  1.0000
  H   H259      1.0  0.07796  0.69971  0.16674  1.0000
  H   H260      1.0  0.12589  0.60748  0.16568  1.0000
  H   H261      1.0  0.15236  0.62604  0.18158  1.0000
  H   H262      1.0  0.12110  0.63054  0.22618  1.0000
  H   H263      1.0  0.09482  0.61223  0.20944  1.0000
  H   H264      1.0  0.12816  0.59466  0.21802  1.0000
  H   H265      1.0  0.22310  0.67369  0.14277  1.0000
  H   H266      1.0  0.20398  0.68303  0.11033  1.0000
  H   H267      1.0  0.19944  0.70400  0.14130  1.0000
  H   H268      1.0  0.13027  0.61746  0.06651  1.0000
  H   H269      1.0  0.15268  0.64015  0.04486  1.0000
  H   H270      1.0  0.16657  0.61940  0.07545  1.0000
  H   H271      1.0  0.06546  0.72652  0.11345  1.0000
  H   H272      1.0  0.05946  0.74241  0.14719  1.0000
  H   H273      1.0  0.09052  0.74923  0.12526  1.0000
  C   C171      1.0  0.10394  0.67337  0.28875  1.0000
  H   H274      1.0  0.09275  0.65900  0.27612  1.0000
  H   H275      1.0  0.09191  0.69390  0.28836  1.0000
  H   H276      1.0  0.12474  0.67651  0.27797  1.0000
  H   H277      1.0  0.03061  0.79153  0.04097  1.0000
  H   H278      1.0  0.05919  0.78641  0.37816  1.0000
  H   H279      1.0  0.16833  0.60141  0.27146  1.0000
  Fe  Fe26      1.0  0.19552  0.66199  0.27588  1.0000
  N   N9        1.0  0.14035  0.84758  0.22167  1.0000
  C   C172      1.0  0.16424  0.83018  0.23580  1.0000
  C   C173      1.0  0.13757  0.87640  0.23324  1.0000
  C   C174      1.0  0.11362  0.83341  0.23000  1.0000
  C   C175      1.0  0.14357  0.84970  0.18894  1.0000
  C   C176      1.0  0.17170  0.85997  0.17601  1.0000
  C   C177      1.0  0.16896  0.79965  0.22726  1.0000
  C   C178      1.0  0.08628  0.84828  0.21767  1.0000
  C   C179      1.0  0.16472  0.88889  0.24257  1.0000
  C   C180      1.0  0.15925  0.91949  0.24914  1.0000
  C   C181      1.0  0.19674  0.78623  0.23845  1.0000
  C   C182      1.0  0.06026  0.83679  0.23325  1.0000
  H   H280      1.0  0.16087  0.82907  0.25967  1.0000
  H   H281      1.0  0.18443  0.84010  0.23179  1.0000
  H   H282      1.0  0.12726  0.89181  0.21714  1.0000
  H   H283      1.0  0.12347  0.87644  0.25308  1.0000
  H   H284      1.0  0.11103  0.83070  0.25410  1.0000
  H   H285      1.0  0.11441  0.81191  0.22262  1.0000
  H   H286      1.0  0.14023  0.82925  0.18030  1.0000
  H   H287      1.0  0.12679  0.86424  0.17927  1.0000
  H   H288      1.0  0.15210  0.78681  0.23708  1.0000
  H   H289      1.0  0.16951  0.79855  0.20336  1.0000
  H   H290      1.0  0.08513  0.84483  0.19420  1.0000
  H   H291      1.0  0.08517  0.87110  0.21993  1.0000
  H   H292      1.0  0.17251  0.87722  0.26269  1.0000
  H   H293      1.0  0.18170  0.88782  0.22571  1.0000
  H   H294      1.0  0.15202  0.93227  0.22945  1.0000
  H   H295      1.0  0.14332  0.92151  0.26712  1.0000
  H   H296      1.0  0.17897  0.92780  0.25583  1.0000
  H   H297      1.0  0.20004  0.76469  0.23132  1.0000
  H   H298      1.0  0.19666  0.78503  0.26260  1.0000
  H   H299      1.0  0.05786  0.84408  0.25555  1.0000
  H   H300      1.0  0.04121  0.84418  0.22115  1.0000
  H   H301      1.0  0.06167  0.81361  0.23486  1.0000
  N   N10       1.0  0.12906  0.71625  0.00395  1.0000
  H   H302      1.0  0.00151  0.81372  0.12467  1.0000
  C   C183      1.0  0.14667  0.71293  0.03065  1.0000
  C   C184      1.0  0.10114  0.70433  0.01234  1.0000
  H   H303      1.0  0.15666  0.87349  0.13282  1.0000
  H   H304      1.0  0.09680  0.63645  0.42531  1.0000
  H   H305      1.0  0.21160  0.86057  0.02551  1.0000
  C   C185      1.0  0.08427  0.71784  0.03762  1.0000
  C   C186      1.0  0.17523  0.72625  0.02827  1.0000
  C   C187      1.0  0.19213  0.71811  0.05548  1.0000
  C   C188      1.0  0.01968  0.80826  0.05332  1.0000
  C   C189      1.0  0.11316  0.85978  0.40882  1.0000
  C   C190      1.0  0.02801  0.55178  0.43824  1.0000
  H   H306      1.0  0.11624  0.63016  0.99092  1.0000
  H   H307      1.0  0.13553  0.72240  0.04938  1.0000
  H   H308      1.0  0.15063  0.69036  0.03724  1.0000
  C   C191      1.0  0.06015  0.48729  0.04359  1.0000
  H   H309      1.0  0.06704  0.50943  0.12719  1.0000
  C   C192      1.0  0.02640  0.83707  0.03851  1.0000
  H   H310      1.0  0.17103  0.87515  0.05074  1.0000
  C   C193      1.0  0.09106  0.88628  0.36720  1.0000
  C   C194      1.0  0.99550  0.87327  0.11765  1.0000
  C   C195      1.0  0.05928  0.50419  0.10591  1.0000
  N   N11       1.0  0.08574  0.86706  0.39397  1.0000
  H   H311      1.0  0.19476  0.78532  0.15764  1.0000
  H   H312      1.0  0.09257  0.70923  0.05883  1.0000
  H   H313      1.0  0.14321  0.51795  0.23018  1.0000
  H   H314      1.0  0.17210  0.74938  0.02627  1.0000
  H   H315      1.0  0.19805  0.69532  0.05693  1.0000
  H   H316      1.0  0.21169  0.72943  0.05432  1.0000
  H   H317      1.0  0.17991  0.72336  0.07548  1.0000
  C   C196      1.0  0.14623  0.58684  0.44966  1.0000
  H   H318      1.0  0.09703  0.90697  0.37301  1.0000
  Fe  Fe27      1.0  0.23981  0.69950  0.24664  1.0000
  H   H319      1.0  0.11201  0.81767  0.07389  1.0000
  Fe  Fe28      1.0  0.23459  0.85075  0.30422  1.0000
  C   C197      1.0  0.12094  0.48609  0.11681  1.0000
  Fe  Fe29      1.0  0.99707  0.60608  0.07603  1.0000
  H   H320      1.0  0.02363  0.55184  0.10458  1.0000
  N   N12       1.0  0.19427  0.73266  0.39474  1.0000
  H   H321      1.0  0.13419  0.49617  0.18506  1.0000
  C   C198      1.0  0.16298  0.73063  0.39772  1.0000
  C   C199      1.0  0.20234  0.76239  0.39590  1.0000
  H   H322      1.0  0.13152  0.57536  0.34030  1.0000
  C   C200      1.0  0.18316  0.59263  0.25493  1.0000
  H   H323      1.0  0.08545  0.74079  0.03604  1.0000
  C   C201      1.0  0.18963  0.77825  0.42193  1.0000
  H   H324      1.0  0.07078  0.93536  0.33492  1.0000
  H   H325      1.0  0.01823  0.91568  0.43236  1.0000
  H   H326      1.0  0.23126  0.65729  0.02115  1.0000
  C   C202      1.0  0.10938  0.50708  0.41846  1.0000
  H   H327      1.0  0.14022  0.51214  0.46539  1.0000
  H   H328      1.0  0.19532  0.70229  0.36195  1.0000
  H   H329      1.0  0.20975  0.67435  0.40020  1.0000
  H   H330      1.0  0.15526  0.73514  0.42008  1.0000
  H   H331      1.0  0.19700  0.77509  0.37538  1.0000
  C   C203      1.0  0.15616  0.87487  0.43260  1.0000
  C   C204      1.0  0.09209  0.65859  0.41825  1.0000
  C   C205      1.0  0.13526  0.48815  0.40927  1.0000
  H   H332      1.0  0.12855  0.84965  0.39347  1.0000
  H   H333      1.0  0.10454  0.55082  0.34149  1.0000
  C   C206      1.0  0.07810  0.78961  0.07272  1.0000
  C   C207      1.0  0.19302  0.91372  0.04521  1.0000
  C   C208      1.0  0.14552  0.74932  0.37531  1.0000
  H   H334      1.0  0.10282  0.84057  0.01230  1.0000
  C   C209      1.0  0.12418  0.74667  0.99343  1.0000
  H   H335      1.0  0.04267  0.72365  0.01937  1.0000
  C   C210      1.0  0.17319  0.85902  0.14294  1.0000
  H   H336      1.0  0.10349  0.75050  0.98298  1.0000
  H   H337      1.0  0.21233  0.96921  0.45803  1.0000
  H   H338      1.0  0.08621  0.59979  0.32861  1.0000
  C   C211      1.0  0.20251  0.78027  0.13548  1.0000
  H   H339      1.0  0.06821  0.64276  0.32214  1.0000
  H   H340      1.0  0.18412  0.49257  0.20103  1.0000
  H   H341      1.0  0.05252  0.62419  0.39920  1.0000
  S   S50       1.0  0.19780  0.70895  0.26884  1.0000
  C   C212      1.0  0.07933  0.65604  0.33598  1.0000
  H   H342      1.0  0.00756  0.73345  0.21175  1.0000
  H   H343      1.0  0.99703  0.80627  0.04986  1.0000
  H   H344      1.0  0.12072  0.64124  0.31880  1.0000
  H   H345      1.0  0.01386  0.84607  0.32521  1.0000
  H   H346      1.0  0.20582  0.93083  0.08444  1.0000
  H   H347      1.0  0.18149  0.67931  0.42633  1.0000
  H   H348      1.0  0.10965  0.87804  0.35462  1.0000
  S   S51       1.0  0.03465  0.58697  0.05199  1.0000
  C   C213      1.0  0.10788  0.66116  0.32003  1.0000
  H   H349      1.0  0.11746  0.56154  0.37499  1.0000
  H   H350      1.0  0.09021  0.83216  0.36664  1.0000
  C   C214      1.0  0.11220  0.56865  0.35222  1.0000
  H   H351      1.0  0.06653  0.67625  0.33532  1.0000
  H   H352      1.0  0.11980  0.67602  0.33118  1.0000
  H   H353      1.0  0.02298  0.65005  0.34414  1.0000
  H   H354      1.0  0.03605  0.61417  0.34642  1.0000
  C   C215      1.0  0.08969  0.59275  0.35171  1.0000
  H   H355      1.0  0.20456  0.56099  0.21526  1.0000
  C   C216      1.0  0.20574  0.54800  0.23628  1.0000
  H   H356      1.0  0.07027  0.58434  0.36176  1.0000
  N   N13       1.0  0.08076  0.64360  0.36703  1.0000
  H   H357      1.0  0.05998  0.80104  0.11450  1.0000
  H   H358      1.0  0.12094  0.62038  0.36335  1.0000
  H   H359      1.0  0.00134  0.73338  0.15872  1.0000
  N   N14       1.0  0.20321  0.51764  0.23100  1.0000
  C   C217      1.0  0.18423  0.56093  0.25838  1.0000
  H   H360      1.0  0.16090  0.52290  0.39667  1.0000
  H   H361      1.0  0.10820  0.84636  0.97338  1.0000
  C   C218      1.0  0.09868  0.61657  0.36931  1.0000
  C   C219      1.0  0.12361  0.87864  0.99832  1.0000
  C   C220      1.0  0.05161  0.63972  0.37999  1.0000
  H   H362      1.0  0.16997  0.92126  0.08594  1.0000
  C   C221      1.0  0.14595  0.75888  0.97088  1.0000
  H   H363      1.0  0.05393  0.92166  0.39434  1.0000
  C   C222      1.0  0.22587  0.75633  0.13802  1.0000
  H   H364      1.0  0.20421  0.60031  0.25768  1.0000
  C   C223      1.0  0.01600  0.53452  0.11931  1.0000
  H   H365      1.0  0.04319  0.71807  0.05851  1.0000
  C   C224      1.0  0.09432  0.66414  0.38453  1.0000
  C   C225      1.0  0.15340  0.52648  0.20977  1.0000
  H   H366      1.0  0.22683  0.55156  0.24436  1.0000
  H   H367      1.0  0.08468  0.68560  0.37953  1.0000
  H   H368      1.0  0.11700  0.66494  0.37839  1.0000
  C   C226      1.0  0.07573  0.84032  0.38389  1.0000
  C   C227      1.0  0.23889  0.60642  0.15599  1.0000
  H   H369      1.0  0.23721  0.72534  0.31359  1.0000
  H   H370      1.0  0.09648  0.60038  0.00296  1.0000
  H   H371      1.0  0.05077  0.68926  0.03651  1.0000
  C   C228      1.0  0.01615  0.68642  0.46262  1.0000
  H   H372      1.0  0.11042  0.84413  0.42752  1.0000
  H   H373      1.0  0.04264  0.87305  0.40989  1.0000
  H   H374      1.0  0.16269  0.55473  0.25580  1.0000
  H   H375      1.0  0.09920  0.60768  0.39216  1.0000
  H   H376      1.0  0.08138  0.86683  0.99181  1.0000
  H   H377      1.0  0.10254  0.55756  0.05706  1.0000
  C   C229      1.0  0.06855  0.51673  0.45068  1.0000
  C   C230      1.0  0.04007  0.70101  0.46556  1.0000
  H   H378      1.0  0.99466  0.75858  0.04509  1.0000
  H   H379      1.0  0.01147  0.85349  0.04683  1.0000
  H   H380      1.0  0.18157  0.50766  0.31819  1.0000
  H   H381      1.0  0.19201  0.52646  0.18591  1.0000
  H   H382      1.0  0.03811  0.82260  0.99567  1.0000
  H   H383      1.0  0.22551  0.76290  0.39700  1.0000
  H   H384      1.0  0.14869  0.67726  0.99024  1.0000
  H   H385      1.0  0.11396  0.50681  0.12444  1.0000
  H   H386      1.0  0.22597  0.74465  0.11819  1.0000
  H   H387      1.0  0.17583  0.60002  0.23299  1.0000
  H   H388      1.0  0.07058  0.66433  0.42645  1.0000
  C   C231      1.0  0.20043  0.80748  0.42146  1.0000
  H   H389      1.0  0.15488  0.50200  0.08849  1.0000
  C   C232      1.0  0.06643  0.89094  0.34589  1.0000
  H   H390      1.0  0.17183  0.50914  0.26536  1.0000
  C   C233      1.0  0.11232  0.67547  0.43352  1.0000
  C   C234      1.0  0.10282  0.85666  0.99373  1.0000
  C   C235      1.0  0.19158  0.91506  0.07823  1.0000
  H   H391      1.0  0.16089  0.78907  0.11883  1.0000
  H   H392      1.0  0.11444  0.52933  0.18655  1.0000
  H   H393      1.0  0.21497  0.90749  0.03879  1.0000
  C   C236      1.0  0.19261  0.50070  0.25759  1.0000
  C   C237      1.0  0.22310  0.68191  0.98102  1.0000
  H   H394      1.0  0.10620  0.49656  0.07387  1.0000
  C   C238      1.0  0.18416  0.51489  0.20606  1.0000
  C   C239      1.0  0.01926  0.77418  0.09560  1.0000
  H   H395      1.0  0.22190  0.88410  0.99658  1.0000
  H   H396      1.0  0.10936  0.67163  0.45747  1.0000
  H   H397      1.0  0.99680  0.72752  0.06951  1.0000
  N   N15       1.0  0.02573  0.80374  0.08523  1.0000
  C   C240      1.0  0.06107  0.91161  0.41543  1.0000
  C   C241      1.0  0.07065  0.91569  0.32377  1.0000
  H   H398      1.0  0.03941  0.94364  0.44015  1.0000
  H   H399      1.0  0.13015  0.60408  0.01759  1.0000
  H   H400      1.0  0.16405  0.49348  0.12576  1.0000
  C   C242      1.0  0.01863  0.85209  0.10841  1.0000
  H   H401      1.0  0.16882  0.75282  0.13025  1.0000
  H   H402      1.0  0.06801  0.73022  0.44462  1.0000
  H   H403      1.0  0.03393  0.84878  0.12614  1.0000
  H   H404      1.0  0.04413  0.91010  0.46018  1.0000
  H   H405      1.0  0.15487  0.85765  0.44998  1.0000
  C   C243      1.0  0.05336  0.71183  0.03785  1.0000
  C   C244      1.0  0.10798  0.79547  0.08001  1.0000
  N   N16       1.0  0.09002  0.49435  0.44167  1.0000
  H   H406      1.0  0.04240  0.59352  0.98006  1.0000
  H   H407      1.0  0.15031  0.77156  0.37516  1.0000
  H   H408      1.0  0.09961  0.93962  0.46061  1.0000
  H   H409      1.0  0.06596  0.52135  0.09013  1.0000
  H   H410      1.0  0.15268  0.54961  0.20942  1.0000
  H   H411      1.0  0.06206  0.82859  0.08716  1.0000
  C   C245      1.0  0.20766  0.71525  0.41969  1.0000
  H   H412      1.0  0.02350  0.77038  0.11927  1.0000
  H   H413      1.0  0.23584  0.97082  0.11631  1.0000
  H   H414      1.0  0.19930  0.72231  0.44088  1.0000
  S   S52       1.0  0.22208  0.69795  0.20247  1.0000
  C   C246      1.0  0.15191  0.48693  0.10766  1.0000
  H   H415      1.0  0.17015  0.86779  0.41448  1.0000
  C   C247      1.0  0.05625  0.80673  0.09103  1.0000
  C   C248      1.0  0.00701  0.82358  0.10268  1.0000
  H   H416      1.0  0.05652  0.53401  0.40680  1.0000
  H   H417      1.0  0.02929  0.86194  0.08898  1.0000
  H   H418      1.0  0.04510  0.49125  0.99952  1.0000
  H   H419      1.0  0.23478  0.68917  0.32728  1.0000
  H   H420      1.0  0.07608  0.76693  0.07707  1.0000
  C   C249      1.0  0.20366  0.68345  0.42105  1.0000
  S   S53       1.0  0.01980  0.69400  0.11712  1.0000
  S   S54       1.0  0.00254  0.64952  0.05633  1.0000
  H   H421      1.0  0.04813  0.84222  0.04233  1.0000
  H   H422      1.0  0.12953  0.56857  0.97963  1.0000
  C   C250      1.0  0.14293  0.69886  0.98091  1.0000
  H   H423      1.0  0.19096  0.81836  0.44021  1.0000
  H   H424      1.0  0.10788  0.72620  0.37997  1.0000
  C   C251      1.0  0.23391  0.58125  0.14377  1.0000
  H   H425      1.0  0.12322  0.78199  0.06777  1.0000
  S   S55       1.0  0.23827  0.65307  0.25695  1.0000
  H   H426      1.0  0.12281  0.75989  0.01232  1.0000
  H   H427      1.0  0.06495  0.87222  0.33344  1.0000
  C   C252      1.0  0.17607  0.91053  0.98365  1.0000
  C   C253      1.0  0.22424  0.59318  0.31792  1.0000
  H   H428      1.0  0.23038  0.71840  0.41974  1.0000
  S   S56       1.0  0.10971  0.58169  0.44895  1.0000
  S   S57       1.0  0.22084  0.89626  0.29715  1.0000
  H   H429      1.0  0.14545  0.52657  0.16345  1.0000
  Fe  Fe30      1.0  0.23864  0.49740  0.41334  1.0000
  H   H430      1.0  0.19664  0.73728  0.34763  1.0000
  H   H431      1.0  0.05101  0.50843  0.04779  1.0000
  H   H432      1.0  0.19481  0.81987  0.40094  1.0000
  H   H433      1.0  0.00133  0.83338  0.00061  1.0000
  H   H434      1.0  0.17319  0.58816  0.98918  1.0000
  H   H435      1.0  0.10235  0.76177  0.36573  1.0000
  C   C254      1.0  0.15414  0.50396  0.38727  1.0000
  S   S58       1.0  0.23159  0.96431  0.00668  1.0000
  H   H436      1.0  0.16455  0.62030  0.96933  1.0000
  C   C255      1.0  0.00232  0.62384  0.37675  1.0000
  H   H437      1.0  0.01745  0.50469  0.08708  1.0000
  H   H438      1.0  0.08720  0.70639  0.99346  1.0000
  H   H439      1.0  0.04603  0.89450  0.35768  1.0000
  C   C256      1.0  0.04642  0.52704  0.42788  1.0000
  C   C257      1.0  0.15419  0.86555  0.99845  1.0000
  C   C258      1.0  0.23180  0.50486  0.22256  1.0000
  C   C259      1.0  0.22129  0.66790  0.44485  1.0000
  C   C260      1.0  0.06382  0.87929  0.41474  1.0000
  C   C261      1.0  0.11780  0.60749  0.99768  1.0000
  H   H440      1.0  0.11718  0.88759  0.01913  1.0000
  H   H441      1.0  0.15497  0.84720  0.01470  1.0000
  H   H442      1.0  0.17008  0.53942  0.97810  1.0000
  H   H443      1.0  0.15751  0.70885  0.39506  1.0000
  H   H444      1.0  0.09066  0.91241  0.31113  1.0000
  H   H445      1.0  0.15103  0.90551  0.03722  1.0000
  H   H446      1.0  0.11133  0.79096  0.10367  1.0000
  H   H447      1.0  0.16646  0.78069  0.42123  1.0000
  C   C262      1.0  0.12702  0.88414  0.42162  1.0000
  H   H448      1.0  0.18384  0.76797  0.09637  1.0000
  H   H449      1.0  0.03333  0.75856  0.08501  1.0000
  H   H450      1.0  0.21896  0.74147  0.15610  1.0000
  H   H451      1.0  0.10394  0.68140  0.01833  1.0000
  H   H452      1.0  0.06487  0.82392  0.42858  1.0000
  H   H453      1.0  0.22292  0.51737  0.28623  1.0000
  C   C263      1.0  0.23659  0.71877  0.36085  1.0000
  H   H454      1.0  0.11424  0.89116  0.44057  1.0000
  C   C264      1.0  0.03942  0.92072  0.43854  1.0000
  H   H455      1.0  0.12947  0.90198  0.40529  1.0000
  S   S59       1.0  0.23451  0.92114  0.21398  1.0000
  H   H456      1.0  0.09788  0.51326  0.39825  1.0000
  H   H457      1.0  0.13424  0.66881  0.42749  1.0000
  S   S60       1.0  0.20470  0.49862  0.44849  1.0000
  H   H458      1.0  0.05066  0.77825  0.41634  1.0000
  C   C265      1.0  0.16292  0.59732  0.96895  1.0000
  C   C266      1.0  0.00251  0.68848  0.43619  1.0000
  H   H459      1.0  0.19855  0.89454  0.08905  1.0000
  H   H460      1.0  0.19539  0.76722  0.44306  1.0000
  C   C267      1.0  0.02302  0.83793  0.00565  1.0000
  H   H461      1.0  0.03246  0.51020  0.42415  1.0000
  H   H462      1.0  0.11702  0.52691  0.42525  1.0000
  H   H463      1.0  0.01150  0.55797  0.42228  1.0000
  C   C268      1.0  0.17166  0.89383  0.03492  1.0000
  H   H464      1.0  0.18785  0.93515  0.03543  1.0000
  S   S61       1.0  0.99657  0.70479  0.37911  1.0000
  H   H465      1.0  0.00477  0.89273  0.12308  1.0000
  H   H466      1.0  0.18788  0.71934  0.00934  1.0000
  C   C269      1.0  0.19252  0.57070  0.46644  1.0000
  H   H467      1.0  0.21031  0.79955  0.12420  1.0000
  H   H468      1.0  0.15699  0.92431  0.98795  1.0000
  C   C270      1.0  0.23517  0.94811  0.15881  1.0000
  H   H469      1.0  0.10837  0.69814  0.42771  1.0000
  H   H470      1.0  0.03087  0.80569  0.39608  1.0000
  C   C271      1.0  0.23550  0.67632  0.00827  1.0000
  H   H471      1.0  0.01874  0.48993  0.12406  1.0000
  C   C272      1.0  0.21005  0.84417  0.98407  1.0000
  H   H472      1.0  0.23360  0.60417  0.29910  1.0000
  H   H473      1.0  0.04087  0.56993  0.44016  1.0000
  H   H474      1.0  0.14300  0.51015  0.36686  1.0000
  H   H475      1.0  0.20988  0.66693  0.97314  1.0000
  H   H476      1.0  0.99293  0.65647  0.98303  1.0000
  C   C273      1.0  0.13155  0.59108  0.97333  1.0000
  H   H477      1.0  0.19701  0.82690  0.99258  1.0000
  H   H478      1.0  0.23692  0.78706  0.08364  1.0000
  H   H479      1.0  0.23453  0.51248  0.17468  1.0000
  H   H480      1.0  0.23810  0.55438  0.10883  1.0000
  H   H481      1.0  0.21640  0.67649  0.46629  1.0000
  C   C274      1.0  0.23715  0.56760  0.32941  1.0000
  H   H482      1.0  0.99841  0.64028  0.23769  1.0000
  H   H483      1.0  0.08209  0.48913  0.03530  1.0000
  C   C275      1.0  0.24065  0.83269  0.98431  1.0000
  H   H484      1.0  0.14731  0.79943  0.98880  1.0000
  C   C276      1.0  0.19664  0.49019  0.31248  1.0000
  H   H485      1.0  0.21301  0.61677  0.97638  1.0000
  H   H486      1.0  0.16788  0.75292  0.97658  1.0000
  H   H487      1.0  0.21178  0.48636  0.33027  1.0000
  C   C277      1.0  0.10587  0.48317  0.46819  1.0000
  H   H488      1.0  0.17316  0.49052  0.38204  1.0000
  H   H489      1.0  0.23739  0.79917  0.16869  1.0000
  H   H490      1.0  0.23081  0.48202  0.22037  1.0000
  H   H491      1.0  0.15791  0.85686  0.97686  1.0000
  H   H492      1.0  0.12114  0.89537  0.98048  1.0000
  H   H493      1.0  0.16326  0.70686  0.97312  1.0000
  Fe  Fe31      1.0  0.02597  0.68888  0.67731  1.0000
  C   C278      1.0  0.18513  0.79614  0.75481  1.0000
  S   S62       1.0  0.07147  0.67953  0.66085  1.0000
  H   H494      1.0  0.01180  0.82121  0.55972  1.0000
  S   S63       1.0  0.00981  0.73376  0.67735  1.0000
  H   H495      1.0  0.08942  0.66749  0.60370  1.0000
  H   H496      1.0  0.22878  0.78345  0.74869  1.0000
  Fe  Fe32      1.0  0.22293  0.59971  0.71432  1.0000
  H   H497      1.0  0.09015  0.53765  0.85755  1.0000
  S   S64       1.0  0.18408  0.62927  0.72194  1.0000
  S   S65       1.0  0.18254  0.80711  0.65353  1.0000
  H   H498      1.0  0.11843  0.84761  0.66691  1.0000
  N   N17       1.0  0.17616  0.90886  0.67135  1.0000
  C   C279      1.0  0.17343  0.53401  0.95519  1.0000
  C   C280      1.0  0.15038  0.69733  0.54454  1.0000
  C   C281      1.0  0.15990  0.73667  0.70038  1.0000
  S   S66       1.0  0.21893  0.79265  0.92286  1.0000
  C   C282      1.0  0.21289  0.87979  0.49943  1.0000
  S   S67       1.0  0.02341  0.87361  0.93163  1.0000
  C   C283      1.0  0.12430  0.50416  0.48143  1.0000
  H   H499      1.0  0.99680  0.53736  0.56514  1.0000
  S   S68       1.0  0.03749  0.87299  0.51545  1.0000
  H   H500      1.0  0.11593  0.72948  0.58104  1.0000
  Fe  Fe33      1.0  0.06653  0.59809  0.55208  1.0000
  S   S69       1.0  0.08158  0.58099  0.59676  1.0000
  Fe  Fe34      1.0  0.07974  0.59304  0.48644  1.0000
  C   C284      1.0  0.14588  0.95276  0.48829  1.0000
  S   S70       1.0  0.09446  0.62036  0.51882  1.0000
  H   H501      1.0  0.21414  0.58275  0.80515  1.0000
  Fe  Fe35      1.0  0.01870  0.66296  0.80323  1.0000
  Fe  Fe36      1.0  0.08421  0.66815  0.80262  1.0000
  S   S71       1.0  0.09306  0.62181  0.80053  1.0000
  S   S72       1.0  0.12030  0.69154  0.81866  1.0000
  Fe  Fe37      1.0  0.05951  0.62469  0.76692  1.0000
  S   S73       1.0  0.05852  0.59160  0.73351  1.0000
  Fe  Fe38      1.0  0.05871  0.61815  0.83451  1.0000
  S   S74       1.0  0.05972  0.58776  0.87465  1.0000
  S   S75       1.0  0.05188  0.67161  0.76733  1.0000
  S   S76       1.0  0.05050  0.66380  0.83799  1.0000
  Fe  Fe39      1.0  0.19615  0.81610  0.54466  1.0000
  S   S77       1.0  0.19377  0.77828  0.57589  1.0000
  S   S78       1.0  0.16408  0.82249  0.50872  1.0000
  S   S79       1.0  0.20815  0.84296  0.57935  1.0000
  Fe  Fe40      1.0  0.18438  0.81395  0.89562  1.0000
  S   S80       1.0  0.15436  0.84798  0.91275  1.0000
  S   S81       1.0  0.17211  0.77470  0.87779  1.0000
  C   C285      1.0  0.16050  0.80759  0.70932  1.0000
  C   C286      1.0  0.16058  0.80460  0.73993  1.0000
  H   H502      1.0  0.14100  0.81318  0.69868  1.0000
  H   H503      1.0  0.14133  0.80882  0.75211  1.0000
  Fe  Fe41      1.0  0.20221  0.78596  0.83995  1.0000
  C   C287      1.0  0.20983  0.79103  0.73799  1.0000
  C   C288      1.0  0.06024  0.60409  0.90766  1.0000
  C   C289      1.0  0.06925  0.63108  0.90787  1.0000
  C   C290      1.0  0.06811  0.64470  0.93372  1.0000
  C   C291      1.0  0.12907  0.97639  0.68481  1.0000
  H   H504      1.0  0.14892  0.96392  0.83580  1.0000
  C   C292      1.0  0.05106  0.59034  0.93392  1.0000
  H   H505      1.0  0.07707  0.64162  0.88804  1.0000
  H   H506      1.0  0.07425  0.66594  0.93315  1.0000
  C   C293      1.0  0.07444  0.58650  0.63424  1.0000
  C   C294      1.0  0.08364  0.56514  0.65464  1.0000
  C   C295      1.0  0.07859  0.56740  0.68457  1.0000
  C   C296      1.0  0.06505  0.59149  0.69510  1.0000
  C   C297      1.0  0.05507  0.61277  0.67483  1.0000
  C   C298      1.0  0.05990  0.61040  0.64443  1.0000
  H   H507      1.0  0.09469  0.54651  0.64723  1.0000
  H   H508      1.0  0.08551  0.55033  0.69972  1.0000
  H   H509      1.0  0.04362  0.63100  0.68261  1.0000
  H   H510      1.0  0.05289  0.62728  0.62909  1.0000
  C   C299      1.0  0.21009  0.79572  0.70713  1.0000
  H   H511      1.0  0.16091  0.65324  0.87910  1.0000
  H   H512      1.0  0.18476  0.62822  0.92204  1.0000
  H   H513      1.0  0.15890  0.67252  0.93230  1.0000
  C   C300      1.0  0.07291  0.85952  0.51286  1.0000
  C   C301      1.0  0.08183  0.84064  0.49231  1.0000
  C   C302      1.0  0.10976  0.82952  0.49143  1.0000
  C   C303      1.0  0.12916  0.83704  0.51115  1.0000
  C   C304      1.0  0.12051  0.85644  0.53130  1.0000
  C   C305      1.0  0.09249  0.86764  0.53211  1.0000
  H   H514      1.0  0.99653  0.72072  0.53552  1.0000
  C   C306      1.0  0.12474  0.69579  0.95427  1.0000
  H   H515      1.0  0.13538  0.86274  0.54628  1.0000
  H   H516      1.0  0.08589  0.88244  0.54794  1.0000
  C   C307      1.0  0.05915  0.86482  0.92315  1.0000
  C   C308      1.0  0.06981  0.83752  0.91835  1.0000
  C   C309      1.0  0.09898  0.83186  0.91329  1.0000
  C   C310      1.0  0.11738  0.85349  0.91329  1.0000
  C   C311      1.0  0.10631  0.88068  0.91710  1.0000
  C   C312      1.0  0.07756  0.88627  0.92203  1.0000
  C   C313      1.0  0.20704  0.48322  0.82289  1.0000
  C   C314      1.0  0.14767  0.63538  0.87720  1.0000
  H   H517      1.0  0.12011  0.89764  0.91664  1.0000
  C   C315      1.0  0.20751  0.72771  0.80065  1.0000
  C   C316      1.0  0.19796  0.71812  0.82850  1.0000
  C   C317      1.0  0.17128  0.70774  0.83324  1.0000
  C   C318      1.0  0.15378  0.70507  0.81004  1.0000
  C   C319      1.0  0.16328  0.71366  0.78180  1.0000
  C   C320      1.0  0.18993  0.72504  0.77725  1.0000
  H   H518      1.0  0.21138  0.71802  0.84669  1.0000
  H   H519      1.0  0.16449  0.70117  0.85516  1.0000
  H   H520      1.0  0.15004  0.71195  0.76361  1.0000
  H   H521      1.0  0.19694  0.73188  0.75564  1.0000
  H   H522      1.0  0.13533  0.65803  0.60726  1.0000
  H   H523      1.0  0.01431  0.65464  0.89364  1.0000
  C   C321      1.0  0.19651  0.62512  0.80306  1.0000
  H   H524      1.0  0.08666  0.91415  0.48764  1.0000
  H   H525      1.0  0.13734  0.90882  0.48626  1.0000
  H   H526      1.0  0.01750  0.71495  0.83987  1.0000
  H   H527      1.0  0.13445  0.62933  0.92197  1.0000
  C   C322      1.0  0.14636  0.61698  0.90572  1.0000
  C   C323      1.0  0.21355  0.62179  0.51573  1.0000
  H   H528      1.0  0.17823  0.92868  0.90878  1.0000
  H   H529      1.0  0.16036  0.93109  0.54524  1.0000
  H   H530      1.0  0.13260  0.97237  0.49098  1.0000
  S   S82       1.0  0.05454  0.56771  0.52017  1.0000
  H   H531      1.0  0.08032  0.64687  0.57585  1.0000
  H   H532      1.0  0.06959  0.90740  0.92544  1.0000
  H   H533      1.0  0.19487  0.88118  0.62211  1.0000
  H   H534      1.0  0.12630  0.64383  0.87135  1.0000
  H   H535      1.0  0.05571  0.82079  0.91895  1.0000
  H   H536      1.0  0.17167  0.96824  0.86521  1.0000
  H   H537      1.0  0.11935  0.59633  0.95354  1.0000
  C   C324      1.0  0.10078  0.66300  0.67987  1.0000
  C   C325      1.0  0.11908  0.64379  0.66577  1.0000
  C   C326      1.0  0.14457  0.63320  0.67814  1.0000
  C   C327      1.0  0.15203  0.64148  0.70515  1.0000
  C   C328      1.0  0.13351  0.66025  0.71955  1.0000
  C   C329      1.0  0.10816  0.67102  0.70700  1.0000
  H   H538      1.0  0.11315  0.63656  0.64539  1.0000
  H   H539      1.0  0.15820  0.61838  0.66698  1.0000
  H   H540      1.0  0.13892  0.66680  0.74049  1.0000
  H   H541      1.0  0.09470  0.68610  0.71800  1.0000
  S   S83       1.0  0.21365  0.82563  0.85800  1.0000
  S   S84       1.0  0.02623  0.61681  0.80134  1.0000
  S   S85       1.0  0.18301  0.79317  0.79402  1.0000
  C   C330      1.0  0.18519  0.80336  0.69247  1.0000
  Fe  Fe42      1.0  0.05588  0.64736  0.50806  1.0000
  C   C331      1.0  0.10321  0.68314  0.55884  1.0000
  C   C332      1.0  0.14305  0.72672  0.52939  1.0000
  C   C333      1.0  0.08235  0.66876  0.58111  1.0000
  C   C334      1.0  0.16294  0.73290  0.50330  1.0000
  C   C335      1.0  0.05301  0.68342  0.58064  1.0000
  H   H542      1.0  0.15034  0.68223  0.52738  1.0000
  H   H543      1.0  0.10555  0.67048  0.53968  1.0000
  H   H544      1.0  0.09284  0.70317  0.54988  1.0000
  H   H545      1.0  0.12139  0.72826  0.52135  1.0000
  H   H546      1.0  0.14503  0.74334  0.54450  1.0000
  C   C336      1.0  0.22114  0.91041  0.59894  1.0000
  H   H547      1.0  0.20521  0.55759  0.48142  1.0000
  H   H548      1.0  0.16002  0.49210  0.96505  1.0000
  H   H549      1.0  0.04421  0.68374  0.55868  1.0000
  H   H550      1.0  0.03891  0.67224  0.59654  1.0000
  H   H551      1.0  0.05369  0.70517  0.58666  1.0000
  N   N18       1.0  0.08639  0.79423  0.82376  1.0000
  C   C337      1.0  0.07339  0.78061  0.79948  1.0000
  C   C338      1.0  0.06331  0.81037  0.83977  1.0000
  C   C339      1.0  0.10826  0.81311  0.81093  1.0000
  C   C340      1.0  0.10037  0.77272  0.84491  1.0000
  C   C341      1.0  0.08192  0.74897  0.85714  1.0000
  C   C342      1.0  0.09367  0.76211  0.78091  1.0000
  C   C343      1.0  0.12287  0.82982  0.83300  1.0000
  C   C344      1.0  0.05263  0.83860  0.82423  1.0000
  C   C345      1.0  0.02675  0.85109  0.83997  1.0000
  C   C346      1.0  0.09661  0.73077  0.88127  1.0000
  C   C347      1.0  0.07758  0.74556  0.76074  1.0000
  C   C348      1.0  0.13802  0.85410  0.81773  1.0000
  H   H552      1.0  0.06332  0.79663  0.78393  1.0000
  H   H553      1.0  0.05592  0.76785  0.80815  1.0000
  H   H554      1.0  0.04483  0.79751  0.84400  1.0000
  H   H555      1.0  0.06986  0.81473  0.86180  1.0000
  H   H556      1.0  0.09948  0.82767  0.79317  1.0000
  H   H557      1.0  0.12536  0.80057  0.80021  1.0000
  H   H558      1.0  0.11993  0.76299  0.83507  1.0000
  H   H559      1.0  0.10759  0.78299  0.86389  1.0000
  H   H560      1.0  0.07734  0.73529  0.83976  1.0000
  H   H561      1.0  0.06185  0.75754  0.86646  1.0000
  H   H562      1.0  0.10792  0.77517  0.76710  1.0000
  H   H563      1.0  0.10663  0.74695  0.79465  1.0000
  H   H564      1.0  0.13869  0.81587  0.84478  1.0000
  H   H565      1.0  0.10808  0.83852  0.84949  1.0000
  H   H566      1.0  0.06884  0.85410  0.82371  1.0000
  H   H567      1.0  0.04718  0.83594  0.80151  1.0000
  H   H568      1.0  0.05314  0.70803  0.95790  1.0000
  H   H569      1.0  0.12129  0.79789  0.96145  1.0000
  H   H570      1.0  0.22960  0.79356  0.69493  1.0000
  H   H571      1.0  0.09980  0.74316  0.90012  1.0000
  H   H572      1.0  0.08357  0.71311  0.88855  1.0000
  H   H573      1.0  0.11723  0.72211  0.87307  1.0000
  H   H574      1.0  0.06463  0.75980  0.74577  1.0000
  H   H575      1.0  0.09259  0.73266  0.74759  1.0000
  H   H576      1.0  0.06374  0.73137  0.77372  1.0000
  H   H577      1.0  0.14977  0.86426  0.83395  1.0000
  H   H578      1.0  0.15324  0.84656  0.80086  1.0000
  H   H579      1.0  0.12276  0.86982  0.80741  1.0000
  C   C349      1.0  0.22428  0.60708  0.95786  1.0000
  C   C350      1.0  0.11006  0.52893  0.86717  1.0000
  H   H580      1.0  0.11121  0.71494  0.94881  1.0000
  H   H581      1.0  0.15410  0.53410  0.86323  1.0000
  N   N19       1.0  0.03707  0.78972  0.58492  1.0000
  C   C351      1.0  0.04460  0.77180  0.55983  1.0000
  H   H582      1.0  0.23486  0.88579  0.50020  1.0000
  C   C352      1.0  0.00925  0.80537  0.57839  1.0000
  C   C353      1.0  0.05833  0.81087  0.58929  1.0000
  C   C354      1.0  0.08952  0.80252  0.58193  1.0000
  C   C355      1.0  0.04294  0.78721  0.52915  1.0000
  H   H583      1.0  0.00107  0.62124  0.86006  1.0000
  H   H584      1.0  0.03115  0.54914  0.84375  1.0000
  H   H585      1.0  0.03044  0.75430  0.56017  1.0000
  C   C356      1.0  0.10921  0.82143  0.59550  1.0000
  C   C357      1.0  0.05640  0.76946  0.50569  1.0000
  H   H586      1.0  0.17170  0.89346  0.51439  1.0000
  H   H587      1.0  0.03231  0.50424  0.58891  1.0000
  H   H588      1.0  0.06583  0.76140  0.56160  1.0000
  H   H589      1.0  0.02441  0.54034  0.76627  1.0000
  C   C358      1.0  0.99469  0.82117  0.60351  1.0000
  C   C359      1.0  0.23987  0.68497  0.69548  1.0000
  N   N20       1.0  0.23271  0.70615  0.67063  1.0000
  H   H590      1.0  0.05357  0.83070  0.57571  1.0000
  H   H591      1.0  0.05673  0.81703  0.61214  1.0000
  H   H592      1.0  0.09330  0.80423  0.55796  1.0000
  H   H593      1.0  0.09565  0.78091  0.58980  1.0000
  H   H594      1.0  0.02074  0.79209  0.52333  1.0000
  H   H595      1.0  0.05342  0.80697  0.52876  1.0000
  H   H596      1.0  0.02441  0.50224  0.89596  1.0000
  H   H597      1.0  0.15794  0.79859  0.95104  1.0000
  H   H598      1.0  0.21666  0.64073  0.62042  1.0000
  H   H599      1.0  0.00852  0.67299  0.48061  1.0000
  H   H600      1.0  0.17511  0.49649  0.79259  1.0000
  H   H601      1.0  0.00421  0.85312  0.78153  1.0000
  H   H602      1.0  0.12506  0.97219  0.54005  1.0000
  H   H603      1.0  0.10908  0.81741  0.61953  1.0000
  H   H604      1.0  0.13098  0.81716  0.58700  1.0000
  H   H605      1.0  0.10290  0.84378  0.59021  1.0000
  H   H606      1.0  0.99365  0.73447  0.94816  1.0000
  H   H607      1.0  0.07876  0.76366  0.51008  1.0000
  H   H608      1.0  0.04634  0.53721  0.57771  1.0000
  H   H609      1.0  0.12529  0.48285  0.52494  1.0000
  H   H610      1.0  0.99263  0.57447  0.82118  1.0000
  C   C360      1.0  0.07326  0.76049  0.64799  1.0000
  H   H611      1.0  0.01903  0.57986  0.59319  1.0000
  H   H612      1.0  0.08673  0.95015  0.49577  1.0000
  Fe  Fe43      1.0  0.20922  0.75418  0.90202  1.0000
  H   H613      1.0  0.17263  0.69678  0.55098  1.0000
  H   H614      1.0  0.16740  0.75105  0.63103  1.0000
  Fe  Fe44      1.0  0.20859  0.80439  0.61049  1.0000
  H   H615      1.0  0.20756  0.87740  0.47655  1.0000
  H   H616      1.0  0.08696  0.97830  0.92950  1.0000
  C   C361      1.0  0.19285  0.90146  0.51318  1.0000
  C   C362      1.0  0.18651  0.53317  0.81456  1.0000
  H   H617      1.0  0.15630  0.62309  0.85922  1.0000
  N   N21       1.0  0.13150  0.68823  0.57006  1.0000
  C   C363      1.0  0.12718  0.71052  0.59133  1.0000
  S   S86       1.0  0.24117  0.80604  0.53081  1.0000
  C   C364      1.0  0.14523  0.66235  0.58544  1.0000
  S   S87       1.0  0.02914  0.62765  0.54388  1.0000
  H   H618      1.0  0.14285  0.75133  0.94908  1.0000
  H   H619      1.0  0.18623  0.61739  0.58399  1.0000
  H   H620      1.0  0.17043  0.72418  0.58821  1.0000
  H   H621      1.0  0.20177  0.64188  0.51963  1.0000
  H   H622      1.0  0.16738  0.66581  0.58992  1.0000
  H   H623      1.0  0.18767  0.95337  0.54782  1.0000
  H   H624      1.0  0.16320  0.86911  0.65923  1.0000
  H   H625      1.0  0.11311  0.70369  0.60991  1.0000
  C   C365      1.0  0.13522  0.54573  0.82020  1.0000
  H   H626      1.0  0.11297  0.50640  0.86324  1.0000
  C   C366      1.0  0.14554  0.63521  0.56932  1.0000
  C   C367      1.0  0.18363  0.87987  0.72078  1.0000
  H   H627      1.0  0.04905  0.73049  0.63021  1.0000
  H   H628      1.0  0.13328  0.73917  0.64116  1.0000
  N   N22       1.0  0.17829  0.58687  0.94228  1.0000
  H   H629      1.0  0.00966  0.83373  0.61389  1.0000
  H   H630      1.0  0.20583  0.87342  0.68082  1.0000
  C   C368      1.0  0.17615  0.60839  0.91671  1.0000
  H   H631      1.0  0.99357  0.52682  0.69841  1.0000
  H   H632      1.0  0.18931  0.60102  0.89797  1.0000
  H   H633      1.0  0.15330  0.63845  0.54645  1.0000
  H   H634      1.0  0.11626  0.81454  0.47574  1.0000
  C   C369      1.0  0.15409  0.71903  0.60498  1.0000
  H   H635      1.0  0.16982  0.86303  0.71693  1.0000
  C   C370      1.0  0.19341  0.91970  0.64532  1.0000
  H   H636      1.0  0.08816  0.86707  0.68109  1.0000
  H   H637      1.0  0.13443  0.59880  0.90157  1.0000
  C   C371      1.0  0.20905  0.89720  0.62742  1.0000
  H   H638      1.0  0.14525  0.56192  0.92925  1.0000
  C   C372      1.0  0.15460  0.51055  0.94988  1.0000
  C   C373      1.0  0.12638  0.88929  0.67926  1.0000
  C   C374      1.0  0.16407  0.61180  0.58446  1.0000
  H   H639      1.0  0.17819  0.55440  0.91223  1.0000
  H   H640      1.0  0.10729  0.81079  0.91026  1.0000
  H   H641      1.0  0.06503  0.51549  0.74480  1.0000
  H   H642      1.0  0.13265  0.56621  0.86119  1.0000
  H   H643      1.0  0.16733  0.74680  0.71921  1.0000
  H   H644      1.0  0.17993  0.93252  0.62965  1.0000
  H   H645      1.0  0.13608  0.94887  0.58910  1.0000
  C   C375      1.0  0.23167  0.65463  0.60868  1.0000
  H   H646      1.0  0.13224  0.51729  0.95391  1.0000
  H   H647      1.0  0.20458  0.84993  0.96116  1.0000
  H   H648      1.0  0.16263  0.70170  0.62002  1.0000
  H   H649      1.0  0.20321  0.60457  0.52846  1.0000
  C   C376      1.0  0.03129  0.52673  0.59305  1.0000
  H   H650      1.0  0.12421  0.62769  0.56946  1.0000
  H   H651      1.0  0.18544  0.69930  0.70985  1.0000
  C   C377      1.0  0.19609  0.89190  0.69144  1.0000
  H   H652      1.0  0.15663  0.60751  0.60740  1.0000
  C   C378      1.0  0.17742  0.90554  0.95091  1.0000
  H   H653      1.0  0.14798  0.89832  0.63851  1.0000
  C   C379      1.0  0.14776  0.74442  0.62255  1.0000
  C   C380      1.0  0.00779  0.73325  0.82845  1.0000
  H   H654      1.0  0.16300  0.59236  0.57304  1.0000
  H   H655      1.0  0.05517  0.78131  0.48412  1.0000
  H   H656      1.0  0.13846  0.76229  0.60879  1.0000
  H   H657      1.0  0.02519  0.54569  0.69779  1.0000
  H   H658      1.0  0.20577  0.67670  0.65421  1.0000
  H   H659      1.0  0.08704  0.74291  0.65745  1.0000
  H   H660      1.0  0.21598  0.63311  0.79273  1.0000
  H   H661      1.0  0.21545  0.93669  0.49884  1.0000
  C   C381      1.0  0.22696  0.70705  0.96427  1.0000
  S   S88       1.0  0.23371  0.52068  0.51945  1.0000
  H   H662      1.0  0.04431  0.56932  0.93406  1.0000
  C   C382      1.0  0.16798  0.55983  0.93339  1.0000
  N   N23       1.0  0.00744  0.53288  0.81036  1.0000
  H   H663      1.0  0.15921  0.89444  0.94516  1.0000
  S   S89       1.0  0.00383  0.67648  0.71982  1.0000
  H   H664      1.0  0.02625  0.78339  0.63103  1.0000
  C   C383      1.0  0.15419  0.89094  0.66100  1.0000
  S   S90       1.0  0.00008  0.79751  0.94862  1.0000
  H   H665      1.0  0.15180  0.53163  0.76792  1.0000
  H   H666      1.0  0.19459  0.59329  0.77336  1.0000
  H   H667      1.0  0.20448  0.74206  0.66003  1.0000
  C   C384      1.0  0.03798  0.72576  0.95189  1.0000
  C   C385      1.0  0.17710  0.93312  0.93212  1.0000
  H   H668      1.0  0.13405  0.94698  0.65167  1.0000
  H   H669      1.0  0.19678  0.62766  0.82675  1.0000
  H   H670      1.0  0.15948  0.57338  0.71447  1.0000
  C   C386      1.0  0.09842  0.93332  0.48425  1.0000
  H   H671      1.0  0.17207  0.58222  0.83640  1.0000
  H   H672      1.0  0.15368  0.55807  0.48701  1.0000
  C   C387      1.0  0.19483  0.59443  0.79720  1.0000
  H   H673      1.0  0.17840  0.63794  0.79360  1.0000
  H   H674      1.0  0.08431  0.54121  0.76077  1.0000
  C   C388      1.0  0.05745  0.51801  0.79158  1.0000
  H   H675      1.0  0.21274  0.70580  0.62924  1.0000
  H   H676      1.0  0.21983  0.85084  0.72874  1.0000
  H   H677      1.0  0.12868  0.52557  0.81311  1.0000
  S   S91       1.0  0.00335  0.75495  0.88176  1.0000
  Fe  Fe45      1.0  0.01803  0.59880  0.51032  1.0000
  H   H678      1.0  0.18019  0.55293  0.76110  1.0000
  C   C389      1.0  0.12775  0.92762  0.49621  1.0000
  S   S92       1.0  0.04199  0.62109  0.47377  1.0000
  H   H679      1.0  0.01127  0.71586  0.78645  1.0000
  C   C390      1.0  0.16390  0.93386  0.68648  1.0000
  H   H680      1.0  0.22252  0.67077  0.69981  1.0000
  S   S93       1.0  0.06032  0.69303  0.49639  1.0000
  C   C391      1.0  0.00455  0.69139  0.93610  1.0000
  C   C392      1.0  0.18104  0.50172  0.81447  1.0000
  H   H681      1.0  0.14000  0.72698  0.70709  1.0000
  H   H682      1.0  0.15749  0.75419  0.49318  1.0000
  H   H683      1.0  0.21139  0.85933  0.51187  1.0000
  H   H684      1.0  0.15310  0.50601  0.51641  1.0000
  H   H685      1.0  0.10153  0.87587  0.64467  1.0000
  H   H686      1.0  0.03886  0.56001  0.79195  1.0000
  H   H687      1.0  0.20538  0.53671  0.80018  1.0000
  H   H688      1.0  0.12999  0.88260  0.70236  1.0000
  H   H689      1.0  0.00532  0.61440  0.62612  1.0000
  C   C393      1.0  0.07649  0.52001  0.76428  1.0000
  H   H690      1.0  0.19680  0.89318  0.94503  1.0000
  H   H691      1.0  0.03095  0.85312  0.86326  1.0000
  H   H692      1.0  0.19338  0.53713  0.83663  1.0000
  H   H693      1.0  0.12512  0.92287  0.51998  1.0000
  H   H694      1.0  0.21495  0.55525  0.56500  1.0000
  C   C394      1.0  0.05777  0.75063  0.62246  1.0000
  H   H695      1.0  0.13110  0.55041  0.72130  1.0000
  H   H696      1.0  0.01478  0.75791  0.60963  1.0000
  S   S94       1.0  0.22781  0.55244  0.71916  1.0000
  H   H697      1.0  0.11780  0.57393  0.76680  1.0000
  H   H698      1.0  0.10850  0.53098  0.89104  1.0000
  H   H699      1.0  0.11451  0.90990  0.67852  1.0000
  H   H700      1.0  0.05137  0.49615  0.79531  1.0000
  H   H701      1.0  0.15756  0.94613  0.93635  1.0000
  S   S95       1.0  0.24103  0.97113  0.55699  1.0000
  H   H702      1.0  0.19549  0.52562  0.95241  1.0000
  C   C395      1.0  0.13480  0.54460  0.85398  1.0000
  C   C396      1.0  0.16861  0.58218  0.81269  1.0000
  H   H703      1.0  0.07505  0.97948  0.87675  1.0000
  H   H704      1.0  0.07002  0.52268  0.81024  1.0000
  H   H705      1.0  0.12378  0.58757  0.71495  1.0000
  C   C397      1.0  0.16757  0.95172  0.53697  1.0000
  C   C398      1.0  0.22246  0.69069  0.64608  1.0000
  H   H706      1.0  0.11794  0.56119  0.81349  1.0000
  C   C399      1.0  0.01910  0.53057  0.84057  1.0000
  C   C400      1.0  0.03138  0.53900  0.78907  1.0000
  C   C401      1.0  0.99720  0.52788  0.86615  1.0000
  H   H707      1.0  0.19553  0.94491  0.93651  1.0000
  H   H708      1.0  0.15770  0.50430  0.92721  1.0000
  H   H709      1.0  0.14988  0.92740  0.70509  1.0000
  H   H710      1.0  0.20406  0.91802  0.58425  1.0000
  C   C402      1.0  0.20902  0.58169  0.94882  1.0000
  H   H711      1.0  0.22659  0.88657  0.63969  1.0000
  H   H712      1.0  0.05846  0.76704  0.66565  1.0000
  C   C403      1.0  0.14235  0.68922  0.92715  1.0000
  N   N24       1.0  0.16246  0.55333  0.80510  1.0000
  H   H713      1.0  0.21558  0.74047  0.69563  1.0000
  C   C404      1.0  0.01156  0.52235  0.89529  1.0000
  C   C405      1.0  0.15947  0.55208  0.77273  1.0000
  H   H714      1.0  0.12864  0.68230  0.91054  1.0000
  H   H715      1.0  0.16115  0.71756  0.48670  1.0000
  C   C406      1.0  0.13847  0.57119  0.72512  1.0000
  Fe  Fe46      1.0  0.00272  0.85717  0.48950  1.0000
  N   N25       1.0  0.17266  0.95340  0.50438  1.0000
  H   H716      1.0  0.15022  0.59714  0.80855  1.0000
  C   C407      1.0  0.20682  0.86683  0.74025  1.0000
  H   H717      1.0  0.14630  0.59617  0.76005  1.0000
  C   C408      1.0  0.19380  0.93037  0.49591  1.0000
  C   C409      1.0  0.13944  0.57492  0.75766  1.0000
  C   C410      1.0  0.00427  0.73372  0.79824  1.0000
  C   C411      1.0  0.18161  0.71425  0.69067  1.0000
  H   H718      1.0  0.22077  0.57336  0.92974  1.0000
  H   H719      1.0  0.07290  0.74491  0.60508  1.0000
  C   C412      1.0  0.04993  0.60401  0.95999  1.0000
  H   H720      1.0  0.02145  0.56715  0.64434  1.0000
  H   H721      1.0  0.16406  0.49605  0.83042  1.0000
  C   C413      1.0  0.99823  0.75611  0.84401  1.0000
  H   H722      1.0  0.15226  0.70823  0.91772  1.0000
  H   H723      1.0  0.01472  0.49281  0.76435  1.0000
  C   C414      1.0  0.14750  0.95652  0.66682  1.0000
  H   H724      1.0  0.15564  0.75302  0.68262  1.0000
  H   H725      1.0  0.03435  0.51217  0.84347  1.0000
  H   H726      1.0  0.19749  0.85653  0.76037  1.0000
  H   H727      1.0  0.01769  0.67346  0.94561  1.0000
  C   C415      1.0  0.16313  0.57113  0.46974  1.0000
  H   H728      1.0  0.04278  0.73382  0.92916  1.0000
  H   H729      1.0  0.04482  0.75032  0.50472  1.0000
  S   S96       1.0  0.20950  0.71320  0.93073  1.0000
  H   H730      1.0  0.22053  0.88299  0.74656  1.0000
  S   S97       1.0  0.23809  0.76141  0.86306  1.0000
  H   H731      1.0  0.12288  0.98018  0.87984  1.0000
  H   H732      1.0  0.21375  0.90467  0.69627  1.0000
  H   H733      1.0  0.17195  0.70318  0.67373  1.0000
  H   H734      1.0  0.08627  0.77808  0.64096  1.0000
  C   C416      1.0  0.03283  0.77098  0.61230  1.0000
  H   H735      1.0  0.11125  0.52227  0.48905  1.0000
  H   H736      1.0  0.00902  0.83762  0.83831  1.0000
  H   H737      1.0  0.05722  0.50998  0.47126  1.0000
  H   H738      1.0  0.18498  0.73221  0.51033  1.0000
  H   H739      1.0  0.02076  0.87217  0.82974  1.0000
  C   C417      1.0  0.00150  0.53951  0.58831  1.0000
  C   C418      1.0  0.10752  0.86869  0.66720  1.0000
  H   H740      1.0  0.19973  0.90290  0.53573  1.0000
  C   C419      1.0  0.20928  0.72699  0.67894  1.0000
  C   C420      1.0  0.99893  0.56262  0.64676  1.0000
  H   H741      1.0  0.18092  0.94445  0.69636  1.0000
  C   C421      1.0  0.00202  0.54750  0.70052  1.0000
  H   H742      1.0  0.05328  0.96487  0.92447  1.0000
  H   H743      1.0  0.03801  0.52864  0.61553  1.0000
  H   H744      1.0  0.22632  0.62307  0.93941  1.0000
  H   H745      1.0  0.17182  0.89595  0.73307  1.0000
  H   H746      1.0  0.99487  0.57828  0.76614  1.0000
  H   H747      1.0  0.20930  0.93374  0.65211  1.0000
  H   H748      1.0  0.23512  0.89486  0.58793  1.0000
  H   H749      1.0  0.22453  0.66446  0.74956  1.0000
  Fe  Fe47      1.0  0.23964  0.49332  0.48066  1.0000
  C   C422      1.0  0.14012  0.49049  0.50751  1.0000
  H   H750      1.0  0.99552  0.52125  0.91331  1.0000
  H   H751      1.0  0.23177  0.66746  0.82683  1.0000
  H   H752      1.0  0.09481  0.50473  0.76679  1.0000
  H   H753      1.0  0.99407  0.79085  0.57133  1.0000
  H   H754      1.0  0.23372  0.92811  0.60327  1.0000
  H   H755      1.0  0.06698  0.83398  0.47765  1.0000
  C   C423      1.0  0.14606  0.97390  0.54897  1.0000
  C   C424      1.0  0.05827  0.63138  0.95984  1.0000
  C   C425      1.0  0.15745  0.97952  0.84914  1.0000
  H   H756      1.0  0.02524  0.53950  0.89882  1.0000
  H   H757      1.0  0.16342  0.97283  0.59214  1.0000
  H   H758      1.0  0.23010  0.55841  0.61564  1.0000
  C   C426      1.0  0.23956  0.54234  0.60256  1.0000
  H   H759      1.0  0.22455  0.48702  0.80690  1.0000
  H   H760      1.0  0.11271  0.96493  0.69750  1.0000
  H   H761      1.0  0.16248  0.96937  0.65360  1.0000
  H   H762      1.0  0.11094  0.67832  0.95963  1.0000
  H   H763      1.0  0.23455  0.67536  0.86421  1.0000
  C   C427      1.0  0.23100  0.54045  0.57386  1.0000
  H   H764      1.0  0.22066  0.66821  0.59155  1.0000
  H   H765      1.0  0.01472  0.69650  0.91435  1.0000
  H   H766      1.0  0.19260  0.92709  0.47233  1.0000
  H   H767      1.0  0.21282  0.61834  0.49226  1.0000
  C   C428      1.0  0.00804  0.71633  0.95481  1.0000
  H   H768      1.0  0.00622  0.48777  0.81729  1.0000
  H   H769      1.0  0.21356  0.48735  0.84497  1.0000
  H   H770      1.0  0.99659  0.58987  0.68308  1.0000
  H   H771      1.0  0.99841  0.53965  0.64576  1.0000
  C   C429      1.0  0.14279  0.79068  0.96799  1.0000
  H   H772      1.0  0.23790  0.63957  0.85511  1.0000
  C   C430      1.0  0.99336  0.49770  0.77353  1.0000
  C   C431      1.0  0.99458  0.50574  0.80546  1.0000
  H   H773      1.0  0.99657  0.60642  0.89678  1.0000
  H   H774      1.0  0.21193  0.56545  0.96714  1.0000
  H   H775      1.0  0.23338  0.71479  0.73003  1.0000
  H   H776      1.0  0.99672  0.55415  0.72258  1.0000
  Fe  Fe48      1.0  0.23915  0.76955  0.56383  1.0000
  C   C432      1.0  0.14311  0.96997  0.58214  1.0000
  C   C433      1.0  0.99798  0.57105  0.59428  1.0000
  H   H777      1.0  0.04040  0.74275  0.96645  1.0000
  C   C434      1.0  0.18519  0.98105  0.49572  1.0000
  H   H778      1.0  0.25763  0.38087  0.38448  1.0000
  Fe  Fe49      1.0  0.27246  0.44871  0.44586  1.0000
  S   S98       1.0  0.30937  0.41530  0.44421  1.0000
  S   S99       1.0  0.25786  0.45557  0.99398  1.0000
  C   C435      1.0  0.31491  0.40987  0.14574  1.0000
  Fe  Fe50      1.0  0.29165  0.46486  0.02428  1.0000
  S   S100      1.0  0.32440  0.43101  0.04114  1.0000
  S   S101      1.0  0.27761  0.00964  0.02003  1.0000
  Fe  Fe51      1.0  0.47207  0.36938  0.39452  1.0000
  S   S102      1.0  0.43970  0.40520  0.40555  1.0000
  S   S103      1.0  0.46529  0.32715  0.37877  1.0000
  H   H779      1.0  0.27410  0.47228  0.29635  1.0000
  C   C436      1.0  0.33801  0.42686  0.13091  1.0000
  S   S104      1.0  0.45638  0.40053  0.03452  1.0000
  H   H780      1.0  0.35002  0.45704  0.42545  1.0000
  H   H781      1.0  0.40019  0.46164  0.08240  1.0000
  H   H782      1.0  0.34486  0.45097  0.16657  1.0000
  H   H783      1.0  0.46047  0.24193  0.99148  1.0000
  C   C437      1.0  0.36985  0.44336  0.34054  1.0000
  H   H784      1.0  0.46471  0.24231  0.04610  1.0000
  H   H785      1.0  0.38561  0.21931  0.00349  1.0000
  H   H786      1.0  0.42942  0.42178  0.12876  1.0000
  H   H787      1.0  0.29021  0.42253  0.32060  1.0000
  C   C438      1.0  0.36106  0.42256  0.03825  1.0000
  C   C439      1.0  0.37245  0.39908  0.05491  1.0000
  C   C440      1.0  0.40151  0.39181  0.05400  1.0000
  C   C441      1.0  0.41949  0.40787  0.03615  1.0000
  C   C442      1.0  0.40804  0.43113  0.01921  1.0000
  C   C443      1.0  0.37905  0.43854  0.02032  1.0000
  H   H788      1.0  0.35870  0.38650  0.06878  1.0000
  H   H789      1.0  0.40997  0.37384  0.06712  1.0000
  H   H790      1.0  0.42174  0.44349  0.00518  1.0000
  H   H791      1.0  0.37058  0.45651  0.00734  1.0000
  C   C444      1.0  0.34536  0.41296  0.43227  1.0000
  C   C445      1.0  0.35957  0.38642  0.43140  1.0000
  C   C446      1.0  0.38826  0.38346  0.42292  1.0000
  C   C447      1.0  0.40316  0.40710  0.41507  1.0000
  C   C448      1.0  0.38880  0.43358  0.41535  1.0000
  C   C449      1.0  0.36027  0.43654  0.42421  1.0000
  H   H792      1.0  0.39889  0.36291  0.42278  1.0000
  H   H793      1.0  0.39995  0.45197  0.40885  1.0000
  H   H794      1.0  0.44835  0.14423  0.97540  1.0000
  H   H795      1.0  0.46334  0.03879  0.98944  1.0000
  H   H796      1.0  0.34050  0.21465  0.98101  1.0000
  C   C450      1.0  0.45408  0.15852  0.99174  1.0000
  C   C451      1.0  0.31650  0.46793  0.31292  1.0000
  C   C452      1.0  0.31125  0.46904  0.36729  1.0000
  H   H797      1.0  0.35003  0.46484  0.08441  1.0000
  H   H798      1.0  0.34090  0.41966  0.36653  1.0000
  H   H799      1.0  0.31656  0.46502  0.14481  1.0000
  H   H800      1.0  0.34742  0.05564  0.98112  1.0000
  H   H801      1.0  0.44630  0.47220  0.96970  1.0000
  S   S105      1.0  0.48561  0.32856  0.29468  1.0000
  H   H802      1.0  0.39168  0.40995  0.31733  1.0000
  H   H803      1.0  0.37178  0.45759  0.32069  1.0000
  H   H804      1.0  0.31541  0.38909  0.13662  1.0000
  S   S106      1.0  0.26175  0.47964  0.05944  1.0000
  H   H805      1.0  0.28779  0.99703  0.22510  1.0000
  H   H806      1.0  0.40203  0.16384  0.97568  1.0000
  H   H807      1.0  0.29699  0.09427  0.45688  1.0000
  C   C453      1.0  0.44453  0.20356  0.01271  1.0000
  N   N26       1.0  0.31498  0.45093  0.34172  1.0000
  H   H808      1.0  0.26902  0.07314  0.44830  1.0000
  H   H809      1.0  0.46674  0.10183  0.00593  1.0000
  H   H810      1.0  0.34839  0.36795  0.43767  1.0000
  H   H811      1.0  0.28869  0.47524  0.37140  1.0000
  Fe  Fe52      1.0  0.30530  0.99206  0.98394  1.0000
  C   C454      1.0  0.39939  0.44862  0.10327  1.0000
  H   H812      1.0  0.29399  0.42062  0.14168  1.0000
  H   H813      1.0  0.27005  0.44681  0.34150  1.0000
  C   C455      1.0  0.28301  0.07793  0.46574  1.0000
  H   H814      1.0  0.31796  0.40668  0.16956  1.0000
  H   H815      1.0  0.47675  0.16187  0.98739  1.0000
  H   H816      1.0  0.39144  0.40391  0.35645  1.0000
  H   H817      1.0  0.25964  0.38448  0.34523  1.0000
  Fe  Fe53      1.0  0.48688  0.36774  0.05721  1.0000
  H   H818      1.0  0.38642  0.43104  0.10007  1.0000
  H   H819      1.0  0.34655  0.98569  0.11765  1.0000
  H   H820      1.0  0.46204  0.31890  0.23993  1.0000
  C   C456      1.0  0.48138  0.32890  0.23472  1.0000
  H   H821      1.0  0.32161  0.45399  0.29494  1.0000
  H   H822      1.0  0.37426  0.45458  0.35978  1.0000
  H   H823      1.0  0.46814  0.10367  0.04472  1.0000
  H   H824      1.0  0.43155  0.19847  0.03272  1.0000
  H   H825      1.0  0.41883  0.46983  0.44925  1.0000
  C   C457      1.0  0.25968  0.39601  0.36522  1.0000
  H   H826      1.0  0.42304  0.24389  0.99660  1.0000
  H   H827      1.0  0.46406  0.45862  0.03564  1.0000
  H   H828      1.0  0.43772  0.42534  0.09038  1.0000
  H   H829      1.0  0.35818  0.41467  0.13480  1.0000
  H   H830      1.0  0.44709  0.27324  0.02928  1.0000
  C   C458      1.0  0.47107  0.11558  0.02336  1.0000
  C   C459      1.0  0.45107  0.14168  0.02172  1.0000
  H   H831      1.0  0.42953  0.13455  0.02520  1.0000
  H   H832      1.0  0.31760  0.45690  0.38767  1.0000
  N   N27       1.0  0.35719  0.47652  0.12801  1.0000
  C   C460      1.0  0.40643  0.18005  0.99068  1.0000
  C   C461      1.0  0.33854  0.45572  0.14369  1.0000
  C   C462      1.0  0.28991  0.43334  0.34119  1.0000
  C   C463      1.0  0.39302  0.42009  0.33806  1.0000
  H   H833      1.0  0.41389  0.42888  0.33856  1.0000
  H   H834      1.0  0.34000  0.41471  0.32865  1.0000
  C   C464      1.0  0.28701  0.41060  0.36661  1.0000
  C   C465      1.0  0.34072  0.43102  0.34456  1.0000
  N   N28       1.0  0.43698  0.18609  0.98841  1.0000
  H   H835      1.0  0.46663  0.19829  0.01903  1.0000
  C   C466      1.0  0.48404  0.25974  0.12832  1.0000
  H   H836      1.0  0.30430  0.39410  0.36581  1.0000
  H   H837      1.0  0.28733  0.42002  0.38774  1.0000
  H   H838      1.0  0.47380  0.28029  0.13335  1.0000
  C   C467      1.0  0.42924  0.43671  0.10916  1.0000
  C   C468      1.0  0.36767  0.05102  0.97078  1.0000
  H   H839      1.0  0.39190  0.45331  0.14930  1.0000
  H   H840      1.0  0.38140  0.09269  0.97315  1.0000
  H   H841      1.0  0.42697  0.24728  0.04930  1.0000
  H   H842      1.0  0.34942  0.18430  0.00502  1.0000
  H   H843      1.0  0.33401  0.42864  0.10732  1.0000
  H   H844      1.0  0.40098  0.17068  0.01277  1.0000
  H   H845      1.0  0.47998  0.25619  0.10534  1.0000
  C   C469      1.0  0.44556  0.25046  0.03459  1.0000
  H   H846      1.0  0.45575  0.15423  0.03998  1.0000
  H   H847      1.0  0.44317  0.45373  0.11240  1.0000
  C   C470      1.0  0.44290  0.23581  0.00659  1.0000
  C   C471      1.0  0.47516  0.47836  0.03300  1.0000
  C   C472      1.0  0.35539  0.19607  0.98430  1.0000
  S   S107      1.0  0.48531  0.32919  0.08858  1.0000
  H   H848      1.0  0.48997  0.44762  0.08030  1.0000
  C   C473      1.0  0.38771  0.46606  0.12856  1.0000
  C   C474      1.0  0.48625  0.04134  0.98723  1.0000
  H   H849      1.0  0.47752  0.32762  0.18805  1.0000
  C   C475      1.0  0.49017  0.33378  0.20516  1.0000
  C   C476      1.0  0.38524  0.20544  0.98535  1.0000
  H   H850      1.0  0.45026  0.43543  0.45861  1.0000
  H   H851      1.0  0.47463  0.24301  0.14266  1.0000
  C   C477      1.0  0.33623  0.11395  0.58931  1.0000
  S   S108      1.0  0.27021  0.99251  0.95229  1.0000
  H   H852      1.0  0.28734  0.07039  0.52935  1.0000
  C   C478      1.0  0.47562  0.41107  0.48952  1.0000
  Fe  Fe54      1.0  0.30668  0.01502  0.54556  1.0000
  S   S109      1.0  0.34265  0.04340  0.53349  1.0000
  C   C479      1.0  0.41358  0.06659  0.95277  1.0000
  S   S110      1.0  0.27279  0.02405  0.57917  1.0000
  S   S111      1.0  0.27570  0.01177  0.51036  1.0000
  H   H853      1.0  0.29608  0.05871  0.47229  1.0000
  H   H854      1.0  0.37471  0.98656  0.84692  1.0000
  S   S112      1.0  0.43813  0.07912  0.61421  1.0000
  H   H855      1.0  0.41419  0.18348  0.93124  1.0000
  H   H856      1.0  0.38976  0.21755  0.96449  1.0000
  H   H857      1.0  0.31201  0.14369  0.50749  1.0000
  H   H858      1.0  0.39127  0.12839  0.63507  1.0000
  H   H859      1.0  0.47099  0.02955  0.70570  1.0000
  C   C480      1.0  0.41703  0.11647  0.73759  1.0000
  H   H860      1.0  0.41498  0.08410  0.68462  1.0000
  C   C481      1.0  0.32041  0.11791  0.56091  1.0000
  H   H861      1.0  0.28585  0.14122  0.48150  1.0000
  H   H862      1.0  0.39641  0.11014  0.79508  1.0000
  H   H863      1.0  0.44121  0.18972  0.88492  1.0000
  C   C482      1.0  0.36910  0.05296  0.55626  1.0000
  C   C483      1.0  0.36866  0.04577  0.58621  1.0000
  C   C484      1.0  0.39008  0.05377  0.60348  1.0000
  C   C485      1.0  0.41202  0.06935  0.59113  1.0000
  C   C486      1.0  0.41234  0.07673  0.56120  1.0000
  C   C487      1.0  0.39102  0.06852  0.54388  1.0000
  H   H864      1.0  0.35168  0.03422  0.59609  1.0000
  H   H865      1.0  0.38955  0.04799  0.62662  1.0000
  H   H866      1.0  0.42894  0.08888  0.55141  1.0000
  H   H867      1.0  0.39148  0.07436  0.52075  1.0000
  C   C488      1.0  0.47586  0.03080  0.53888  1.0000
  H   H868      1.0  0.35868  0.11785  0.58489  1.0000
  C   C489      1.0  0.43717  0.18501  0.93206  1.0000
  H   H869      1.0  0.43200  0.41016  0.48153  1.0000
  H   H870      1.0  0.38813  0.00086  0.50630  1.0000
  H   H871      1.0  0.35529  0.39197  0.53080  1.0000
  C   C490      1.0  0.44485  0.20005  0.95904  1.0000
  C   C491      1.0  0.41910  0.10663  0.68517  1.0000
  H   H872      1.0  0.34022  0.41856  0.50534  1.0000
  H   H873      1.0  0.47192  0.99749  0.95693  1.0000
  H   H874      1.0  0.29431  0.19260  0.51532  1.0000
  C   C492      1.0  0.42045  0.03972  0.94386  1.0000
  H   H875      1.0  0.37509  0.11339  0.69941  1.0000
  C   C493      1.0  0.35899  0.46966  0.93779  1.0000
  H   H876      1.0  0.24759  0.14589  0.51660  1.0000
  C   C494      1.0  0.32734  0.46515  0.94337  1.0000
  C   C495      1.0  0.37762  0.11917  0.65282  1.0000
  C   C496      1.0  0.46268  0.18627  0.69476  1.0000
  H   H877      1.0  0.44054  0.03527  0.93316  1.0000
  H   H878      1.0  0.47011  0.13568  0.72206  1.0000
  H   H879      1.0  0.48061  0.99865  0.89681  1.0000
  H   H880      1.0  0.33201  0.10514  0.54486  1.0000
  H   H881      1.0  0.32128  0.46949  0.96612  1.0000
  H   H882      1.0  0.39195  0.43531  0.47299  1.0000
  H   H883      1.0  0.36737  0.39367  0.49330  1.0000
  H   H884      1.0  0.40679  0.99791  0.94184  1.0000
  C   C497      1.0  0.38818  0.44713  0.49263  1.0000
  H   H885      1.0  0.32086  0.14035  0.55357  1.0000
  C   C498      1.0  0.38706  0.07202  0.96621  1.0000
  C   C499      1.0  0.48711  0.04518  0.70238  1.0000
  C   C500      1.0  0.32095  0.43491  0.93974  1.0000
  H   H886      1.0  0.26728  0.18997  0.48925  1.0000
  H   H887      1.0  0.25358  0.10786  0.48445  1.0000
  H   H888      1.0  0.31378  0.47887  0.92870  1.0000
  H   H889      1.0  0.43496  0.22147  0.95595  1.0000
  H   H890      1.0  0.29044  0.08779  0.57616  1.0000
  H   H891      1.0  0.30373  0.18790  0.47773  1.0000
  H   H892      1.0  0.46831  0.08782  0.73662  1.0000
  H   H893      1.0  0.44735  0.16371  0.93218  1.0000
  H   H894      1.0  0.36775  0.98714  0.53702  1.0000
  H   H895      1.0  0.47406  0.40055  0.51175  1.0000
  H   H896      1.0  0.37564  0.09678  0.64937  1.0000
  H   H897      1.0  0.40139  0.41252  0.52463  1.0000
  H   H898      1.0  0.44055  0.06770  0.72685  1.0000
  Fe  Fe55      1.0  0.47791  0.10291  0.60466  1.0000
  H   H899      1.0  0.48132  0.39492  0.47392  1.0000
  H   H900      1.0  0.35966  0.98552  0.61089  1.0000
  H   H901      1.0  0.45206  0.20727  0.69008  1.0000
  H   H902      1.0  0.37455  0.43676  0.53809  1.0000
  H   H903      1.0  0.36945  0.45704  0.95606  1.0000
  C   C501      1.0  0.47340  0.07405  0.69370  1.0000
  N   N29       1.0  0.41173  0.46594  0.49589  1.0000
  H   H904      1.0  0.46054  0.04793  0.53138  1.0000
  H   H905      1.0  0.47786  0.18209  0.67654  1.0000
  H   H906      1.0  0.45043  0.01541  0.57493  1.0000
  H   H907      1.0  0.46980  0.20256  0.90329  1.0000
  H   H908      1.0  0.43627  0.22233  0.90194  1.0000
  H   H909      1.0  0.42320  0.01319  0.53133  1.0000
  H   H910      1.0  0.33494  0.09232  0.59926  1.0000
  H   H911      1.0  0.32735  0.12879  0.60507  1.0000
  C   C502      1.0  0.38072  0.98147  0.51775  1.0000
  H   H912      1.0  0.34097  0.98468  0.86520  1.0000
  C   C503      1.0  0.29020  0.15049  0.50206  1.0000
  H   H913      1.0  0.40315  0.47082  0.54166  1.0000
  H   H914      1.0  0.40231  0.13494  0.73327  1.0000
  H   H915      1.0  0.43017  0.16514  0.67686  1.0000
  H   H916      1.0  0.46190  0.07223  0.67357  1.0000
  N   N30       1.0  0.43602  0.11130  0.71138  1.0000
  H   H917      1.0  0.39740  0.14716  0.78453  1.0000
  C   C504      1.0  0.46087  0.00696  0.55525  1.0000
  C   C505      1.0  0.41031  0.12768  0.79052  1.0000
  C   C506      1.0  0.44767  0.42621  0.48124  1.0000
  C   C507      1.0  0.33972  0.99798  0.81991  1.0000
  C   C508      1.0  0.43176  0.12120  0.76618  1.0000
  H   H918      1.0  0.33303  0.42044  0.95530  1.0000
  H   H919      1.0  0.30489  0.09709  0.50990  1.0000
  H   H920      1.0  0.36608  0.45903  0.91790  1.0000
  H   H921      1.0  0.40352  0.09853  0.74226  1.0000
  C   C509      1.0  0.26852  0.14155  0.52642  1.0000
  H   H922      1.0  0.26881  0.15631  0.54390  1.0000
  H   H923      1.0  0.44466  0.10233  0.77406  1.0000
  H   H924      1.0  0.28079  0.12329  0.58258  1.0000
  H   H925      1.0  0.42140  0.13065  0.81073  1.0000
  C   C510      1.0  0.35993  0.40639  0.51154  1.0000
  H   H926      1.0  0.43141  0.11180  0.66469  1.0000
  C   C511      1.0  0.38982  0.12231  0.68252  1.0000
  H   H927      1.0  0.39048  0.14489  0.68534  1.0000
  H   H928      1.0  0.46858  0.13049  0.68480  1.0000
  H   H929      1.0  0.39573  0.99789  0.57162  1.0000
  C   C512      1.0  0.38236  0.42581  0.51875  1.0000
  H   H930      1.0  0.44538  0.13906  0.76308  1.0000
  C   C513      1.0  0.44096  0.16419  0.69784  1.0000
  C   C514      1.0  0.28376  0.09158  0.51813  1.0000
  H   H931      1.0  0.47433  0.18641  0.71516  1.0000
  C   C515      1.0  0.28868  0.18220  0.49579  1.0000
  H   H932      1.0  0.24976  0.07246  0.49791  1.0000
  S   S113      1.0  0.35136  0.99635  0.96799  1.0000
  H   H933      1.0  0.36809  0.45964  0.48893  1.0000
  H   H934      1.0  0.42583  0.17006  0.71543  1.0000
  H   H935      1.0  0.35652  0.13016  0.65164  1.0000
  H   H936      1.0  0.33988  0.02038  0.82424  1.0000
  C   C516      1.0  0.45403  0.08488  0.71875  1.0000
  C   C517      1.0  0.45517  0.13470  0.70434  1.0000
  N   N31       1.0  0.27167  0.11176  0.53950  1.0000
  C   C518      1.0  0.28981  0.10957  0.56584  1.0000
  H   H937      1.0  0.46778  0.20279  0.95771  1.0000
  C   C519      1.0  0.43898  0.99550  0.53591  1.0000
  C   C520      1.0  0.40118  0.01861  0.94871  1.0000
  H   H938      1.0  0.32610  0.42932  0.91713  1.0000
  S   S114      1.0  0.48873  0.13552  0.89606  1.0000
  H   H939      1.0  0.44901  0.99142  0.51435  1.0000
  H   H940      1.0  0.31762  0.99284  0.81772  1.0000
  Fe  Fe56      1.0  0.48188  0.09912  0.92884  1.0000
  C   C521      1.0  0.44670  0.20099  0.90389  1.0000
  H   H941      1.0  0.46378  0.46612  0.93534  1.0000
  C   C522      1.0  0.24312  0.10235  0.54962  1.0000
  H   H942      1.0  0.29828  0.43230  0.94431  1.0000
  S   S115      1.0  0.48125  0.14543  0.62144  1.0000
  C   C523      1.0  0.43883  0.44914  0.50239  1.0000
  C   C524      1.0  0.37461  0.02408  0.96215  1.0000
  H   H943      1.0  0.43820  0.43911  0.52495  1.0000
  C   C525      1.0  0.26540  0.08812  0.49167  1.0000
  H   H944      1.0  0.47708  0.99058  0.56228  1.0000
  H   H945      1.0  0.41377  0.45767  0.93350  1.0000
  S   S116      1.0  0.43718  0.09408  0.94806  1.0000
  H   H946      1.0  0.45646  0.46319  0.50186  1.0000
  H   H947      1.0  0.35153  0.99470  0.79912  1.0000
  H   H948      1.0  0.24472  0.07999  0.55810  1.0000
  H   H949      1.0  0.34399  0.98393  0.49121  1.0000
  H   H950      1.0  0.48809  0.02318  0.51979  1.0000
  H   H951      1.0  0.49037  0.08841  0.68847  1.0000
  H   H952      1.0  0.49046  0.05566  0.96782  1.0000
  H   H953      1.0  0.42291  0.98221  0.59321  1.0000
  C   C526      1.0  0.41974  0.47966  0.93211  1.0000
  H   H954      1.0  0.49051  0.03940  0.55358  1.0000
  C   C527      1.0  0.44802  0.47998  0.94647  1.0000
  H   H955      1.0  0.35356  0.18263  0.96595  1.0000
  S   S117      1.0  0.43383  0.75931  0.33249  1.0000
  H   H956      1.0  0.34422  0.65940  0.01667  1.0000
  H   H957      1.0  0.26832  0.81851  0.39678  1.0000
  H   H958      1.0  0.36237  0.73722  0.39247  1.0000
  Fe  Fe57      1.0  0.26288  0.52301  0.03753  1.0000
  S   S118      1.0  0.27685  0.56406  0.05458  1.0000
  H   H959      1.0  0.36588  0.87758  0.09106  1.0000
  H   H960      1.0  0.40134  0.93318  0.02220  1.0000
  C   C528      1.0  0.31272  0.86789  0.02414  1.0000
  H   H961      1.0  0.41764  0.48819  0.03096  1.0000
  Fe  Fe58      1.0  0.29611  0.86103  0.28899  1.0000
  S   S119      1.0  0.28600  0.90735  0.28112  1.0000
  S   S120      1.0  0.34203  0.84909  0.27783  1.0000
  H   H962      1.0  0.34045  0.72654  0.44785  1.0000
  H   H963      1.0  0.26672  0.72765  0.17044  1.0000
  H   H964      1.0  0.31636  0.92298  0.22284  1.0000
  H   H965      1.0  0.33325  0.97042  0.22491  1.0000
  S   S121      1.0  0.26034  0.85030  0.26215  1.0000
  C   C529      1.0  0.34301  0.96450  0.11104  1.0000
  C   C530      1.0  0.39760  0.67724  0.19135  1.0000
  S   S122      1.0  0.30474  0.62720  0.43372  1.0000
  C   C531      1.0  0.40536  0.81310  0.39056  1.0000
  C   C532      1.0  0.45286  0.85986  0.29787  1.0000
  S   S123      1.0  0.27333  0.72871  0.25709  1.0000
  H   H966      1.0  0.37171  0.49523  0.45717  1.0000
  C   C533      1.0  0.25858  0.77839  0.08780  1.0000
  H   H967      1.0  0.26208  0.89074  0.45299  1.0000
  Fe  Fe59      1.0  0.42145  0.78833  0.19671  1.0000
  S   S124      1.0  0.41711  0.83496  0.19940  1.0000
  S   S125      1.0  0.38491  0.76226  0.18690  1.0000
  Fe  Fe60      1.0  0.44831  0.83656  0.16201  1.0000
  H   H968      1.0  0.34414  0.70635  0.39463  1.0000
  Fe  Fe61      1.0  0.45477  0.82849  0.22789  1.0000
  H   H969      1.0  0.42180  0.90951  0.33940  1.0000
  S   S126      1.0  0.45084  0.79075  0.15754  1.0000
  S   S127      1.0  0.45799  0.78144  0.22694  1.0000
  H   H970      1.0  0.33678  0.65121  0.16667  1.0000
  H   H971      1.0  0.41905  0.62629  0.17033  1.0000
  S   S128      1.0  0.26107  0.64375  0.37934  1.0000
  Fe  Fe62      1.0  0.29338  0.66416  0.40349  1.0000
  S   S129      1.0  0.28824  0.70752  0.42034  1.0000
  Fe  Fe63      1.0  0.29648  0.62852  0.34926  1.0000
  S   S130      1.0  0.30704  0.58905  0.37730  1.0000
  S   S131      1.0  0.30064  0.63605  0.29933  1.0000
  Fe  Fe64      1.0  0.27343  0.60601  0.40881  1.0000
  Fe  Fe65      1.0  0.33680  0.61429  0.39990  1.0000
  S   S132      1.0  0.38442  0.60686  0.40158  1.0000
  S   S133      1.0  0.32723  0.65296  0.37102  1.0000
  Fe  Fe66      1.0  0.31115  0.58767  0.06886  1.0000
  S   S134      1.0  0.31831  0.61925  0.09864  1.0000
  S   S135      1.0  0.35227  0.58189  0.04277  1.0000
  Fe  Fe67      1.0  0.28242  0.58847  0.13296  1.0000
  S   S136      1.0  0.29419  0.57513  0.18078  1.0000
  Fe  Fe68      1.0  0.27028  0.64450  0.07509  1.0000
  S   S137      1.0  0.26820  0.68927  0.05371  1.0000
  S   S138      1.0  0.29365  0.54865  0.10580  1.0000
  S   S139      1.0  0.27222  0.61766  0.04094  1.0000
  H   H972      1.0  0.26005  0.75335  0.44773  1.0000
  C   C534      1.0  0.36011  0.50801  0.08021  1.0000
  S   S140      1.0  0.27154  0.85784  0.33162  1.0000
  C   C535      1.0  0.32060  0.93502  0.20176  1.0000
  H   H973      1.0  0.32352  0.52428  0.46596  1.0000
  H   H974      1.0  0.45148  0.62859  0.31034  1.0000
  C   C536      1.0  0.29928  0.61835  0.26671  1.0000
  C   C537      1.0  0.29667  0.58953  0.26686  1.0000
  C   C538      1.0  0.29511  0.57682  0.24032  1.0000
  C   C539      1.0  0.29508  0.59274  0.21341  1.0000
  C   C540      1.0  0.29749  0.62152  0.21329  1.0000
  C   C541      1.0  0.30051  0.63406  0.23966  1.0000
  H   H975      1.0  0.29557  0.57719  0.28738  1.0000
  H   H976      1.0  0.29331  0.55461  0.24047  1.0000
  H   H977      1.0  0.29682  0.63410  0.19291  1.0000
  H   H978      1.0  0.30207  0.65643  0.23923  1.0000
  C   C542      1.0  0.43613  0.56654  0.08777  1.0000
  C   C543      1.0  0.43515  0.57431  0.05800  1.0000
  C   C544      1.0  0.40922  0.57884  0.04465  1.0000
  C   C545      1.0  0.38413  0.57731  0.06111  1.0000
  C   C546      1.0  0.38510  0.57153  0.09130  1.0000
  C   C547      1.0  0.41107  0.56529  0.10449  1.0000
  H   H979      1.0  0.40980  0.92924  0.18363  1.0000
  H   H980      1.0  0.36583  0.57093  0.10430  1.0000
  H   H981      1.0  0.41174  0.55962  0.12761  1.0000
  H   H982      1.0  0.46247  0.90131  0.16262  1.0000
  C   C548      1.0  0.43478  0.60340  0.42834  1.0000
  C   C549      1.0  0.40599  0.59938  0.43198  1.0000
  C   C550      1.0  0.34610  0.67122  0.97148  1.0000
  C   C551      1.0  0.27796  0.71826  0.12622  1.0000
  H   H983      1.0  0.33002  0.51957  0.04728  1.0000
  H   H984      1.0  0.28899  0.51232  0.20774  1.0000
  H   H985      1.0  0.25913  0.75598  0.08384  1.0000
  C   C552      1.0  0.39577  0.58789  0.45875  1.0000
  H   H986      1.0  0.46727  0.52049  0.04867  1.0000
  H   H987      1.0  0.35826  0.63601  0.19563  1.0000
  H   H988      1.0  0.39708  0.80006  0.99613  1.0000
  C   C553      1.0  0.45569  0.86034  0.06337  1.0000
  H   H989      1.0  0.46442  0.93786  0.35036  1.0000
  H   H990      1.0  0.44086  0.87808  0.05966  1.0000
  H   H991      1.0  0.27933  0.49535  0.32418  1.0000
  C   C554      1.0  0.30522  0.73660  0.23848  1.0000
  C   C555      1.0  0.32189  0.75642  0.24914  1.0000
  C   C556      1.0  0.34680  0.76415  0.23419  1.0000
  C   C557      1.0  0.35489  0.75251  0.20805  1.0000
  C   C558      1.0  0.33817  0.73276  0.19746  1.0000
  C   C559      1.0  0.31383  0.72436  0.21286  1.0000
  H   H992      1.0  0.31545  0.76599  0.26905  1.0000
  H   H993      1.0  0.35934  0.77946  0.24268  1.0000
  H   H994      1.0  0.34389  0.72420  0.17700  1.0000
  H   H995      1.0  0.30140  0.70883  0.20474  1.0000
  C   C560      1.0  0.34302  0.87244  0.20580  1.0000
  H   H996      1.0  0.30310  0.50066  0.26124  1.0000
  C   C561      1.0  0.33667  0.88046  0.45596  1.0000
  S   S141      1.0  0.27467  0.93752  0.07911  1.0000
  Fe  Fe69      1.0  0.48512  0.81930  0.97115  1.0000
  Fe  Fe70      1.0  0.25953  0.50073  0.97589  1.0000
  H   H997      1.0  0.43104  0.66803  0.35721  1.0000
  C   C562      1.0  0.27959  0.79163  0.18169  1.0000
  H   H998      1.0  0.47895  0.71924  0.06043  1.0000
  H   H999      1.0  0.40860  0.58276  0.02135  1.0000
  C   C563      1.0  0.27390  0.80559  0.21013  1.0000
  C   C564      1.0  0.35379  0.50307  0.14381  1.0000
  H   H1000     1.0  0.27123  0.78913  0.04286  1.0000
  C   C565      1.0  0.27096  0.95964  0.43654  1.0000
  C   C566      1.0  0.40263  0.79587  0.01926  1.0000
  H   H1001     1.0  0.43268  0.73219  0.25396  1.0000
  C   C567      1.0  0.26613  0.59190  0.09543  1.0000
  H   H1002     1.0  0.43322  0.59869  0.97674  1.0000
  C   C568      1.0  0.25645  0.62577  0.14164  1.0000
  C   C569      1.0  0.26889  0.62175  0.11295  1.0000
  H   H1003     1.0  0.26018  0.64443  0.15204  1.0000
  H   H1004     1.0  0.27102  0.60593  0.09726  1.0000
  H   H1005     1.0  0.47614  0.93030  0.14030  1.0000
  H   H1006     1.0  0.43105  0.66131  0.30399  1.0000
  S   S142      1.0  0.48719  0.63226  0.08038  1.0000
  C   C570      1.0  0.38848  0.65104  0.09061  1.0000
  H   H1007     1.0  0.26744  0.70563  0.32806  1.0000
  H   H1008     1.0  0.28772  0.68272  0.15733  1.0000
  C   C571      1.0  0.40816  0.78334  0.31590  1.0000
  C   C572      1.0  0.41505  0.80275  0.29313  1.0000
  C   C573      1.0  0.39450  0.82254  0.28176  1.0000
  C   C574      1.0  0.36666  0.82301  0.29270  1.0000
  C   C575      1.0  0.35948  0.80308  0.31495  1.0000
  C   C576      1.0  0.38016  0.78341  0.32649  1.0000
  H   H1009     1.0  0.43638  0.80288  0.28462  1.0000
  H   H1010     1.0  0.40038  0.83787  0.26466  1.0000
  H   H1011     1.0  0.33810  0.80292  0.32336  1.0000
  H   H1012     1.0  0.37447  0.76847  0.34402  1.0000
  N   N32       1.0  0.33947  0.86391  0.40341  1.0000
  C   C577      1.0  0.33574  0.87587  0.37244  1.0000
  C   C578      1.0  0.31547  0.84581  0.41214  1.0000
  C   C579      1.0  0.33769  0.88814  0.42262  1.0000
  C   C580      1.0  0.36734  0.84774  0.40786  1.0000
  C   C581      1.0  0.38033  0.83258  0.38156  1.0000
  C   C582      1.0  0.35577  0.89894  0.36185  1.0000
  H   H1013     1.0  0.38050  0.53698  0.42482  1.0000
  C   C583      1.0  0.31384  0.81904  0.39570  1.0000
  H   H1014     1.0  0.41162  0.89229  0.24108  1.0000
  C   C584      1.0  0.35824  0.90240  0.32866  1.0000
  H   H1015     1.0  0.48132  0.95239  0.98017  1.0000
  H   H1016     1.0  0.31398  0.88532  0.36972  1.0000
  H   H1017     1.0  0.33779  0.85931  0.35684  1.0000
  H   H1018     1.0  0.33388  0.48214  0.31211  1.0000
  H   H1019     1.0  0.29520  0.85841  0.40984  1.0000
  H   H1020     1.0  0.31896  0.90240  0.41753  1.0000
  H   H1021     1.0  0.35598  0.90116  0.41800  1.0000
  H   H1022     1.0  0.38354  0.86167  0.41395  1.0000
  C   C585      1.0  0.40028  0.91391  0.19966  1.0000
  H   H1023     1.0  0.38778  0.84784  0.36422  1.0000
  C   C586      1.0  0.45333  0.59569  0.45095  1.0000
  H   H1024     1.0  0.34752  0.91926  0.36976  1.0000
  H   H1025     1.0  0.42764  0.75103  0.11597  1.0000
  H   H1026     1.0  0.41747  0.53256  0.43118  1.0000
  H   H1027     1.0  0.31440  0.82356  0.37178  1.0000
  H   H1028     1.0  0.36668  0.52571  0.21242  1.0000
  H   H1029     1.0  0.40044  0.50680  0.41242  1.0000
  H   H1030     1.0  0.35327  0.66369  0.06406  1.0000
  H   H1031     1.0  0.33215  0.51287  0.14157  1.0000
  H   H1032     1.0  0.33720  0.90632  0.31924  1.0000
  H   H1033     1.0  0.37100  0.92034  0.32181  1.0000
  C   C587      1.0  0.33909  0.84368  0.19527  1.0000
  H   H1034     1.0  0.27155  0.87921  0.00767  1.0000
  H   H1035     1.0  0.32225  0.98009  0.18833  1.0000
  H   H1036     1.0  0.31516  0.87500  0.46318  1.0000
  N   N33       1.0  0.39290  0.61936  0.30036  1.0000
  C   C588      1.0  0.38267  0.64475  0.28139  1.0000
  C   C589      1.0  0.41118  0.59929  0.28281  1.0000
  C   C590      1.0  0.36733  0.60450  0.31138  1.0000
  C   C591      1.0  0.40794  0.62723  0.32643  1.0000
  C   C592      1.0  0.36727  0.66891  0.29728  1.0000
  C   C593      1.0  0.37297  0.57590  0.32911  1.0000
  C   C594      1.0  0.42957  0.61188  0.25730  1.0000
  H   H1037     1.0  0.27505  0.52197  0.27752  1.0000
  C   C595      1.0  0.35568  0.55328  0.31858  1.0000
  H   H1038     1.0  0.36880  0.63845  0.26438  1.0000
  H   H1039     1.0  0.40018  0.65456  0.26947  1.0000
  H   H1040     1.0  0.42553  0.58609  0.29739  1.0000
  H   H1041     1.0  0.39811  0.58445  0.27273  1.0000
  H   H1042     1.0  0.35373  0.60154  0.29283  1.0000
  H   H1043     1.0  0.35387  0.61754  0.32583  1.0000
  H   H1044     1.0  0.39354  0.63987  0.34054  1.0000
  H   H1045     1.0  0.41409  0.60833  0.34076  1.0000
  H   H1046     1.0  0.35101  0.66147  0.31299  1.0000
  H   H1047     1.0  0.38253  0.67973  0.30923  1.0000
  H   H1048     1.0  0.36726  0.57827  0.35241  1.0000
  H   H1049     1.0  0.39519  0.56803  0.32864  1.0000
  H   H1050     1.0  0.41607  0.61984  0.23901  1.0000
  H   H1051     1.0  0.45082  0.64955  0.19919  1.0000
  H   H1052     1.0  0.36265  0.95533  0.10107  1.0000
  H   H1053     1.0  0.36170  0.53307  0.33050  1.0000
  H   H1054     1.0  0.33299  0.55856  0.32269  1.0000
  H   H1055     1.0  0.35966  0.55105  0.29495  1.0000
  H   H1056     1.0  0.47525  0.48497  0.00938  1.0000
  H   H1057     1.0  0.33618  0.53082  0.39004  1.0000
  C   C596      1.0  0.38220  0.74360  0.44522  1.0000
  Fe  Fe71      1.0  0.26858  0.96502  0.03568  1.0000
  H   H1058     1.0  0.31973  0.84709  0.06622  1.0000
  H   H1059     1.0  0.38315  0.53737  0.17819  1.0000
  H   H1060     1.0  0.28662  0.78503  0.39263  1.0000
  C   C597      1.0  0.36543  0.71426  0.39247  1.0000
  H   H1061     1.0  0.32507  0.87757  0.22077  1.0000
  H   H1062     1.0  0.25328  0.58304  0.98708  1.0000
  H   H1063     1.0  0.27511  0.97846  0.44667  1.0000
  C   C598      1.0  0.35566  0.94204  0.16086  1.0000
  H   H1064     1.0  0.33147  0.80383  0.40182  1.0000
  H   H1065     1.0  0.37594  0.81068  0.14093  1.0000
  H   H1066     1.0  0.35221  0.52781  0.08923  1.0000
  H   H1067     1.0  0.45345  0.77507  0.38538  1.0000
  H   H1068     1.0  0.32668  0.96657  0.09433  1.0000
  H   H1069     1.0  0.44006  0.57260  0.23740  1.0000
  H   H1070     1.0  0.39694  0.49263  0.97091  1.0000
  C   C599      1.0  0.26489  0.73708  0.46463  1.0000
  N   N34       1.0  0.42628  0.68521  0.18006  1.0000
  H   H1071     1.0  0.36874  0.88330  0.32000  1.0000
  H   H1072     1.0  0.39857  0.71528  0.35848  1.0000
  H   H1073     1.0  0.27941  0.89707  0.03868  1.0000
  S   S143      1.0  0.46855  0.55682  0.10365  1.0000
  H   H1074     1.0  0.38668  0.69495  0.20238  1.0000
  H   H1075     1.0  0.36352  0.71634  0.34540  1.0000
  C   C600      1.0  0.35177  0.51022  0.04849  1.0000
  H   H1076     1.0  0.43322  0.51695  0.00982  1.0000
  C   C601      1.0  0.27399  0.73934  0.15005  1.0000
  H   H1077     1.0  0.45154  0.63517  0.36294  1.0000
  H   H1078     1.0  0.31921  0.84377  0.18360  1.0000
  C   C602      1.0  0.28674  0.80472  0.40381  1.0000
  C   C603      1.0  0.25614  0.72094  0.00243  1.0000
  H   H1079     1.0  0.37370  0.58444  0.46174  1.0000
  H   H1080     1.0  0.28497  0.79948  0.42767  1.0000
  C   C604      1.0  0.29652  0.69273  0.13680  1.0000
  H   H1081     1.0  0.39446  0.75509  0.46002  1.0000
  H   H1082     1.0  0.39130  0.71429  0.99421  1.0000
  H   H1083     1.0  0.39853  0.79573  0.40560  1.0000
  H   H1084     1.0  0.37397  0.63363  0.05304  1.0000
  H   H1085     1.0  0.36252  0.87054  0.21829  1.0000
  H   H1086     1.0  0.29547  0.74523  0.15406  1.0000
  H   H1087     1.0  0.33865  0.82812  0.21433  1.0000
  H   H1088     1.0  0.31378  0.84751  0.01426  1.0000
  H   H1089     1.0  0.27108  0.86089  0.04333  1.0000
  C   C605      1.0  0.27183  0.90891  0.13349  1.0000
  H   H1090     1.0  0.28994  0.78277  0.12016  1.0000
  H   H1091     1.0  0.34576  0.54301  0.18397  1.0000
  H   H1092     1.0  0.47436  0.82172  0.31502  1.0000
  H   H1093     1.0  0.34795  0.69577  0.00910  1.0000
  H   H1094     1.0  0.25604  0.55911  0.31893  1.0000
  C   C606      1.0  0.26216  0.93286  0.11622  1.0000
  H   H1095     1.0  0.44088  0.90137  0.21749  1.0000
  H   H1096     1.0  0.36218  0.88797  0.16492  1.0000
  H   H1097     1.0  0.28885  0.72779  0.10668  1.0000
  H   H1098     1.0  0.29789  0.67724  0.12003  1.0000
  H   H1099     1.0  0.31798  0.69883  0.14059  1.0000
  H   H1100     1.0  0.47863  0.62295  0.14353  1.0000
  S   S144      1.0  0.49025  0.82726  0.44040  1.0000
  C   C607      1.0  0.43633  0.67993  0.45119  1.0000
  C   C608      1.0  0.41581  0.48346  0.46765  1.0000
  H   H1101     1.0  0.41551  0.52234  0.04419  1.0000
  C   C609      1.0  0.33319  0.94580  0.13721  1.0000
  C   C610      1.0  0.27599  0.50595  0.19020  1.0000
  C   C611      1.0  0.36328  0.83349  0.10062  1.0000
  C   C612      1.0  0.37820  0.93599  0.02075  1.0000
  C   C613      1.0  0.40188  0.69360  0.99004  1.0000
  C   C614      1.0  0.35501  0.73550  0.46230  1.0000
  H   H1102     1.0  0.31009  0.52333  0.28948  1.0000
  H   H1103     1.0  0.37596  0.63733  0.10573  1.0000
  H   H1104     1.0  0.44837  0.70371  0.27651  1.0000
  C   C615      1.0  0.26902  0.93454  0.45367  1.0000
  H   H1105     1.0  0.40531  0.81776  0.05750  1.0000
  H   H1106     1.0  0.38577  0.65551  0.15290  1.0000
  H   H1107     1.0  0.25912  0.82422  0.20672  1.0000
  S   S145      1.0  0.27365  0.49546  0.44534  1.0000
  C   C616      1.0  0.42368  0.70231  0.15135  1.0000
  C   C617      1.0  0.45058  0.71541  0.13825  1.0000
  C   C618      1.0  0.37655  0.66981  0.16865  1.0000
  C   C619      1.0  0.35148  0.65598  0.18344  1.0000
  C   C620      1.0  0.44394  0.73441  0.11096  1.0000
  H   H1108     1.0  0.40741  0.71967  0.15368  1.0000
  H   H1109     1.0  0.41620  0.68977  0.13439  1.0000
  H   H1110     1.0  0.43115  0.64525  0.13702  1.0000
  H   H1111     1.0  0.32276  0.88342  0.06566  1.0000
  H   H1112     1.0  0.46645  0.69896  0.13190  1.0000
  H   H1113     1.0  0.36875  0.68897  0.15578  1.0000
  H   H1114     1.0  0.34029  0.66996  0.19873  1.0000
  H   H1115     1.0  0.46313  0.74469  0.10286  1.0000
  H   H1116     1.0  0.43650  0.72210  0.09364  1.0000
  C   C621      1.0  0.29488  0.50926  0.28178  1.0000
  N   N35       1.0  0.40026  0.71977  0.43337  1.0000
  S   S146      1.0  0.48530  0.83454  0.19013  1.0000
  C   C622      1.0  0.38310  0.70045  0.41809  1.0000
  C   C623      1.0  0.42156  0.73166  0.41168  1.0000
  C   C624      1.0  0.44393  0.74866  0.42455  1.0000
  H   H1117     1.0  0.29593  0.77480  0.18608  1.0000
  C   C625      1.0  0.27810  0.79245  0.06504  1.0000
  H   H1118     1.0  0.48697  0.82017  0.11832  1.0000
  C   C626      1.0  0.37761  0.70703  0.36266  1.0000
  H   H1119     1.0  0.39973  0.89398  0.18930  1.0000
  H   H1120     1.0  0.45262  0.68795  0.43575  1.0000
  H   H1121     1.0  0.32859  0.49946  0.41172  1.0000
  H   H1122     1.0  0.39673  0.68305  0.40963  1.0000
  H   H1123     1.0  0.43261  0.71487  0.39947  1.0000
  C   C627      1.0  0.43489  0.64288  0.31956  1.0000
  C   C628      1.0  0.25226  0.78048  0.17130  1.0000
  H   H1124     1.0  0.37492  0.93268  0.15017  1.0000
  Fe  Fe72      1.0  0.48108  0.75488  0.32187  1.0000
  C   C629      1.0  0.41967  0.90876  0.22532  1.0000
  H   H1125     1.0  0.36559  0.52410  0.03515  1.0000
  S   S147      1.0  0.46903  0.88760  0.46562  1.0000
  C   C630      1.0  0.35983  0.50000  0.17682  1.0000
  C   C631      1.0  0.27857  0.71179  0.45724  1.0000
  H   H1126     1.0  0.37707  0.89432  0.37037  1.0000
  H   H1127     1.0  0.30061  0.52114  0.39438  1.0000
  C   C632      1.0  0.24355  0.95231  0.12911  1.0000
  H   H1128     1.0  0.34104  0.91855  0.03912  1.0000
  H   H1129     1.0  0.37936  0.68407  0.36136  1.0000
  H   H1130     1.0  0.36574  0.83204  0.42678  1.0000
  S   S148      1.0  0.44435  0.86561  0.12141  1.0000
  H   H1131     1.0  0.45261  0.59762  0.14291  1.0000
  C   C633      1.0  0.43689  0.63674  0.15913  1.0000
  H   H1132     1.0  0.48352  0.65271  0.41108  1.0000
  H   H1133     1.0  0.24391  0.66932  0.43934  1.0000
  C   C634      1.0  0.26663  0.78378  0.11923  1.0000
  S   S149      1.0  0.26056  0.93798  0.35377  1.0000
  C   C635      1.0  0.41413  0.70344  0.45881  1.0000
  H   H1134     1.0  0.35686  0.83715  0.18079  1.0000
  H   H1135     1.0  0.40457  0.82037  0.11681  1.0000
  H   H1136     1.0  0.32904  0.92536  0.12914  1.0000
  C   C636      1.0  0.44617  0.65988  0.17743  1.0000
  H   H1137     1.0  0.45662  0.73533  0.44039  1.0000
  H   H1138     1.0  0.37127  0.95718  0.02731  1.0000
  C   C637      1.0  0.26325  0.93595  0.39235  1.0000
  S   S150      1.0  0.46572  0.85801  0.26155  1.0000
  C   C638      1.0  0.36394  0.91392  0.04066  1.0000
  S   S151      1.0  0.42562  0.83702  0.46702  1.0000
  C   C639      1.0  0.44262  0.87122  0.35677  1.0000
  H   H1139     1.0  0.47275  0.93142  0.17930  1.0000
  C   C640      1.0  0.28179  0.87667  0.02897  1.0000
  H   H1140     1.0  0.46703  0.60440  0.17690  1.0000
  C   C641      1.0  0.45088  0.58994  0.24586  1.0000
  H   H1141     1.0  0.43385  0.76666  0.43545  1.0000
  C   C642      1.0  0.46034  0.61411  0.15551  1.0000
  C   C643      1.0  0.32650  0.49673  0.36467  1.0000
  H   H1142     1.0  0.41093  0.74575  0.39463  1.0000
  H   H1143     1.0  0.36271  0.81386  0.08966  1.0000
  H   H1144     1.0  0.47521  0.74298  0.38957  1.0000
  H   H1145     1.0  0.39971  0.65953  0.20824  1.0000
  H   H1146     1.0  0.24584  0.70288  0.37687  1.0000
  H   H1147     1.0  0.37595  0.75953  0.42762  1.0000
  C   C644      1.0  0.24535  0.92457  0.17628  1.0000
  H   H1148     1.0  0.46644  0.66645  0.16811  1.0000
  H   H1149     1.0  0.25781  0.71059  0.12012  1.0000
  C   C645      1.0  0.46229  0.84055  0.32037  1.0000
  H   H1150     1.0  0.36796  0.51882  0.13376  1.0000
  H   H1151     1.0  0.39591  0.88173  0.03204  1.0000
  H   H1152     1.0  0.34205  0.83838  0.11023  1.0000
  C   C646      1.0  0.44639  0.65306  0.34707  1.0000
  H   H1153     1.0  0.34917  0.49295  0.36036  1.0000
  C   C647      1.0  0.34482  0.89489  0.17997  1.0000
  H   H1154     1.0  0.37322  0.94721  0.21493  1.0000
  H   H1155     1.0  0.44140  0.62926  0.26383  1.0000
  H   H1156     1.0  0.45438  0.57535  0.04497  1.0000
  C   C648      1.0  0.38356  0.82754  0.12544  1.0000
  C   C649      1.0  0.32860  0.86492  0.05303  1.0000
  H   H1157     1.0  0.36993  0.91649  0.06326  1.0000
  H   H1158     1.0  0.43165  0.90012  0.28817  1.0000
  H   H1159     1.0  0.41163  0.83827  0.02381  1.0000
  C   C650      1.0  0.45709  0.84616  0.34984  1.0000
  H   H1160     1.0  0.42109  0.82434  0.40137  1.0000
  C   C651      1.0  0.43628  0.69242  0.23416  1.0000
  H   H1161     1.0  0.38553  0.84655  0.13728  1.0000
  Fe  Fe73      1.0  0.45398  0.85886  0.43401  1.0000
  S   S152      1.0  0.29501  0.50846  0.00416  1.0000
  C   C652      1.0  0.26062  0.91098  0.40956  1.0000
  H   H1162     1.0  0.41423  0.66957  0.04395  1.0000
  C   C653      1.0  0.46173  0.85018  0.09184  1.0000
  H   H1163     1.0  0.25638  0.89223  0.39938  1.0000
  C   C654      1.0  0.43820  0.88461  0.30514  1.0000
  C   C655      1.0  0.43286  0.89007  0.33428  1.0000
  H   H1164     1.0  0.42639  0.66279  0.44144  1.0000
  H   H1165     1.0  0.42506  0.78835  0.02009  1.0000
  S   S153      1.0  0.43703  0.88121  0.39277  1.0000
  H   H1166     1.0  0.28478  0.51460  0.16903  1.0000
  C   C656      1.0  0.37214  0.85846  0.07967  1.0000
  H   H1167     1.0  0.39542  0.85822  0.07802  1.0000
  H   H1168     1.0  0.46513  0.58144  0.26333  1.0000
  C   C657      1.0  0.39809  0.82267  0.03499  1.0000
  C   C658      1.0  0.46437  0.76018  0.40122  1.0000
  C   C659      1.0  0.36690  0.83381  0.03463  1.0000
  H   H1169     1.0  0.34200  0.70740  0.28825  1.0000
  H   H1170     1.0  0.36793  0.88341  0.00817  1.0000
  H   H1171     1.0  0.36465  0.91437  0.23095  1.0000
  N   N36       1.0  0.36001  0.86030  0.04978  1.0000
  C   C660      1.0  0.37265  0.88407  0.03161  1.0000
  H   H1172     1.0  0.37237  0.93471  0.99779  1.0000
  C   C661      1.0  0.42909  0.50739  0.03212  1.0000
  H   H1173     1.0  0.25999  0.80608  0.12206  1.0000
  H   H1174     1.0  0.46090  0.70588  0.19652  1.0000
  H   H1175     1.0  0.27132  0.88637  0.17616  1.0000
  C   C662      1.0  0.47794  0.91760  0.16136  1.0000
  H   H1176     1.0  0.46381  0.59972  0.22794  1.0000
  H   H1177     1.0  0.35370  0.81679  0.04355  1.0000
  C   C663      1.0  0.37504  0.65457  0.06096  1.0000
  H   H1178     1.0  0.44288  0.61214  0.40774  1.0000
  H   H1179     1.0  0.36133  0.83699  0.01130  1.0000
  H   H1180     1.0  0.46830  0.71883  0.24622  1.0000
  N   N37       1.0  0.25471  0.76508  0.14379  1.0000
  H   H1181     1.0  0.38322  0.50638  0.08133  1.0000
  C   C664      1.0  0.44709  0.71312  0.25382  1.0000
  H   H1182     1.0  0.38971  0.77931  0.02969  1.0000
  C   C665      1.0  0.26350  0.90474  0.16323  1.0000
  H   H1183     1.0  0.41543  0.80447  0.37088  1.0000
  H   H1184     1.0  0.42802  0.72457  0.19984  1.0000
  H   H1185     1.0  0.32367  0.48806  0.09817  1.0000
  H   H1186     1.0  0.36836  0.70042  0.26047  1.0000
  H   H1187     1.0  0.41434  0.68980  0.24130  1.0000
  H   H1188     1.0  0.33698  0.68108  0.26367  1.0000
  Fe  Fe74      1.0  0.24907  0.89640  0.25644  1.0000
  S   S154      1.0  0.29830  0.94799  0.00142  1.0000
  C   C666      1.0  0.43829  0.70319  0.20158  1.0000
  H   H1189     1.0  0.34176  0.49105  0.18922  1.0000
  H   H1190     1.0  0.46003  0.72840  0.15367  1.0000
  H   H1191     1.0  0.46476  0.83139  0.36701  1.0000
  H   H1192     1.0  0.44881  0.67242  0.23810  1.0000
  C   C667      1.0  0.35294  0.69067  0.27595  1.0000
  H   H1193     1.0  0.28610  0.89359  0.12384  1.0000
  C   C668      1.0  0.31490  0.67986  0.96880  1.0000
  C   C669      1.0  0.37070  0.92536  0.20969  1.0000
  C   C670      1.0  0.25246  0.69560  0.01908  1.0000
  H   H1194     1.0  0.41582  0.63394  0.01406  1.0000
  C   C671      1.0  0.31824  0.96631  0.20820  1.0000
  H   H1195     1.0  0.47550  0.59843  0.44761  1.0000
  N   N38       1.0  0.38709  0.67062  0.00722  1.0000
  H   H1196     1.0  0.38174  0.62652  0.00461  1.0000
  H   H1197     1.0  0.42140  0.92820  0.23652  1.0000
  H   H1198     1.0  0.31639  0.83825  0.43549  1.0000
  Fe  Fe75      1.0  0.48699  0.78835  0.18764  1.0000
  H   H1199     1.0  0.32164  0.88370  0.00836  1.0000
  C   C672      1.0  0.35593  0.67477  0.00252  1.0000
  C   C673      1.0  0.39821  0.64172  0.99980  1.0000
  H   H1200     1.0  0.31786  0.51102  0.34675  1.0000
  H   H1201     1.0  0.30282  0.93134  0.18809  1.0000
  H   H1202     1.0  0.26896  0.73618  0.01054  1.0000
  C   C674      1.0  0.26809  0.96030  0.40610  1.0000
  H   H1203     1.0  0.46321  0.85488  0.01783  1.0000
  C   C675      1.0  0.32270  0.51279  0.39199  1.0000
  H   H1204     1.0  0.26514  0.79069  0.22716  1.0000
  Fe  Fe76      1.0  0.25911  0.90343  0.32224  1.0000
  C   C676      1.0  0.39801  0.52130  0.43012  1.0000
  C   C677      1.0  0.39165  0.67378  0.03907  1.0000
  H   H1205     1.0  0.33285  0.77654  0.45664  1.0000
  H   H1206     1.0  0.27769  0.81523  0.06758  1.0000
  H   H1207     1.0  0.38920  0.67167  0.09968  1.0000
  H   H1208     1.0  0.31318  0.95555  0.14569  1.0000
  H   H1209     1.0  0.38623  0.69572  0.04455  1.0000
  H   H1210     1.0  0.32550  0.89396  0.16747  1.0000
  H   H1211     1.0  0.43493  0.70692  0.01677  1.0000
  H   H1212     1.0  0.40999  0.64099  0.08866  1.0000
  H   H1213     1.0  0.32992  0.55643  0.99409  1.0000
  C   C678      1.0  0.43326  0.69520  0.99706  1.0000
  C   C679      1.0  0.45642  0.50085  0.04812  1.0000
  H   H1214     1.0  0.47148  0.71207  0.97915  1.0000
  H   H1215     1.0  0.36519  0.82000  0.37180  1.0000
  H   H1216     1.0  0.31078  0.70234  0.97251  1.0000
  H   H1217     1.0  0.46586  0.66378  0.34136  1.0000
  N   N39       1.0  0.34798  0.92438  0.18804  1.0000
  C   C680      1.0  0.46843  0.84726  0.03963  1.0000
  H   H1218     1.0  0.29990  0.78327  0.06725  1.0000
  H   H1219     1.0  0.48019  0.77172  0.41159  1.0000
  C   C681      1.0  0.36413  0.52828  0.18850  1.0000
  H   H1220     1.0  0.29369  0.81212  0.21845  1.0000
  H   H1221     1.0  0.36863  0.68945  0.43385  1.0000
  C   C682      1.0  0.44980  0.70999  0.97222  1.0000
  H   H1222     1.0  0.28813  0.80718  0.16526  1.0000
  H   H1223     1.0  0.44357  0.67410  0.00165  1.0000
  H   H1224     1.0  0.48194  0.90413  0.00191  1.0000
  H   H1225     1.0  0.37888  0.48622  0.18139  1.0000
  C   C683      1.0  0.48143  0.82762  0.09646  1.0000
  H   H1226     1.0  0.36137  0.96305  0.16633  1.0000
  C   C684      1.0  0.26362  0.91029  0.44000  1.0000
  C   C685      1.0  0.48777  0.82441  0.04421  1.0000
  H   H1227     1.0  0.36074  0.75824  0.97399  1.0000
  H   H1228     1.0  0.25450  0.84850  0.97397  1.0000
  H   H1229     1.0  0.45059  0.49332  0.07075  1.0000
  H   H1230     1.0  0.35150  0.86247  0.46213  1.0000
  S   S155      1.0  0.24294  0.58242  0.43927  1.0000
  H   H1231     1.0  0.24340  0.76683  0.18963  1.0000
  C   C686      1.0  0.39160  0.50536  0.45930  1.0000
  C   C687      1.0  0.24487  0.57376  0.11617  1.0000
  H   H1232     1.0  0.35306  0.48959  0.03924  1.0000
  H   H1233     1.0  0.30215  0.66722  0.98485  1.0000
  H   H1234     1.0  0.24583  0.54065  0.19428  1.0000
  H   H1235     1.0  0.28354  0.96180  0.24001  1.0000
  H   H1236     1.0  0.24661  0.73867  0.36277  1.0000
  H   H1237     1.0  0.47469  0.94528  0.38596  1.0000
  Fe  Fe77      1.0  0.26212  0.94965  0.97190  1.0000
  H   H1238     1.0  0.33172  0.92441  0.46506  1.0000
  H   H1239     1.0  0.26997  0.97978  0.39305  1.0000
  H   H1240     1.0  0.24337  0.81381  0.97186  1.0000
  H   H1241     1.0  0.34951  0.50789  0.97775  1.0000
  C   C688      1.0  0.48263  0.94141  0.36358  1.0000
  H   H1242     1.0  0.24683  0.50693  0.23997  1.0000
  H   H1243     1.0  0.27702  0.48282  0.19020  1.0000
  C   C689      1.0  0.34681  0.48317  0.09760  1.0000
  H   H1244     1.0  0.33926  0.58717  0.97233  1.0000
  H   H1245     1.0  0.26466  0.61662  0.97331  1.0000
  H   H1246     1.0  0.43553  0.49458  0.46760  1.0000
  S   S156      1.0  0.24305  0.52087  0.36806  1.0000
  C   C690      1.0  0.24571  0.51761  0.19408  1.0000
  C   C691      1.0  0.24432  0.70911  0.33060  1.0000
  H   H1247     1.0  0.24731  0.82684  0.00688  1.0000
  H   H1248     1.0  0.40150  0.48389  0.12851  1.0000
  C   C692      1.0  0.28885  0.97481  0.21987  1.0000
  C   C693      1.0  0.28931  0.48578  0.30495  1.0000
  H   H1249     1.0  0.27301  0.97242  0.20335  1.0000
  C   C694      1.0  0.24352  0.72664  0.97516  1.0000
  C   C695      1.0  0.33336  0.56531  0.97140  1.0000
  H   H1250     1.0  0.37972  0.52951  0.71904  1.0000
  S   S157      1.0  0.45726  0.73071  0.69159  1.0000
  H   H1251     1.0  0.28846  0.48787  0.60569  1.0000
  H   H1252     1.0  0.36670  0.90833  0.47014  1.0000
  Fe  Fe78      1.0  0.47394  0.68708  0.68466  1.0000
  S   S158      1.0  0.44626  0.65106  0.67793  1.0000
  C   C696      1.0  0.39638  0.52913  0.73529  1.0000
  Fe  Fe79      1.0  0.28675  0.60525  0.71062  1.0000
  S   S159      1.0  0.29606  0.55888  0.71532  1.0000
  S   S160      1.0  0.31601  0.64108  0.70939  1.0000
  C   C697      1.0  0.24466  0.67466  0.74977  1.0000
  S   S161      1.0  0.27298  0.52552  0.64968  1.0000
  C   C698      1.0  0.44165  0.78647  0.54236  1.0000
  H   H1253     1.0  0.46502  0.67267  0.89390  1.0000
  S   S162      1.0  0.25425  0.60386  0.67675  1.0000
  H   H1254     1.0  0.31063  0.60895  0.61573  1.0000
  C   C699      1.0  0.36155  0.75269  0.57232  1.0000
  C   C700      1.0  0.35359  0.94842  0.83938  1.0000
  H   H1255     1.0  0.36126  0.89689  0.91852  1.0000
  H   H1256     1.0  0.41772  0.95688  0.50590  1.0000
  H   H1257     1.0  0.30563  0.55539  0.58407  1.0000
  S   S163      1.0  0.27132  0.96338  0.63720  1.0000
  C   C701      1.0  0.26585  0.52795  0.83045  1.0000
  Fe  Fe80      1.0  0.32941  0.78614  0.77335  1.0000
  S   S164      1.0  0.29418  0.77616  0.74598  1.0000
  S   S165      1.0  0.37400  0.76757  0.76305  1.0000
  Fe  Fe81      1.0  0.29128  0.83238  0.80267  1.0000
  S   S166      1.0  0.25383  0.82333  0.77733  1.0000
  S   S167      1.0  0.29159  0.87478  0.82347  1.0000
  Fe  Fe82      1.0  0.26653  0.77721  0.78655  1.0000
  Fe  Fe83      1.0  0.28419  0.82226  0.73882  1.0000
  S   S168      1.0  0.27902  0.83734  0.69119  1.0000
  S   S169      1.0  0.30274  0.78620  0.81457  1.0000
  S   S170      1.0  0.32108  0.83248  0.76340  1.0000
  Fe  Fe84      1.0  0.43179  0.83792  0.93957  1.0000
  H   H1258     1.0  0.42375  0.60636  0.93943  1.0000
  C   C702      1.0  0.27414  0.66370  0.84276  1.0000
  H   H1259     1.0  0.25964  0.68581  0.61697  1.0000
  Fe  Fe85      1.0  0.47389  0.79592  0.91312  1.0000
  Fe  Fe86      1.0  0.44314  0.86303  0.49910  1.0000
  C   C703      1.0  0.42464  0.50679  0.52548  1.0000
  H   H1260     1.0  0.35329  0.68380  0.71648  1.0000
  S   S171      1.0  0.46369  0.67094  0.80962  1.0000
  H   H1261     1.0  0.34460  0.65649  0.50910  1.0000
  H   H1262     1.0  0.48542  0.80435  0.84901  1.0000
  H   H1263     1.0  0.32577  0.83302  0.52543  1.0000
  S   S172      1.0  0.28593  0.86169  0.56674  1.0000
  C   C704      1.0  0.37302  0.96633  0.61675  1.0000
  H   H1264     1.0  0.35755  0.60464  0.67900  1.0000
  H   H1265     1.0  0.25623  0.72846  0.63622  1.0000
  H   H1266     1.0  0.29659  0.67837  0.58279  1.0000
  H   H1267     1.0  0.33203  0.94374  0.83364  1.0000
  H   H1268     1.0  0.24856  0.57743  0.52706  1.0000
  H   H1269     1.0  0.37634  0.63402  0.50932  1.0000
  S   S173      1.0  0.45232  0.83609  0.89486  1.0000
  N   N40       1.0  0.36795  0.49947  0.93573  1.0000
  H   H1270     1.0  0.40794  0.61013  0.66586  1.0000
  C   C705      1.0  0.33883  0.61265  0.52279  1.0000
  H   H1271     1.0  0.33077  0.58109  0.57567  1.0000
  S   S174      1.0  0.29490  0.79865  0.88553  1.0000
  C   C706      1.0  0.30898  0.57809  0.58343  1.0000
  C   C707      1.0  0.34668  0.93436  0.89120  1.0000
  C   C708      1.0  0.48668  0.55538  0.79053  1.0000
  H   H1272     1.0  0.40653  0.57005  0.50156  1.0000
  S   S175      1.0  0.25520  0.60364  0.74811  1.0000
  C   C709      1.0  0.36157  0.96862  0.49734  1.0000
  C   C710      1.0  0.47463  0.57475  0.66244  1.0000
  C   C711      1.0  0.35312  0.97992  0.84502  1.0000
  Fe  Fe87      1.0  0.27425  0.97716  0.58881  1.0000
  C   C712      1.0  0.37715  0.62362  0.87168  1.0000
  H   H1273     1.0  0.28421  0.55524  0.48324  1.0000
  H   H1274     1.0  0.24339  0.62719  0.54788  1.0000
  H   H1275     1.0  0.48391  0.73034  0.59046  1.0000
  H   H1276     1.0  0.35299  0.55200  0.86040  1.0000
  C   C713      1.0  0.27964  0.91330  0.86471  1.0000
  H   H1277     1.0  0.27759  0.68556  0.83467  1.0000
  H   H1278     1.0  0.42741  0.52091  0.50564  1.0000
  C   C714      1.0  0.36414  0.62696  0.84171  1.0000
  H   H1279     1.0  0.26623  0.58816  0.94977  1.0000
  H   H1280     1.0  0.35973  0.90205  0.80768  1.0000
  H   H1281     1.0  0.31679  0.57231  0.47953  1.0000
  C   C715      1.0  0.37909  0.87299  0.54204  1.0000
  C   C716      1.0  0.36441  0.88818  0.56296  1.0000
  C   C717      1.0  0.33618  0.88427  0.56982  1.0000
  C   C718      1.0  0.32199  0.86421  0.55674  1.0000
  C   C719      1.0  0.33667  0.84814  0.53616  1.0000
  C   C720      1.0  0.36526  0.85257  0.52873  1.0000
  H   H1282     1.0  0.37486  0.90335  0.57385  1.0000
  H   H1283     1.0  0.32525  0.89689  0.58560  1.0000
  C   C721      1.0  0.40842  0.97797  0.57596  1.0000
  H   H1284     1.0  0.39697  0.95354  0.87446  1.0000
  C   C722      1.0  0.36034  0.84058  0.93330  1.0000
  C   C723      1.0  0.36587  0.83214  0.90529  1.0000
  C   C724      1.0  0.34456  0.82145  0.89012  1.0000
  C   C725      1.0  0.31784  0.81865  0.90291  1.0000
  C   C726      1.0  0.31187  0.82822  0.93048  1.0000
  C   C727      1.0  0.33308  0.83949  0.94550  1.0000
  S   S176      1.0  0.45014  0.79578  0.95611  1.0000
  S   S177      1.0  0.25260  0.91048  0.95027  1.0000
  H   H1285     1.0  0.29125  0.82614  0.94043  1.0000
  S   S178      1.0  0.25965  0.52615  0.93119  1.0000
  C   C728      1.0  0.39751  0.73864  0.77433  1.0000
  C   C729      1.0  0.42498  0.73749  0.76246  1.0000
  C   C730      1.0  0.44514  0.71641  0.77205  1.0000
  C   C731      1.0  0.43846  0.69652  0.79437  1.0000
  C   C732      1.0  0.41045  0.69641  0.80482  1.0000
  C   C733      1.0  0.39007  0.71725  0.79491  1.0000
  H   H1286     1.0  0.43105  0.75343  0.74617  1.0000
  H   H1287     1.0  0.46598  0.71584  0.76232  1.0000
  H   H1288     1.0  0.40470  0.68025  0.82093  1.0000
  H   H1289     1.0  0.36891  0.71715  0.80365  1.0000
  C   C734      1.0  0.27467  0.92828  0.65203  1.0000
  C   C735      1.0  0.28084  0.90610  0.63449  1.0000
  C   C736      1.0  0.28224  0.87841  0.64688  1.0000
  C   C737      1.0  0.27810  0.87260  0.67699  1.0000
  C   C738      1.0  0.27275  0.89481  0.69473  1.0000
  C   C739      1.0  0.27078  0.92252  0.68224  1.0000
  H   H1290     1.0  0.28369  0.91016  0.61121  1.0000
  H   H1291     1.0  0.28599  0.86139  0.63289  1.0000
  H   H1292     1.0  0.26968  0.89058  0.71798  1.0000
  H   H1293     1.0  0.26624  0.93957  0.69605  1.0000
  C   C740      1.0  0.26114  0.90217  0.91391  1.0000
  C   C741      1.0  0.41380  0.52473  0.55002  1.0000
  C   C742      1.0  0.26595  0.86681  0.87832  1.0000
  C   C743      1.0  0.27776  0.88550  0.85765  1.0000
  H   H1294     1.0  0.40815  0.50843  0.73574  1.0000
  H   H1295     1.0  0.37263  0.95153  0.57438  1.0000
  H   H1296     1.0  0.34924  0.59228  0.51755  1.0000
  C   C744      1.0  0.27716  0.69547  0.50854  1.0000
  H   H1297     1.0  0.37456  0.64357  0.88249  1.0000
  H   H1298     1.0  0.38663  0.83348  0.89545  1.0000
  H   H1299     1.0  0.44554  0.49723  0.53156  1.0000
  C   C745      1.0  0.26204  0.52598  0.89244  1.0000
  H   H1300     1.0  0.47463  0.87501  0.60361  1.0000
  H   H1301     1.0  0.34956  0.85284  0.82621  1.0000
  C   C746      1.0  0.28712  0.59467  0.56367  1.0000
  Fe  Fe88      1.0  0.26208  0.55725  0.75057  1.0000
  H   H1302     1.0  0.47634  0.60592  0.71334  1.0000
  C   C747      1.0  0.33460  0.69425  0.59781  1.0000
  C   C748      1.0  0.30589  0.58676  0.61467  1.0000
  C   C749      1.0  0.26043  0.52348  0.61416  1.0000
  H   H1303     1.0  0.24674  0.74610  0.96252  1.0000
  C   C750      1.0  0.30217  0.56287  0.52511  1.0000
  H   H1304     1.0  0.45080  0.90336  0.90846  1.0000
  C   C751      1.0  0.44436  0.78982  0.57191  1.0000
  C   C752      1.0  0.45503  0.76346  0.52982  1.0000
  C   C753      1.0  0.40575  0.96079  0.52646  1.0000
  H   H1305     1.0  0.43514  0.80846  0.58095  1.0000
  H   H1306     1.0  0.43030  0.80254  0.52897  1.0000
  C   C754      1.0  0.27236  0.50259  0.59686  1.0000
  C   C755      1.0  0.44707  0.60091  0.76259  1.0000
  C   C756      1.0  0.40953  0.64976  0.68459  1.0000
  C   C757      1.0  0.39386  0.67052  0.69877  1.0000
  C   C758      1.0  0.36519  0.66760  0.70559  1.0000
  C   C759      1.0  0.35195  0.64369  0.69902  1.0000
  C   C760      1.0  0.36749  0.62304  0.68447  1.0000
  C   C761      1.0  0.39604  0.62627  0.67696  1.0000
  H   H1307     1.0  0.40395  0.68855  0.70511  1.0000
  C   C762      1.0  0.41690  0.61232  0.75581  1.0000
  S   S179      1.0  0.41429  0.88150  0.53371  1.0000
  C   C763      1.0  0.41013  0.64037  0.76848  1.0000
  H   H1308     1.0  0.45234  0.57331  0.65714  1.0000
  H   H1309     1.0  0.29876  0.63504  0.52295  1.0000
  C   C764      1.0  0.28450  0.69084  0.47932  1.0000
  C   C765      1.0  0.45579  0.66751  0.59319  1.0000
  C   C766      1.0  0.25974  0.55246  0.84466  1.0000
  H   H1310     1.0  0.41175  0.51172  0.57085  1.0000
  H   H1311     1.0  0.45550  0.50145  0.94493  1.0000
  C   C767      1.0  0.27030  0.50259  0.84752  1.0000
  C   C768      1.0  0.46007  0.76990  0.58919  1.0000
  H   H1312     1.0  0.47040  0.68298  0.59895  1.0000
  H   H1313     1.0  0.28424  0.58384  0.62333  1.0000
  C   C769      1.0  0.44571  0.94627  0.55699  1.0000
  C   C770      1.0  0.24500  0.67242  0.62985  1.0000
  H   H1314     1.0  0.40641  0.93087  0.84690  1.0000
  C   C771      1.0  0.25803  0.55147  0.87542  1.0000
  H   H1315     1.0  0.42416  0.71773  0.47268  1.0000
  H   H1316     1.0  0.46126  0.61854  0.75932  1.0000
  H   H1317     1.0  0.26262  0.65913  0.74861  1.0000
  C   C772      1.0  0.26816  0.50153  0.87823  1.0000
  H   H1318     1.0  0.38269  0.49407  0.51832  1.0000
  H   H1319     1.0  0.35916  0.57102  0.78630  1.0000
  H   H1320     1.0  0.47725  0.95701  0.92704  1.0000
  H   H1321     1.0  0.35298  0.77104  0.48935  1.0000
  H   H1322     1.0  0.34193  0.61614  0.54590  1.0000
  H   H1323     1.0  0.33016  0.49738  0.88749  1.0000
  N   N41       1.0  0.39126  0.84795  0.65375  1.0000
  C   C773      1.0  0.41134  0.84709  0.62780  1.0000
  C   C774      1.0  0.36955  0.82699  0.65093  1.0000
  C   C775      1.0  0.37792  0.87713  0.65469  1.0000
  C   C776      1.0  0.40613  0.84032  0.68188  1.0000
  C   C777      1.0  0.42724  0.81448  0.68206  1.0000
  C   C778      1.0  0.43575  0.86684  0.62758  1.0000
  C   C779      1.0  0.35487  0.88113  0.67880  1.0000
  C   C780      1.0  0.34986  0.83287  0.62488  1.0000
  C   C781      1.0  0.32801  0.81111  0.62534  1.0000
  C   C782      1.0  0.43825  0.80711  0.71250  1.0000
  H   H1324     1.0  0.35765  0.68400  0.95476  1.0000
  C   C783      1.0  0.34433  0.91175  0.67916  1.0000
  H   H1325     1.0  0.40023  0.85308  0.60727  1.0000
  H   H1326     1.0  0.42010  0.82533  0.62547  1.0000
  H   H1327     1.0  0.37997  0.80592  0.64860  1.0000
  H   H1328     1.0  0.35618  0.82472  0.67120  1.0000
  H   H1329     1.0  0.36904  0.88463  0.63328  1.0000
  H   H1330     1.0  0.39410  0.89197  0.65837  1.0000
  H   H1331     1.0  0.41752  0.85816  0.68853  1.0000
  H   H1332     1.0  0.39062  0.83600  0.70003  1.0000
  H   H1333     1.0  0.44563  0.81864  0.66741  1.0000
  H   H1334     1.0  0.41750  0.79596  0.67499  1.0000
  H   H1335     1.0  0.42771  0.88876  0.62227  1.0000
  H   H1336     1.0  0.44594  0.86581  0.64886  1.0000
  H   H1337     1.0  0.36291  0.87461  0.70068  1.0000
  H   H1338     1.0  0.33674  0.86874  0.67525  1.0000
  H   H1339     1.0  0.33833  0.85355  0.62552  1.0000
  H   H1340     1.0  0.36179  0.83203  0.60386  1.0000
  H   H1341     1.0  0.33820  0.78974  0.62635  1.0000
  H   H1342     1.0  0.31343  0.81316  0.64443  1.0000
  H   H1343     1.0  0.31561  0.81446  0.60534  1.0000
  H   H1344     1.0  0.44922  0.82467  0.72024  1.0000
  H   H1345     1.0  0.42088  0.80175  0.72816  1.0000
  H   H1346     1.0  0.45342  0.78875  0.71180  1.0000
  C   C784      1.0  0.25760  0.87498  0.90618  1.0000
  C   C785      1.0  0.40939  0.91223  0.89115  1.0000
  H   H1347     1.0  0.25355  0.57060  0.88609  1.0000
  H   H1348     1.0  0.32881  0.91421  0.69742  1.0000
  H   H1349     1.0  0.36182  0.92519  0.68231  1.0000
  H   H1350     1.0  0.33399  0.91875  0.65849  1.0000
  C   C786      1.0  0.37207  0.72022  0.63347  1.0000
  C   C787      1.0  0.39036  0.73756  0.65157  1.0000
  H   H1351     1.0  0.24827  0.64136  0.59805  1.0000
  H   H1352     1.0  0.30882  0.51108  0.50050  1.0000
  C   C788      1.0  0.37427  0.74742  0.67861  1.0000
  H   H1353     1.0  0.36730  0.70119  0.64766  1.0000
  H   H1354     1.0  0.35171  0.73227  0.63053  1.0000
  Fe  Fe89      1.0  0.26143  0.55697  0.68363  1.0000
  H   H1355     1.0  0.34723  0.75876  0.59042  1.0000
  H   H1356     1.0  0.40888  0.72443  0.65926  1.0000
  H   H1357     1.0  0.39769  0.75626  0.63876  1.0000
  H   H1358     1.0  0.32912  0.68805  0.62095  1.0000
  H   H1359     1.0  0.25744  0.65824  0.64516  1.0000
  H   H1360     1.0  0.33633  0.89616  0.85480  1.0000
  H   H1361     1.0  0.38857  0.75752  0.69247  1.0000
  H   H1362     1.0  0.35686  0.76283  0.67239  1.0000
  H   H1363     1.0  0.36563  0.72958  0.69188  1.0000
  N   N42       1.0  0.39035  0.74168  0.87698  1.0000
  C   C789      1.0  0.36053  0.74266  0.86658  1.0000
  C   C790      1.0  0.40878  0.75588  0.85371  1.0000
  C   C791      1.0  0.40161  0.71168  0.88212  1.0000
  C   C792      1.0  0.39187  0.75708  0.90414  1.0000
  C   C793      1.0  0.37119  0.74892  0.92943  1.0000
  C   C794      1.0  0.34229  0.71817  0.87795  1.0000
  C   C795      1.0  0.43355  0.70663  0.88646  1.0000
  C   C796      1.0  0.39713  0.78418  0.83905  1.0000
  C   C797      1.0  0.41827  0.79633  0.81668  1.0000
  H   H1364     1.0  0.32673  0.89552  0.90551  1.0000
  C   C798      1.0  0.31157  0.72401  0.87044  1.0000
  C   C799      1.0  0.44197  0.67551  0.89156  1.0000
  H   H1365     1.0  0.36044  0.74228  0.84256  1.0000
  H   H1366     1.0  0.34913  0.76287  0.87127  1.0000
  H   H1367     1.0  0.42925  0.75999  0.86272  1.0000
  H   H1368     1.0  0.41407  0.74192  0.83597  1.0000
  H   H1369     1.0  0.39706  0.70005  0.86317  1.0000
  H   H1370     1.0  0.39094  0.70104  0.90115  1.0000
  H   H1371     1.0  0.41351  0.75527  0.91237  1.0000
  H   H1372     1.0  0.38760  0.77973  0.89906  1.0000
  H   H1373     1.0  0.37357  0.72635  0.93574  1.0000
  H   H1374     1.0  0.34926  0.75467  0.92307  1.0000
  H   H1375     1.0  0.34979  0.69881  0.86764  1.0000
  H   H1376     1.0  0.34306  0.71378  0.90180  1.0000
  H   H1377     1.0  0.44008  0.71727  0.90532  1.0000
  H   H1378     1.0  0.44552  0.71424  0.86674  1.0000
  H   H1379     1.0  0.37759  0.78198  0.82745  1.0000
  H   H1380     1.0  0.39282  0.79966  0.85539  1.0000
  H   H1381     1.0  0.43461  0.80640  0.82786  1.0000
  H   H1382     1.0  0.42836  0.77997  0.80330  1.0000
  H   H1383     1.0  0.40756  0.81229  0.80162  1.0000
  H   H1384     1.0  0.40528  0.52028  0.94478  1.0000
  H   H1385     1.0  0.44912  0.85980  0.58280  1.0000
  Fe  Fe90      1.0  0.27643  0.96617  0.52378  1.0000
  H   H1386     1.0  0.30219  0.74167  0.88230  1.0000
  H   H1387     1.0  0.30928  0.72898  0.84668  1.0000
  H   H1388     1.0  0.29961  0.70553  0.87730  1.0000
  H   H1389     1.0  0.43646  0.66413  0.87265  1.0000
  S   S180      1.0  0.48010  0.83363  0.51096  1.0000
  H   H1390     1.0  0.27515  0.48349  0.83684  1.0000
  H   H1391     1.0  0.31037  0.93335  0.93868  1.0000
  C   C800      1.0  0.25844  0.72079  0.65954  1.0000
  H   H1392     1.0  0.30807  0.67650  0.94662  1.0000
  H   H1393     1.0  0.26911  0.70310  0.72316  1.0000
  H   H1394     1.0  0.31342  0.56554  0.95977  1.0000
  H   H1395     1.0  0.28894  0.54692  0.53631  1.0000
  C   C801      1.0  0.34396  0.90503  0.47278  1.0000
  C   C802      1.0  0.26560  0.74694  0.67476  1.0000
  C   C803      1.0  0.29607  0.75369  0.66862  1.0000
  H   H1396     1.0  0.45305  0.65184  0.61188  1.0000
  H   H1397     1.0  0.26371  0.84586  0.87280  1.0000
  C   C804      1.0  0.24316  0.51978  0.55642  1.0000
  C   C805      1.0  0.34364  0.53157  0.85941  1.0000
  H   H1398     1.0  0.43598  0.65781  0.49436  1.0000
  H   H1399     1.0  0.27717  0.70571  0.66005  1.0000
  C   C806      1.0  0.34175  0.90950  0.91379  1.0000
  C   C807      1.0  0.39724  0.49901  0.94710  1.0000
  S   S181      1.0  0.24361  0.73596  0.79512  1.0000
  H   H1400     1.0  0.38837  0.52101  0.47577  1.0000
  H   H1401     1.0  0.32417  0.90144  0.95728  1.0000
  H   H1402     1.0  0.43466  0.92701  0.56353  1.0000
  H   H1403     1.0  0.25294  0.64062  0.51162  1.0000
  H   H1404     1.0  0.42386  0.65617  0.75782  1.0000
  H   H1405     1.0  0.36688  0.94592  0.81930  1.0000
  H   H1406     1.0  0.38009  0.53081  0.90219  1.0000
  N   N43       1.0  0.42473  0.97014  0.54882  1.0000
  S   S182      1.0  0.38750  0.85143  0.95377  1.0000
  H   H1407     1.0  0.26208  0.74486  0.69863  1.0000
  H   H1408     1.0  0.30055  0.75640  0.64481  1.0000
  H   H1409     1.0  0.29997  0.77343  0.67843  1.0000
  H   H1410     1.0  0.31036  0.73673  0.67850  1.0000
  H   H1411     1.0  0.34857  0.78974  0.54559  1.0000
  C   C808      1.0  0.36689  0.69070  0.59242  1.0000
  H   H1412     1.0  0.32704  0.51778  0.94858  1.0000
  H   H1413     1.0  0.32601  0.71595  0.59317  1.0000
  H   H1414     1.0  0.39414  0.89636  0.82273  1.0000
  H   H1415     1.0  0.32625  0.65324  0.58398  1.0000
  S   S183      1.0  0.45776  0.76371  0.49188  1.0000
  C   C809      1.0  0.46903  0.74242  0.54742  1.0000
  H   H1416     1.0  0.47434  0.89442  0.54769  1.0000
  N   N44       1.0  0.31791  0.64249  0.81573  1.0000
  C   C810      1.0  0.32681  0.67092  0.80427  1.0000
  C   C811      1.0  0.33219  0.63460  0.84413  1.0000
  C   C812      1.0  0.32625  0.62191  0.79332  1.0000
  C   C813      1.0  0.28664  0.64265  0.82112  1.0000
  H   H1417     1.0  0.38255  0.77457  0.53533  1.0000
  C   C814      1.0  0.31042  0.68506  0.77822  1.0000
  C   C815      1.0  0.31990  0.59109  0.80184  1.0000
  C   C816      1.0  0.43971  0.55257  0.74907  1.0000
  H   H1418     1.0  0.32409  0.68131  0.55543  1.0000
  S   S184      1.0  0.26848  0.52749  0.79172  1.0000
  C   C817      1.0  0.32388  0.71125  0.76541  1.0000
  C   C818      1.0  0.33644  0.57132  0.78215  1.0000
  H   H1419     1.0  0.34929  0.66960  0.79720  1.0000
  H   H1420     1.0  0.32519  0.68584  0.82164  1.0000
  H   H1421     1.0  0.32936  0.65215  0.85860  1.0000
  H   H1422     1.0  0.32212  0.61692  0.85649  1.0000
  H   H1423     1.0  0.34880  0.62300  0.78685  1.0000
  H   H1424     1.0  0.31504  0.62749  0.77281  1.0000
  H   H1425     1.0  0.27547  0.64655  0.80030  1.0000
  H   H1426     1.0  0.28066  0.62165  0.83003  1.0000
  H   H1427     1.0  0.35049  0.73966  0.55807  1.0000
  H   H1428     1.0  0.30952  0.67109  0.76043  1.0000
  H   H1429     1.0  0.28879  0.69148  0.78529  1.0000
  H   H1430     1.0  0.29725  0.58836  0.79936  1.0000
  H   H1431     1.0  0.32509  0.58446  0.82458  1.0000
  H   H1432     1.0  0.24586  0.76060  0.49878  1.0000
  H   H1433     1.0  0.37264  0.66922  0.60214  1.0000
  C   C819      1.0  0.48687  0.56724  0.75818  1.0000
  H   H1434     1.0  0.46193  0.68372  0.48880  1.0000
  H   H1435     1.0  0.42880  0.54093  0.55291  1.0000
  H   H1436     1.0  0.31286  0.71928  0.74545  1.0000
  H   H1437     1.0  0.32233  0.72758  0.78130  1.0000
  H   H1438     1.0  0.34618  0.70663  0.75909  1.0000
  H   H1439     1.0  0.35603  0.95103  0.90256  1.0000
  H   H1440     1.0  0.32937  0.54981  0.78656  1.0000
  H   H1441     1.0  0.33305  0.57802  0.75889  1.0000
  H   H1442     1.0  0.42985  0.55124  0.77136  1.0000
  C   C820      1.0  0.40415  0.48394  0.52077  1.0000
  H   H1443     1.0  0.34519  0.93142  0.95298  1.0000
  C   C821      1.0  0.32965  0.91964  0.94244  1.0000
  H   H1444     1.0  0.36687  0.88288  0.87215  1.0000
  H   H1445     1.0  0.35908  0.95013  0.62599  1.0000
  H   H1446     1.0  0.33876  0.90069  0.49629  1.0000
  H   H1447     1.0  0.34898  0.64890  0.96670  1.0000
  Fe  Fe91      1.0  0.48793  0.85576  0.91447  1.0000
  S   S185      1.0  0.31003  0.96846  0.55689  1.0000
  H   H1448     1.0  0.42472  0.54907  0.70474  1.0000
  H   H1449     1.0  0.37819  0.79404  0.56753  1.0000
  H   H1450     1.0  0.34870  0.81471  0.86848  1.0000
  H   H1451     1.0  0.40161  0.59756  0.76540  1.0000
  S   S186      1.0  0.46559  0.86152  0.95730  1.0000
  H   H1452     1.0  0.32523  0.94300  0.88563  1.0000
  H   H1453     1.0  0.32284  0.53532  0.84940  1.0000
  H   H1454     1.0  0.37634  0.84054  0.51257  1.0000
  H   H1455     1.0  0.48118  0.95764  0.86625  1.0000
  S   S187      1.0  0.46624  0.77697  0.62496  1.0000
  H   H1456     1.0  0.44374  0.59459  0.70433  1.0000
  H   H1457     1.0  0.41479  0.66564  0.57745  1.0000
  H   H1458     1.0  0.36727  0.60690  0.88565  1.0000
  S   S188      1.0  0.27402  0.93210  0.49190  1.0000
  C   C822      1.0  0.24388  0.62284  0.52462  1.0000
  H   H1459     1.0  0.36838  0.60698  0.83128  1.0000
  C   C823      1.0  0.46367  0.58714  0.71454  1.0000
  C   C824      1.0  0.44056  0.91722  0.89112  1.0000
  N   N45       1.0  0.45867  0.57664  0.74585  1.0000
  H   H1460     1.0  0.47231  0.54458  0.69933  1.0000
  N   N46       1.0  0.29010  0.59171  0.53117  1.0000
  C   C825      1.0  0.36829  0.77937  0.55410  1.0000
  H   H1461     1.0  0.34189  0.52759  0.49887  1.0000
  H   H1462     1.0  0.43199  0.69674  0.56545  1.0000
  H   H1463     1.0  0.37812  0.85506  0.79987  1.0000
  C   C826      1.0  0.31956  0.67555  0.57884  1.0000
  C   C827      1.0  0.41446  0.57957  0.48121  1.0000
  H   H1464     1.0  0.38099  0.49671  0.89054  1.0000
  H   H1465     1.0  0.40287  0.57230  0.72517  1.0000
  H   H1466     1.0  0.32559  0.53116  0.90249  1.0000
  H   H1467     1.0  0.40760  0.88995  0.88734  1.0000
  H   H1468     1.0  0.26651  0.58752  0.57227  1.0000
  C   C828      1.0  0.26112  0.59520  0.51880  1.0000
  H   H1469     1.0  0.41335  0.63852  0.79226  1.0000
  C   C829      1.0  0.38852  0.73654  0.58334  1.0000
  H   H1470     1.0  0.40204  0.75147  0.59238  1.0000
  H   H1471     1.0  0.39994  0.61791  0.86919  1.0000
  N   N47       1.0  0.38472  0.71160  0.60471  1.0000
  C   C830      1.0  0.30512  0.55634  0.49263  1.0000
  C   C831      1.0  0.35917  0.89899  0.85546  1.0000
  C   C832      1.0  0.37115  0.85977  0.82231  1.0000
  H   H1472     1.0  0.43154  0.66648  0.91163  1.0000
  H   H1473     1.0  0.40012  0.73019  0.56337  1.0000
  N   N48       1.0  0.36377  0.92807  0.86389  1.0000
  S   S189      1.0  0.25415  0.79204  0.60114  1.0000
  C   C833      1.0  0.37200  0.89104  0.82559  1.0000
  H   H1474     1.0  0.41220  0.68182  0.62930  1.0000
  C   C834      1.0  0.41593  0.55251  0.72686  1.0000
  H   H1475     1.0  0.32314  0.55856  0.53445  1.0000
  H   H1476     1.0  0.37130  0.69013  0.56854  1.0000
  H   H1477     1.0  0.37500  0.64341  0.82857  1.0000
  S   S190      1.0  0.25540  0.72595  0.55307  1.0000
  H   H1478     1.0  0.28354  0.65956  0.86440  1.0000
  H   H1479     1.0  0.45091  0.91250  0.86992  1.0000
  H   H1480     1.0  0.35187  0.63268  0.48079  1.0000
  H   H1481     1.0  0.38787  0.97067  0.63356  1.0000
  H   H1482     1.0  0.38529  0.84791  0.83800  1.0000
  H   H1483     1.0  0.42933  0.64927  0.96413  1.0000
  H   H1484     1.0  0.28692  0.61706  0.56837  1.0000
  S   S191      1.0  0.48291  0.75609  0.89080  1.0000
  C   C835      1.0  0.41341  0.69744  0.61023  1.0000
  C   C836      1.0  0.26362  0.72080  0.51594  1.0000
  C   C837      1.0  0.32088  0.52803  0.48941  1.0000
  H   H1485     1.0  0.45224  0.53237  0.74724  1.0000
  C   C838      1.0  0.47162  0.74568  0.57723  1.0000
  C   C839      1.0  0.37613  0.76423  0.95639  1.0000
  H   H1486     1.0  0.39450  0.64741  0.95177  1.0000
  C   C840      1.0  0.30720  0.61431  0.51659  1.0000
  C   C841      1.0  0.42775  0.68203  0.58453  1.0000
  H   H1487     1.0  0.41386  0.61568  0.73231  1.0000
  H   H1488     1.0  0.27345  0.94291  0.89803  1.0000
  H   H1489     1.0  0.38613  0.53199  0.75696  1.0000
  C   C842      1.0  0.38871  0.95598  0.58980  1.0000
  H   H1490     1.0  0.35712  0.51814  0.84530  1.0000
  H   H1491     1.0  0.35953  0.55847  0.93376  1.0000
  H   H1492     1.0  0.26217  0.59442  0.49476  1.0000
  C   C843      1.0  0.44337  0.58317  0.47731  1.0000
  H   H1493     1.0  0.30493  0.61522  0.49274  1.0000
  H   H1494     1.0  0.44638  0.59533  0.78634  1.0000
  H   H1495     1.0  0.38809  0.64771  0.76428  1.0000
  H   H1496     1.0  0.37336  0.78708  0.95140  1.0000
  H   H1497     1.0  0.28772  0.92834  0.84852  1.0000
  H   H1498     1.0  0.32055  0.57348  0.62875  1.0000
  S   S192      1.0  0.46680  0.56902  0.50429  1.0000
  C   C844      1.0  0.47914  0.56607  0.69462  1.0000
  H   H1499     1.0  0.40081  0.93625  0.59654  1.0000
  C   C845      1.0  0.27148  0.92162  0.89273  1.0000
  C   C846      1.0  0.25393  0.59809  0.96755  1.0000
  H   H1500     1.0  0.39735  0.94033  0.53387  1.0000
  H   H1501     1.0  0.44350  0.93918  0.89550  1.0000
  H   H1502     1.0  0.40077  0.91637  0.91318  1.0000
  H   H1503     1.0  0.35258  0.94977  0.50843  1.0000
  C   C847      1.0  0.45831  0.85957  0.60458  1.0000
  Fe  Fe92      1.0  0.46341  0.80852  0.47706  1.0000
  H   H1504     1.0  0.45718  0.95046  0.57661  1.0000
  H   H1505     1.0  0.25653  0.57218  0.83201  1.0000
  Fe  Fe93      1.0  0.24730  0.80035  0.88370  1.0000
  C   C848      1.0  0.39435  0.93212  0.86788  1.0000
  H   H1506     1.0  0.42831  0.71287  0.61607  1.0000
  H   H1507     1.0  0.37327  0.96283  0.47720  1.0000
  C   C849      1.0  0.35371  0.63540  0.50437  1.0000
  C   C850      1.0  0.26379  0.50070  0.56814  1.0000
  H   H1508     1.0  0.39760  0.75905  0.96420  1.0000
  C   C851      1.0  0.34922  0.51733  0.95492  1.0000
  H   H1509     1.0  0.28198  0.67955  0.52562  1.0000
  C   C852      1.0  0.45117  0.66739  0.47843  1.0000
  H   H1510     1.0  0.46525  0.65671  0.57448  1.0000
  H   H1511     1.0  0.46849  0.83852  0.61013  1.0000
  H   H1512     1.0  0.48791  0.56084  0.64867  1.0000
  C   C853      1.0  0.24265  0.66123  0.84742  1.0000
  C   C854      1.0  0.25708  0.74138  0.49373  1.0000
  C   C855      1.0  0.35662  0.54822  0.95589  1.0000
  H   H1513     1.0  0.47149  0.53900  0.79470  1.0000
  C   C856      1.0  0.34003  0.51725  0.88993  1.0000
  C   C857      1.0  0.33948  0.76106  0.47457  1.0000
  H   H1514     1.0  0.47937  0.72458  0.53773  1.0000
  C   C858      1.0  0.36868  0.51130  0.90446  1.0000
  H   H1515     1.0  0.39315  0.53543  0.54468  1.0000
  H   H1516     1.0  0.32043  0.75457  0.48714  1.0000
  H   H1517     1.0  0.25219  0.76503  0.66586  1.0000
  H   H1518     1.0  0.39819  0.69324  0.47338  1.0000
  H   H1519     1.0  0.24889  0.85984  0.92188  1.0000
  H   H1520     1.0  0.25816  0.67084  0.68960  1.0000
  Fe  Fe94      1.0  0.25323  0.82923  0.56828  1.0000
  H   H1521     1.0  0.48048  0.59658  0.65715  1.0000
  H   H1522     1.0  0.24498  0.68439  0.77071  1.0000
  H   H1523     1.0  0.27339  0.48480  0.55495  1.0000
  C   C859      1.0  0.24719  0.69668  0.72446  1.0000
  H   H1524     1.0  0.35969  0.72000  0.48078  1.0000
  H   H1525     1.0  0.32855  0.84667  0.96680  1.0000
  H   H1526     1.0  0.29511  0.67132  0.47395  1.0000
  H   H1527     1.0  0.45739  0.93296  0.51307  1.0000
  C   C860      1.0  0.48844  0.78564  0.83739  1.0000
  H   H1528     1.0  0.39736  0.59582  0.96628  1.0000
  H   H1529     1.0  0.46723  0.65092  0.47242  1.0000
  Fe  Fe95      1.0  0.48607  0.74248  0.65426  1.0000
  H   H1530     1.0  0.48926  0.80804  0.79507  1.0000
  C   C861      1.0  0.48897  0.75942  0.85267  1.0000
  H   H1531     1.0  0.27134  0.48178  0.89089  1.0000
  C   C862      1.0  0.46770  0.93840  0.53285  1.0000
  H   H1532     1.0  0.48127  0.95588  0.52677  1.0000
  H   H1533     1.0  0.42288  0.48674  0.90883  1.0000
  C   C863      1.0  0.41631  0.60789  0.96240  1.0000
  H   H1534     1.0  0.45107  0.69747  0.95290  1.0000
  C   C864      1.0  0.48676  0.91305  0.54302  1.0000
  H   H1535     1.0  0.48139  0.57214  0.80544  1.0000
  C   C865      1.0  0.49076  0.78769  0.80680  1.0000
  H   H1536     1.0  0.40034  0.69205  0.96631  1.0000
  H   H1537     1.0  0.44021  0.73115  0.96628  1.0000
  H   H1538     1.0  0.37602  0.54936  0.96813  1.0000
  C   C866      1.0  0.40958  0.63851  0.96810  1.0000
  Fe  Fe96      1.0  0.71197  0.44217  0.44698  1.0000
  C   C867      1.0  0.52363  0.21475  0.02156  1.0000
  H   H1539     1.0  0.56869  0.27473  0.12819  1.0000
  S   S193      1.0  0.71265  0.41475  0.03046  1.0000
  N   N49       1.0  0.55253  0.26307  0.17176  1.0000
  H   H1540     1.0  0.52590  0.24432  0.22584  1.0000
  S   S194      1.0  0.52124  0.26362  0.05031  1.0000
  H   H1541     1.0  0.55787  0.25699  0.26307  1.0000
  C   C868      1.0  0.53198  0.26612  0.22509  1.0000
  H   H1542     1.0  0.63503  0.30854  0.14044  1.0000
  Fe  Fe97      1.0  0.53624  0.36137  0.38430  1.0000
  S   S195      1.0  0.57780  0.38313  0.37851  1.0000
  S   S196      1.0  0.53302  0.31856  0.36793  1.0000
  Fe  Fe98      1.0  0.55151  0.36502  0.05431  1.0000
  S   S197      1.0  0.55477  0.32624  0.08491  1.0000
  S   S198      1.0  0.58184  0.39521  0.03131  1.0000
  Fe  Fe99      1.0  0.52000  0.31048  0.05943  1.0000
  C   C869      1.0  0.52442  0.19844  0.99711  1.0000
  Fe  Fe100     1.0  0.52013  0.34661  0.11247  1.0000
  S   S199      1.0  0.52843  0.35207  0.16099  1.0000
  S   S200      1.0  0.51927  0.34797  0.02709  1.0000
  S   S201      1.0  0.51914  0.38609  0.08302  1.0000
  H   H1543     1.0  0.58692  0.23178  0.17654  1.0000
  C   C870      1.0  0.56858  0.28208  0.15054  1.0000
  H   H1544     1.0  0.58485  0.23137  0.45495  1.0000
  C   C871      1.0  0.52241  0.24422  0.01832  1.0000
  H   H1545     1.0  0.66395  0.38626  0.97610  1.0000
  C   C872      1.0  0.50416  0.24881  0.46610  1.0000
  H   H1546     1.0  0.50883  0.25365  0.17887  1.0000
  H   H1547     1.0  0.50025  0.20857  0.44949  1.0000
  H   H1548     1.0  0.58371  0.37788  0.44218  1.0000
  H   H1549     1.0  0.71044  0.36624  0.98989  1.0000
  C   C873      1.0  0.52232  0.34960  0.25033  1.0000
  C   C874      1.0  0.53125  0.35423  0.22079  1.0000
  C   C875      1.0  0.51535  0.34633  0.19791  1.0000
  H   H1550     1.0  0.55809  0.17882  0.15484  1.0000
  C   C876      1.0  0.70084  0.36960  0.37030  1.0000
  H   H1551     1.0  0.53495  0.35570  0.26750  1.0000
  H   H1552     1.0  0.55072  0.36400  0.21568  1.0000
  H   H1553     1.0  0.73452  0.37515  0.39936  1.0000
  H   H1554     1.0  0.52568  0.17589  0.00018  1.0000
  C   C877      1.0  0.67631  0.40933  0.02975  1.0000
  C   C878      1.0  0.66577  0.38653  0.04667  1.0000
  C   C879      1.0  0.63703  0.38151  0.04709  1.0000
  C   C880      1.0  0.61846  0.39939  0.03067  1.0000
  C   C881      1.0  0.62908  0.42194  0.01338  1.0000
  C   C882      1.0  0.65785  0.42673  0.01269  1.0000
  H   H1555     1.0  0.67992  0.37271  0.05968  1.0000
  H   H1556     1.0  0.62922  0.36393  0.06025  1.0000
  H   H1557     1.0  0.61493  0.43577  0.00039  1.0000
  H   H1558     1.0  0.66574  0.44383  0.99896  1.0000
  C   C883      1.0  0.60269  0.39450  0.40213  1.0000
  C   C884      1.0  0.62541  0.40897  0.38979  1.0000
  C   C885      1.0  0.64636  0.41755  0.40730  1.0000
  C   C886      1.0  0.64501  0.41153  0.43743  1.0000
  C   C887      1.0  0.62211  0.39746  0.44989  1.0000
  C   C888      1.0  0.60102  0.38901  0.43238  1.0000
  H   H1559     1.0  0.62689  0.41340  0.36644  1.0000
  H   H1560     1.0  0.66365  0.42861  0.39745  1.0000
  C   C889      1.0  0.61283  0.30646  0.13522  1.0000
  H   H1561     1.0  0.62290  0.46948  0.05698  1.0000
  S   S202      1.0  0.67181  0.42030  0.46024  1.0000
  H   H1562     1.0  0.61686  0.47537  0.40884  1.0000
  C   C890      1.0  0.63875  0.44180  0.10687  1.0000
  S   S203      1.0  0.74190  0.43263  0.41006  1.0000
  H   H1563     1.0  0.49317  0.12141  0.02110  1.0000
  H   H1564     1.0  0.65728  0.35796  0.41609  1.0000
  C   C891      1.0  0.60886  0.43250  0.10170  1.0000
  H   H1565     1.0  0.69150  0.30153  0.42314  1.0000
  H   H1566     1.0  0.61857  0.36438  0.97593  1.0000
  H   H1567     1.0  0.51394  0.43082  0.12546  1.0000
  H   H1568     1.0  0.49436  0.44586  0.98872  1.0000
  C   C892      1.0  0.60481  0.40311  0.11560  1.0000
  H   H1569     1.0  0.66805  0.00579  0.97853  1.0000
  H   H1570     1.0  0.52462  0.23823  0.12766  1.0000
  C   C893      1.0  0.73512  0.35906  0.46351  1.0000
  H   H1571     1.0  0.66137  0.09545  0.97086  1.0000
  H   H1572     1.0  0.64284  0.43759  0.13052  1.0000
  H   H1573     1.0  0.65329  0.42708  0.09527  1.0000
  H   H1574     1.0  0.65913  0.45980  0.05525  1.0000
  C   C894      1.0  0.72498  0.46547  0.11081  1.0000
  H   H1575     1.0  0.62745  0.46840  0.46107  1.0000
  H   H1576     1.0  0.60178  0.29312  0.17918  1.0000
  C   C895      1.0  0.52212  0.26642  0.16366  1.0000
  H   H1577     1.0  0.63754  0.29897  0.41015  1.0000
  H   H1578     1.0  0.60527  0.43219  0.07812  1.0000
  H   H1579     1.0  0.59226  0.44655  0.11107  1.0000
  H   H1580     1.0  0.73150  0.39690  0.34937  1.0000
  H   H1581     1.0  0.53283  0.40804  0.98963  1.0000
  C   C896      1.0  0.64349  0.47493  0.06456  1.0000
  H   H1582     1.0  0.54019  0.44413  0.03370  1.0000
  H   H1583     1.0  0.69878  0.39749  0.33105  1.0000
  H   H1584     1.0  0.50771  0.42919  0.03633  1.0000
  C   C897      1.0  0.56496  0.23368  0.16918  1.0000
  C   C898      1.0  0.54048  0.27192  0.25560  1.0000
  C   C899      1.0  0.56178  0.18134  0.17814  1.0000
  H   H1585     1.0  0.55824  0.43444  0.98395  1.0000
  H   H1586     1.0  0.67764  0.36956  0.37168  1.0000
  H   H1587     1.0  0.62122  0.38794  0.10753  1.0000
  H   H1588     1.0  0.60560  0.40280  0.13968  1.0000
  H   H1589     1.0  0.58403  0.39636  0.10995  1.0000
  H   H1590     1.0  0.61536  0.33032  0.41395  1.0000
  H   H1591     1.0  0.58463  0.17865  0.18193  1.0000
  Fe  Fe101     1.0  0.49654  0.33751  0.34184  1.0000
  H   H1592     1.0  0.72650  0.00406  0.46369  1.0000
  H   H1593     1.0  0.63765  0.32744  0.38197  1.0000
  C   C900      1.0  0.51563  0.25928  0.13243  1.0000
  Fe  Fe102     1.0  0.73978  0.45035  0.01298  1.0000
  C   C901      1.0  0.69822  0.46062  0.09526  1.0000
  C   C902      1.0  0.55573  0.27239  0.20209  1.0000
  H   H1594     1.0  0.55682  0.29557  0.20123  1.0000
  Fe  Fe103     1.0  0.50237  0.31109  0.40608  1.0000
  C   C903      1.0  0.63618  0.32203  0.40582  1.0000
  H   H1595     1.0  0.51398  0.28845  0.16602  1.0000
  C   C904      1.0  0.52180  0.25710  0.99004  1.0000
  H   H1596     1.0  0.67252  0.47429  0.13221  1.0000
  C   C905      1.0  0.50228  0.01308  0.98456  1.0000
  C   C906      1.0  0.67252  0.47769  0.10802  1.0000
  H   H1597     1.0  0.52231  0.26964  0.27114  1.0000
  C   C907      1.0  0.70841  0.39643  0.35270  1.0000
  H   H1598     1.0  0.52080  0.27965  0.98695  1.0000
  H   H1599     1.0  0.70051  0.38431  0.41305  1.0000
  H   H1600     1.0  0.57592  0.26350  0.21119  1.0000
  C   C908      1.0  0.51791  0.44853  0.02821  1.0000
  S   S204      1.0  0.50770  0.35315  0.42376  1.0000
  H   H1601     1.0  0.70778  0.32487  0.46410  1.0000
  C   C909      1.0  0.50312  0.46587  0.07563  1.0000
  C   C910      1.0  0.65932  0.33511  0.42116  1.0000
  C   C911      1.0  0.51580  0.45061  0.99454  1.0000
  H   H1602     1.0  0.60145  0.32733  0.13592  1.0000
  S   S205      1.0  0.50120  0.38049  0.35634  1.0000
  H   H1603     1.0  0.72991  0.30308  0.37411  1.0000
  C   C912      1.0  0.66838  0.05063  0.97540  1.0000
  C   C913      1.0  0.59971  0.28540  0.15732  1.0000
  H   H1604     1.0  0.69567  0.43785  0.09750  1.0000
  H   H1605     1.0  0.69285  0.02330  0.45938  1.0000
  N   N50       1.0  0.71293  0.33997  0.41878  1.0000
  H   H1606     1.0  0.52503  0.01633  0.98484  1.0000
  C   C914      1.0  0.68889  0.32290  0.41203  1.0000
  H   H1607     1.0  0.52415  0.20440  0.04320  1.0000
  H   H1608     1.0  0.61222  0.29940  0.11285  1.0000
  H   H1609     1.0  0.70166  0.46706  0.07181  1.0000
  N   N51       1.0  0.64416  0.47184  0.09727  1.0000
  C   C915      1.0  0.54995  0.20999  0.18669  1.0000
  H   H1610     1.0  0.54717  0.29357  0.25591  1.0000
  C   C916      1.0  0.53118  0.45934  0.09114  1.0000
  H   H1611     1.0  0.70859  0.35186  0.35770  1.0000
  H   H1612     1.0  0.73987  0.37852  0.45031  1.0000
  H   H1613     1.0  0.51299  0.27978  0.21988  1.0000
  H   H1614     1.0  0.51405  0.46671  0.13467  1.0000
  H   H1615     1.0  0.74108  0.30381  0.42885  1.0000
  H   H1616     1.0  0.61222  0.26524  0.15629  1.0000
  H   H1617     1.0  0.55796  0.30334  0.14897  1.0000
  C   C917      1.0  0.71041  0.34495  0.45084  1.0000
  H   H1618     1.0  0.61416  0.48074  0.13238  1.0000
  H   H1619     1.0  0.68871  0.31942  0.38855  1.0000
  H   H1620     1.0  0.51988  0.47186  0.98493  1.0000
  H   H1621     1.0  0.55353  0.21080  0.21024  1.0000
  H   H1622     1.0  0.56663  0.22874  0.14593  1.0000
  H   H1623     1.0  0.49636  0.99972  0.00418  1.0000
  S   S206      1.0  0.70439  0.05230  0.98340  1.0000
  C   C918      1.0  0.53629  0.42961  0.98040  1.0000
  H   H1624     1.0  0.52716  0.21119  0.18292  1.0000
  H   H1625     1.0  0.69125  0.35857  0.45543  1.0000
  H   H1626     1.0  0.55120  0.16468  0.19152  1.0000
  H   H1627     1.0  0.52414  0.27489  0.11606  1.0000
  C   C919      1.0  0.65580  0.02526  0.97411  1.0000
  C   C920      1.0  0.49736  0.33665  0.25764  1.0000
  S   S207      1.0  0.50353  0.26677  0.43038  1.0000
  H   H1628     1.0  0.72287  0.45908  0.13439  1.0000
  H   H1629     1.0  0.67632  0.98550  0.43235  1.0000
  C   C921      1.0  0.71285  0.36790  0.40134  1.0000
  C   C922      1.0  0.72354  0.36084  0.97037  1.0000
  H   H1630     1.0  0.66809  0.34896  0.98087  1.0000
  N   N52       1.0  0.50485  0.47329  0.04323  1.0000
  C   C923      1.0  0.52593  0.44992  0.12324  1.0000
  H   H1631     1.0  0.54617  0.44502  0.13408  1.0000
  H   H1632     1.0  0.54425  0.44254  0.08107  1.0000
  Fe  Fe104     1.0  0.73854  0.01671  0.98912  1.0000
  H   H1633     1.0  0.65562  0.33103  0.44500  1.0000
  C   C924      1.0  0.74022  0.32311  0.41381  1.0000
  H   H1634     1.0  0.70048  0.41509  0.36398  1.0000
  H   H1635     1.0  0.66111  0.48021  0.45818  1.0000
  C   C925      1.0  0.65197  0.07571  0.96975  1.0000
  H   H1636     1.0  0.54302  0.47845  0.09063  1.0000
  H   H1637     1.0  0.49295  0.05102  0.00675  1.0000
  H   H1638     1.0  0.70830  0.41160  0.97088  1.0000
  C   C926      1.0  0.52403  0.21133  0.96882  1.0000
  H   H1639     1.0  0.72232  0.33792  0.96889  1.0000
  H   H1640     1.0  0.57499  0.00565  0.85428  1.0000
  H   H1641     1.0  0.70545  0.98547  0.90403  1.0000
  S   S208      1.0  0.70181  0.03765  0.57864  1.0000
  Fe  Fe105     1.0  0.54062  0.09809  0.58797  1.0000
  S   S209      1.0  0.54776  0.13976  0.60460  1.0000
  S   S210      1.0  0.57175  0.07091  0.56152  1.0000
  Fe  Fe106     1.0  0.50852  0.15548  0.58122  1.0000
  H   H1642     1.0  0.59174  0.00533  0.56785  1.0000
  Fe  Fe107     1.0  0.52015  0.12678  0.64368  1.0000
  S   S211      1.0  0.52722  0.13997  0.69025  1.0000
  C   C927      1.0  0.49497  0.99998  0.95620  1.0000
  S   S212      1.0  0.51585  0.08384  0.62835  1.0000
  Fe  Fe108     1.0  0.54581  0.08481  0.93250  1.0000
  S   S213      1.0  0.55633  0.12068  0.90051  1.0000
  S   S214      1.0  0.57567  0.04880  0.95052  1.0000
  C   C928      1.0  0.62710  0.08562  0.88129  1.0000
  H   H1643     1.0  0.49251  0.42594  0.48850  1.0000
  Fe  Fe109     1.0  0.52130  0.10772  0.87358  1.0000
  H   H1644     1.0  0.57543  0.13760  0.47226  1.0000
  N   N53       1.0  0.63842  0.05729  0.87247  1.0000
  C   C929      1.0  0.50801  0.24719  0.51904  1.0000
  C   C930      1.0  0.63261  0.36478  0.95616  1.0000
  C   C931      1.0  0.64735  0.05863  0.84058  1.0000
  C   C932      1.0  0.72841  0.36634  0.49483  1.0000
  C   C933      1.0  0.52672  0.12676  0.72785  1.0000
  S   S215      1.0  0.52593  0.09469  0.82598  1.0000
  C   C934      1.0  0.52893  0.09818  0.73651  1.0000
  C   C935      1.0  0.52570  0.10796  0.78841  1.0000
  C   C936      1.0  0.64834  0.10839  0.88254  1.0000
  H   H1645     1.0  0.52134  0.15160  0.79613  1.0000
  C   C937      1.0  0.68846  0.42699  0.93172  1.0000
  C   C938      1.0  0.67839  0.06450  0.83284  1.0000
  H   H1646     1.0  0.52227  0.25115  0.94395  1.0000
  H   H1647     1.0  0.63793  0.16508  0.50752  1.0000
  H   H1648     1.0  0.70667  0.01563  0.49507  1.0000
  H   H1649     1.0  0.49883  0.04554  0.72271  1.0000
  H   H1650     1.0  0.66592  0.10143  0.89689  1.0000
  H   H1651     1.0  0.68587  0.46661  0.49658  1.0000
  C   C939      1.0  0.66604  0.04770  0.57236  1.0000
  C   C940      1.0  0.65235  0.04048  0.54796  1.0000
  C   C941      1.0  0.62364  0.04838  0.54465  1.0000
  C   C942      1.0  0.60827  0.06327  0.56579  1.0000
  C   C943      1.0  0.62209  0.07083  0.58991  1.0000
  C   C944      1.0  0.65081  0.06314  0.59310  1.0000
  H   H1652     1.0  0.66223  0.09248  0.49446  1.0000
  H   H1653     1.0  0.61312  0.04251  0.52587  1.0000
  H   H1654     1.0  0.61058  0.08227  0.60633  1.0000
  H   H1655     1.0  0.66124  0.06891  0.61200  1.0000
  H   H1656     1.0  0.59080  0.05322  0.83859  1.0000
  H   H1657     1.0  0.74190  0.34915  0.86295  1.0000
  H   H1658     1.0  0.66757  0.42359  0.94216  1.0000
  H   H1659     1.0  0.72369  0.34732  0.50885  1.0000
  C   C945      1.0  0.72375  0.38327  0.88768  1.0000
  H   H1660     1.0  0.60166  0.12955  0.57078  1.0000
  H   H1661     1.0  0.57484  0.18647  0.47931  1.0000
  C   C946      1.0  0.54784  0.10757  0.49166  1.0000
  H   H1662     1.0  0.58311  0.99281  0.60456  1.0000
  H   H1663     1.0  0.67747  0.05176  0.78842  1.0000
  C   C947      1.0  0.62732  0.02510  0.96702  1.0000
  H   H1664     1.0  0.69245  0.04619  0.84000  1.0000
  H   H1665     1.0  0.73775  0.38246  0.84240  1.0000
  H   H1666     1.0  0.60984  0.03406  0.90096  1.0000
  H   H1667     1.0  0.68726  0.42312  0.90848  1.0000
  C   C948      1.0  0.58708  0.04740  0.86211  1.0000
  H   H1668     1.0  0.69523  0.44972  0.61605  1.0000
  C   C949      1.0  0.59940  0.21598  0.49804  1.0000
  C   C950      1.0  0.49961  0.98408  0.89597  1.0000
  C   C951      1.0  0.67514  0.47066  0.51766  1.0000
  H   H1669     1.0  0.53915  0.10391  0.47036  1.0000
  H   H1670     1.0  0.61680  0.14340  0.88062  1.0000
  H   H1671     1.0  0.49994  0.98590  0.84877  1.0000
  S   S216      1.0  0.51477  0.11073  0.95897  1.0000
  H   H1672     1.0  0.56191  0.01857  0.88850  1.0000
  H   H1673     1.0  0.51811  0.99681  0.89551  1.0000
  C   C952      1.0  0.68314  0.06995  0.79999  1.0000
  C   C953      1.0  0.52263  0.24080  0.96560  1.0000
  H   H1674     1.0  0.61482  0.18856  0.54644  1.0000
  H   H1675     1.0  0.67040  0.08888  0.79181  1.0000
  H   H1676     1.0  0.63404  0.45736  0.50969  1.0000
  C   C954      1.0  0.59495  0.98751  0.58432  1.0000
  H   H1677     1.0  0.72724  0.46438  0.62462  1.0000
  C   C955      1.0  0.69959  0.00812  0.90483  1.0000
  S   S217      1.0  0.52484  0.19200  0.93679  1.0000
  C   C956      1.0  0.52334  0.13656  0.77975  1.0000
  H   H1678     1.0  0.54526  0.99890  0.93848  1.0000
  H   H1679     1.0  0.71189  0.47370  0.58970  1.0000
  C   C957      1.0  0.57120  0.14332  0.51968  1.0000
  H   H1680     1.0  0.57669  0.06566  0.87240  1.0000
  C   C958      1.0  0.52842  0.08892  0.76645  1.0000
  C   C959      1.0  0.72279  0.99910  0.73571  1.0000
  C   C960      1.0  0.52399  0.14581  0.74980  1.0000
  H   H1681     1.0  0.53046  0.06677  0.77266  1.0000
  H   H1682     1.0  0.70387  0.44126  0.54126  1.0000
  H   H1683     1.0  0.62576  0.38315  0.94150  1.0000
  H   H1684     1.0  0.70559  0.07346  0.79504  1.0000
  C   C961      1.0  0.71138  0.40775  0.94750  1.0000
  C   C962      1.0  0.62743  0.12210  0.50342  1.0000
  H   H1685     1.0  0.68516  0.08270  0.84341  1.0000
  C   C963      1.0  0.70720  0.46882  0.61324  1.0000
  C   C964      1.0  0.67136  0.01511  0.89064  1.0000
  C   C965      1.0  0.61489  0.03776  0.87726  1.0000
  H   H1686     1.0  0.67077  0.44803  0.56027  1.0000
  H   H1687     1.0  0.71023  0.38185  0.49571  1.0000
  H   H1688     1.0  0.63545  0.14118  0.55801  1.0000
  H   H1689     1.0  0.61626  0.08331  0.90307  1.0000
  H   H1690     1.0  0.61086  0.09477  0.86606  1.0000
  H   H1691     1.0  0.64393  0.03858  0.83097  1.0000
  H   H1692     1.0  0.67669  0.47123  0.92325  1.0000
  H   H1693     1.0  0.50818  0.28494  0.49004  1.0000
  H   H1694     1.0  0.62903  0.14004  0.61161  1.0000
  H   H1695     1.0  0.65652  0.11452  0.86035  1.0000
  H   H1696     1.0  0.68043  0.05881  0.88872  1.0000
  C   C966      1.0  0.68091  0.44493  0.53859  1.0000
  H   H1697     1.0  0.53085  0.10585  0.50854  1.0000
  H   H1698     1.0  0.73238  0.00774  0.75443  1.0000
  H   H1699     1.0  0.67344  0.37845  0.91977  1.0000
  H   H1700     1.0  0.55300  0.15096  0.53341  1.0000
  C   C967      1.0  0.56643  0.02438  0.86512  1.0000
  H   H1701     1.0  0.64977  0.15091  0.89505  1.0000
  H   H1702     1.0  0.62506  0.11258  0.52587  1.0000
  C   C968      1.0  0.61466  0.14782  0.56745  1.0000
  H   H1703     1.0  0.67323  0.00933  0.86777  1.0000
  H   H1704     1.0  0.71394  0.46284  0.92187  1.0000
  H   H1705     1.0  0.63376  0.07457  0.82800  1.0000
  C   C969      1.0  0.70503  0.00742  0.47335  1.0000
  H   H1706     1.0  0.71798  0.00732  0.63544  1.0000
  H   H1707     1.0  0.60104  0.22531  0.51918  1.0000
  H   H1708     1.0  0.67303  0.42615  0.52974  1.0000
  C   C970      1.0  0.60024  0.17146  0.54755  1.0000
  H   H1709     1.0  0.59605  0.98364  0.92444  1.0000
  C   C971      1.0  0.65764  0.11549  0.49302  1.0000
  N   N54       1.0  0.59345  0.16429  0.51734  1.0000
  H   H1710     1.0  0.67019  0.98412  0.48837  1.0000
  H   H1711     1.0  0.62075  0.20988  0.48963  1.0000
  C   C972      1.0  0.62011  0.15783  0.59735  1.0000
  C   C973      1.0  0.63424  0.13478  0.89456  1.0000
  C   C974      1.0  0.69393  0.45781  0.93351  1.0000
  H   H1712     1.0  0.66380  0.02870  0.53180  1.0000
  H   H1713     1.0  0.50203  0.03867  0.68476  1.0000
  H   H1714     1.0  0.62592  0.13021  0.91712  1.0000
  C   C975      1.0  0.62354  0.07555  0.96258  1.0000
  N   N55       1.0  0.71217  0.37680  0.94329  1.0000
  H   H1715     1.0  0.68586  0.34449  0.93206  1.0000
  H   H1716     1.0  0.57882  0.12357  0.53146  1.0000
  H   H1717     1.0  0.51033  0.25815  0.53837  1.0000
  H   H1718     1.0  0.62145  0.01686  0.86959  1.0000
  C   C976      1.0  0.73165  0.36967  0.91803  1.0000
  H   H1719     1.0  0.65584  0.00183  0.90247  1.0000
  H   H1720     1.0  0.70216  0.37912  0.88211  1.0000
  H   H1721     1.0  0.67652  0.98859  0.61288  1.0000
  H   H1722     1.0  0.49882  0.01616  0.93824  1.0000
  C   C977      1.0  0.66172  0.04641  0.89232  1.0000
  H   H1723     1.0  0.65514  0.04919  0.91532  1.0000
  H   H1724     1.0  0.54650  0.03211  0.85479  1.0000
  S   S218      1.0  0.51217  0.07064  0.90490  1.0000
  H   H1725     1.0  0.73114  0.00983  0.71534  1.0000
  H   H1726     1.0  0.60002  0.25710  0.47501  1.0000
  H   H1727     1.0  0.58783  0.46801  0.50394  1.0000
  C   C978      1.0  0.58079  0.19060  0.50162  1.0000
  H   H1728     1.0  0.60044  0.16621  0.60791  1.0000
  C   C979      1.0  0.58662  0.23901  0.47694  1.0000
  Fe  Fe110     1.0  0.52288  0.14599  0.92559  1.0000
  Fe  Fe111     1.0  0.73806  0.01097  0.55898  1.0000
  H   H1729     1.0  0.53174  0.08322  0.72014  1.0000
  H   H1730     1.0  0.58080  0.17950  0.55914  1.0000
  C   C980      1.0  0.68368  0.36648  0.93838  1.0000
  H   H1731     1.0  0.63532  0.17441  0.59529  1.0000
  C   C981      1.0  0.55936  0.13654  0.49017  1.0000
  C   C982      1.0  0.61962  0.15417  0.50084  1.0000
  C   C983      1.0  0.61107  0.05023  0.96093  1.0000
  H   H1732     1.0  0.61792  0.00538  0.96609  1.0000
  H   H1733     1.0  0.69971  0.00354  0.73698  1.0000
  H   H1734     1.0  0.72588  0.40616  0.88694  1.0000
  H   H1735     1.0  0.65171  0.47932  0.61614  1.0000
  H   H1736     1.0  0.53309  0.43062  0.95660  1.0000
  H   H1737     1.0  0.56470  0.09113  0.49677  1.0000
  H   H1738     1.0  0.61129  0.09504  0.95835  1.0000
  H   H1739     1.0  0.67246  0.12473  0.50703  1.0000
  S   S219      1.0  0.50913  0.19963  0.55720  1.0000
  H   H1740     1.0  0.71629  0.01993  0.89316  1.0000
  C   C984      1.0  0.50246  0.21952  0.46886  1.0000
  H   H1741     1.0  0.62082  0.39267  0.47319  1.0000
  H   H1742     1.0  0.73387  0.34656  0.91672  1.0000
  H   H1743     1.0  0.63349  0.00123  0.59864  1.0000
  C   C985      1.0  0.64315  0.47731  0.51407  1.0000
  H   H1744     1.0  0.52240  0.16798  0.74358  1.0000
  H   H1745     1.0  0.61367  0.11115  0.48980  1.0000
  H   H1746     1.0  0.69847  0.01317  0.92799  1.0000
  H   H1747     1.0  0.66096  0.12368  0.47006  1.0000
  S   S220      1.0  0.50221  0.11414  0.56310  1.0000
  C   C986      1.0  0.50681  0.26252  0.49155  1.0000
  H   H1748     1.0  0.73761  0.98507  0.66152  1.0000
  C   C987      1.0  0.71633  0.99041  0.65309  1.0000
  H   H1749     1.0  0.50149  0.18190  0.49794  1.0000
  H   H1750     1.0  0.70247  0.99812  0.67099  1.0000
  C   C988      1.0  0.50324  0.20424  0.49639  1.0000
  H   H1751     1.0  0.61797  0.16010  0.47709  1.0000
  H   H1752     1.0  0.56546  0.24630  0.48503  1.0000
  C   C989      1.0  0.50622  0.21793  0.52179  1.0000
  H   H1753     1.0  0.73208  0.41603  0.94113  1.0000
  C   C990      1.0  0.66284  0.36689  0.96495  1.0000
  H   H1754     1.0  0.54204  0.15215  0.48406  1.0000
  H   H1755     1.0  0.69503  0.46290  0.95655  1.0000
  H   H1756     1.0  0.56095  0.19767  0.51302  1.0000
  H   H1757     1.0  0.63050  0.34531  0.94511  1.0000
  C   C991      1.0  0.62619  0.98206  0.59017  1.0000
  H   H1758     1.0  0.68190  0.79669  0.03321  1.0000
  H   H1759     1.0  0.66005  0.84220  0.39314  1.0000
  Fe  Fe112     1.0  0.53733  0.73234  0.34866  1.0000
  S   S221      1.0  0.55831  0.72827  0.30492  1.0000
  S   S222      1.0  0.56858  0.71900  0.38327  1.0000
  Fe  Fe113     1.0  0.53823  0.77112  0.29483  1.0000
  S   S223      1.0  0.56369  0.80619  0.27338  1.0000
  Fe  Fe114     1.0  0.51854  0.71123  0.29171  1.0000
  S   S224      1.0  0.51368  0.66954  0.27247  1.0000
  S   S225      1.0  0.51773  0.77552  0.33906  1.0000
  H   H1760     1.0  0.58451  0.81136  0.45492  1.0000
  C   C992      1.0  0.55217  0.71935  0.06095  1.0000
  H   H1761     1.0  0.59451  0.78722  0.32550  1.0000
  H   H1762     1.0  0.55372  0.91944  0.12280  1.0000
  C   C993      1.0  0.58917  0.61671  0.17572  1.0000
  Fe  Fe115     1.0  0.71316  0.86490  0.29797  1.0000
  S   S226      1.0  0.71605  0.91147  0.28877  1.0000
  S   S227      1.0  0.67832  0.84130  0.32224  1.0000
  S   S228      1.0  0.67173  0.63098  0.23077  1.0000
  S   S229      1.0  0.71655  0.61831  0.30005  1.0000
  Fe  Fe116     1.0  0.66983  0.67749  0.22132  1.0000
  S   S230      1.0  0.63366  0.70791  0.23360  1.0000
  S   S231      1.0  0.70851  0.68211  0.24596  1.0000
  H   H1763     1.0  0.51427  0.59607  0.35462  1.0000
  C   C994      1.0  0.56612  0.52359  0.02964  1.0000
  H   H1764     1.0  0.64259  0.96268  0.02996  1.0000
  S   S232      1.0  0.52840  0.76943  0.16883  1.0000
  H   H1765     1.0  0.51194  0.85546  0.35544  1.0000
  C   C995      1.0  0.55133  0.53059  0.41089  1.0000
  H   H1766     1.0  0.60904  0.81918  0.19905  1.0000
  Fe  Fe117     1.0  0.52566  0.63916  0.10451  1.0000
  S   S233      1.0  0.53777  0.59386  0.11500  1.0000
  C   C996      1.0  0.52140  0.73110  0.06562  1.0000
  Fe  Fe118     1.0  0.51576  0.63172  0.04075  1.0000
  H   H1767     1.0  0.52247  0.56635  0.41147  1.0000
  C   C997      1.0  0.63905  0.48767  0.46160  1.0000
  Fe  Fe119     1.0  0.56204  0.59722  0.07223  1.0000
  S   S234      1.0  0.55316  0.64323  0.06394  1.0000
  H   H1768     1.0  0.50332  0.86828  0.13952  1.0000
  H   H1769     1.0  0.64832  0.85936  0.26919  1.0000
  H   H1770     1.0  0.60788  0.80250  0.12339  1.0000
  H   H1771     1.0  0.60252  0.49240  0.09697  1.0000
  S   S235      1.0  0.72853  0.61276  0.06259  1.0000
  N   N56       1.0  0.54749  0.87624  0.13733  1.0000
  H   H1772     1.0  0.63945  0.80116  0.34373  1.0000
  H   H1773     1.0  0.51649  0.51392  0.05422  1.0000
  C   C998      1.0  0.63731  0.84861  0.39381  1.0000
  H   H1774     1.0  0.54718  0.86866  0.18447  1.0000
  C   C999      1.0  0.63684  0.59023  0.06122  1.0000
  C   C1000     1.0  0.64412  0.60906  0.08113  1.0000
  C   C1001     1.0  0.67203  0.61725  0.08160  1.0000
  C   C1002     1.0  0.69255  0.60640  0.06218  1.0000
  C   C1003     1.0  0.68476  0.58844  0.04182  1.0000
  C   C1004     1.0  0.65724  0.58040  0.04142  1.0000
  H   H1775     1.0  0.62873  0.61616  0.09697  1.0000
  H   H1776     1.0  0.67797  0.63082  0.09772  1.0000
  H   H1777     1.0  0.70040  0.57995  0.02678  1.0000
  H   H1778     1.0  0.65183  0.56622  0.02581  1.0000
  H   H1779     1.0  0.61017  0.51780  0.43695  1.0000
  H   H1780     1.0  0.58875  0.52068  0.02390  1.0000
  H   H1781     1.0  0.72985  0.48774  0.10798  1.0000
  N   N57       1.0  0.59242  0.60724  0.20748  1.0000
  C   C1005     1.0  0.51496  0.92129  0.97328  1.0000
  C   C1006     1.0  0.71116  0.57767  0.13443  1.0000
  C   C1007     1.0  0.73471  0.53399  0.31011  1.0000
  H   H1782     1.0  0.50273  0.73102  0.46608  1.0000
  H   H1783     1.0  0.52181  0.92101  0.16703  1.0000
  C   C1008     1.0  0.53503  0.60431  0.34835  1.0000
  C   C1009     1.0  0.69232  0.93168  0.39562  1.0000
  H   H1784     1.0  0.64887  0.71573  0.01740  1.0000
  H   H1785     1.0  0.60719  0.55930  0.12896  1.0000
  C   C1010     1.0  0.64554  0.70844  0.41495  1.0000
  C   C1011     1.0  0.55630  0.75085  0.18818  1.0000
  C   C1012     1.0  0.56213  0.75607  0.21665  1.0000
  C   C1013     1.0  0.58583  0.74263  0.23018  1.0000
  C   C1014     1.0  0.60373  0.72347  0.21565  1.0000
  C   C1015     1.0  0.59752  0.71760  0.18747  1.0000
  C   C1016     1.0  0.57390  0.73116  0.17395  1.0000
  H   H1786     1.0  0.54876  0.77098  0.22801  1.0000
  H   H1787     1.0  0.59050  0.74746  0.25195  1.0000
  H   H1788     1.0  0.61075  0.70254  0.17621  1.0000
  H   H1789     1.0  0.56868  0.72576  0.15265  1.0000
  H   H1790     1.0  0.71585  0.59470  0.35914  1.0000
  H   H1791     1.0  0.51018  0.57371  0.30801  1.0000
  H   H1792     1.0  0.68954  0.84669  0.03619  1.0000
  H   H1793     1.0  0.70400  0.92270  0.35139  1.0000
  C   C1017     1.0  0.71801  0.54453  0.09626  1.0000
  C   C1018     1.0  0.70035  0.55907  0.11610  1.0000
  H   H1794     1.0  0.70924  0.53162  0.08118  1.0000
  H   H1795     1.0  0.67799  0.55711  0.11613  1.0000
  H   H1796     1.0  0.50752  0.62689  0.23300  1.0000
  C   C1019     1.0  0.72178  0.58327  0.31486  1.0000
  H   H1797     1.0  0.59359  0.52849  0.14809  1.0000
  H   H1798     1.0  0.53465  0.51571  0.41554  1.0000
  H   H1799     1.0  0.57631  0.84357  0.35473  1.0000
  C   C1020     1.0  0.71890  0.78127  0.17387  1.0000
  C   C1021     1.0  0.51434  0.67051  0.23421  1.0000
  H   H1800     1.0  0.54668  0.86592  0.03589  1.0000
  H   H1801     1.0  0.54750  0.61165  0.99178  1.0000
  C   C1022     1.0  0.51978  0.67100  0.17309  1.0000
  C   C1023     1.0  0.51540  0.64595  0.18961  1.0000
  C   C1024     1.0  0.51174  0.64595  0.22014  1.0000
  H   H1802     1.0  0.69896  0.60134  0.41960  1.0000
  C   C1025     1.0  0.51905  0.69565  0.18713  1.0000
  C   C1026     1.0  0.55565  0.71202  0.41889  1.0000
  C   C1027     1.0  0.53150  0.72632  0.42934  1.0000
  C   C1028     1.0  0.50753  0.90408  0.16488  1.0000
  H   H1803     1.0  0.56396  0.53218  0.05137  1.0000
  C   C1029     1.0  0.72245  0.54898  0.21300  1.0000
  C   C1030     1.0  0.57006  0.69184  0.43711  1.0000
  C   C1031     1.0  0.60201  0.53737  0.12689  1.0000
  C   C1032     1.0  0.69509  0.85720  0.98848  1.0000
  H   H1804     1.0  0.66142  0.73652  0.44268  1.0000
  H   H1805     1.0  0.58895  0.68103  0.42921  1.0000
  C   C1033     1.0  0.59591  0.81515  0.28688  1.0000
  C   C1034     1.0  0.61126  0.83564  0.27121  1.0000
  C   C1035     1.0  0.63673  0.84361  0.28148  1.0000
  C   C1036     1.0  0.64703  0.83126  0.30769  1.0000
  C   C1037     1.0  0.63162  0.81091  0.32349  1.0000
  C   C1038     1.0  0.60619  0.80291  0.31317  1.0000
  H   H1806     1.0  0.60358  0.84528  0.25091  1.0000
  Fe  Fe120     1.0  0.71195  0.63518  0.25266  1.0000
  H   H1807     1.0  0.71074  0.76912  0.27202  1.0000
  H   H1808     1.0  0.56804  0.79769  0.98509  1.0000
  H   H1809     1.0  0.59475  0.83954  0.14986  1.0000
  S   S236      1.0  0.52606  0.58561  0.04624  1.0000
  H   H1810     1.0  0.66937  0.94175  0.99001  1.0000
  H   H1811     1.0  0.57853  0.56891  0.37522  1.0000
  H   H1812     1.0  0.63146  0.49450  0.00846  1.0000
  H   H1813     1.0  0.73355  0.80133  0.13232  1.0000
  N   N58       1.0  0.55175  0.60709  0.37504  1.0000
  C   C1039     1.0  0.53310  0.62188  0.39692  1.0000
  C   C1040     1.0  0.57696  0.62340  0.36611  1.0000
  C   C1041     1.0  0.59628  0.62900  0.39107  1.0000
  H   H1814     1.0  0.65897  0.75604  0.25084  1.0000
  H   H1815     1.0  0.53198  0.89332  0.22862  1.0000
  C   C1042     1.0  0.61933  0.64808  0.38009  1.0000
  S   S237      1.0  0.73696  0.73907  0.07130  1.0000
  H   H1816     1.0  0.54307  0.62089  0.41845  1.0000
  H   H1817     1.0  0.57047  0.64372  0.35426  1.0000
  C   C1043     1.0  0.67632  0.88959  0.46345  1.0000
  H   H1818     1.0  0.60680  0.60918  0.40019  1.0000
  H   H1819     1.0  0.58436  0.63895  0.40894  1.0000
  H   H1820     1.0  0.56574  0.62543  0.26326  1.0000
  H   H1821     1.0  0.57171  0.58155  0.40997  1.0000
  C   C1044     1.0  0.72671  0.55061  0.35808  1.0000
  H   H1822     1.0  0.55473  0.82794  0.40201  1.0000
  H   H1823     1.0  0.61008  0.66881  0.37176  1.0000
  H   H1824     1.0  0.63317  0.65112  0.39829  1.0000
  H   H1825     1.0  0.63235  0.63861  0.36249  1.0000
  C   C1045     1.0  0.55335  0.57338  0.19747  1.0000
  C   C1046     1.0  0.74006  0.58067  0.13348  1.0000
  H   H1826     1.0  0.63052  0.51890  0.05472  1.0000
  H   H1827     1.0  0.51940  0.92791  0.32110  1.0000
  C   C1047     1.0  0.59308  0.63318  0.22425  1.0000
  C   C1048     1.0  0.61955  0.58988  0.21202  1.0000
  C   C1049     1.0  0.62040  0.55977  0.20231  1.0000
  C   C1050     1.0  0.61277  0.63409  0.16085  1.0000
  C   C1051     1.0  0.58801  0.62918  0.25785  1.0000
  C   C1052     1.0  0.64878  0.54423  0.20750  1.0000
  C   C1053     1.0  0.60176  0.65327  0.13526  1.0000
  C   C1054     1.0  0.59436  0.65530  0.27275  1.0000
  H   H1828     1.0  0.57709  0.64960  0.21609  1.0000
  H   H1829     1.0  0.61351  0.64276  0.22078  1.0000
  H   H1830     1.0  0.63721  0.60027  0.20045  1.0000
  H   H1831     1.0  0.62497  0.58805  0.23532  1.0000
  H   H1832     1.0  0.61646  0.56027  0.17880  1.0000
  H   H1833     1.0  0.62257  0.64746  0.17555  1.0000
  H   H1834     1.0  0.62968  0.61961  0.15242  1.0000
  H   H1835     1.0  0.60112  0.61135  0.26767  1.0000
  H   H1836     1.0  0.55264  0.70862  0.04036  1.0000
  H   H1837     1.0  0.64811  0.52227  0.20179  1.0000
  H   H1838     1.0  0.66502  0.55416  0.19343  1.0000
  H   H1839     1.0  0.61954  0.66307  0.12320  1.0000
  H   H1840     1.0  0.59058  0.64131  0.12010  1.0000
  H   H1841     1.0  0.58712  0.67008  0.14330  1.0000
  H   H1842     1.0  0.58831  0.65281  0.29624  1.0000
  H   H1843     1.0  0.61710  0.65870  0.27075  1.0000
  H   H1844     1.0  0.58234  0.67402  0.26291  1.0000
  C   C1055     1.0  0.62559  0.79996  0.41451  1.0000
  C   C1056     1.0  0.71830  0.73586  0.97348  1.0000
  C   C1057     1.0  0.72082  0.57779  0.34529  1.0000
  H   H1845     1.0  0.51660  0.75030  0.05139  1.0000
  C   C1058     1.0  0.74121  0.78550  0.14913  1.0000
  H   H1846     1.0  0.65272  0.58043  0.42608  1.0000
  H   H1847     1.0  0.52029  0.54461  0.19729  1.0000
  H   H1848     1.0  0.65418  0.79158  0.26007  1.0000
  H   H1849     1.0  0.56773  0.52082  0.39653  1.0000
  H   H1850     1.0  0.51434  0.62696  0.17883  1.0000
  S   S238      1.0  0.74201  0.93039  0.20616  1.0000
  H   H1851     1.0  0.62737  0.50637  0.38793  1.0000
  N   N59       1.0  0.53672  0.88562  0.33138  1.0000
  C   C1059     1.0  0.53332  0.86325  0.35570  1.0000
  C   C1060     1.0  0.51351  0.90838  0.33370  1.0000
  C   C1061     1.0  0.53389  0.87238  0.30295  1.0000
  C   C1062     1.0  0.56537  0.89722  0.33063  1.0000
  C   C1063     1.0  0.57519  0.90801  0.35911  1.0000
  C   C1064     1.0  0.55434  0.83749  0.35516  1.0000
  C   C1065     1.0  0.52984  0.89296  0.27556  1.0000
  C   C1066     1.0  0.50443  0.95212  0.97574  1.0000
  H   H1852     1.0  0.51962  0.71500  0.17408  1.0000
  C   C1067     1.0  0.60570  0.91582  0.35574  1.0000
  C   C1068     1.0  0.54985  0.81774  0.38215  1.0000
  C   C1069     1.0  0.53707  0.87858  0.24758  1.0000
  S   S239      1.0  0.50268  0.65452  0.99846  1.0000
  H   H1853     1.0  0.53460  0.87164  0.37735  1.0000
  C   C1070     1.0  0.72812  0.56108  0.29731  1.0000
  Fe  Fe121     1.0  0.50089  0.58699  0.08801  1.0000
  N   N60       1.0  0.61716  0.78131  0.44077  1.0000
  H   H1854     1.0  0.55256  0.85820  0.29853  1.0000
  H   H1855     1.0  0.58167  0.88130  0.32349  1.0000
  H   H1856     1.0  0.56661  0.91495  0.31387  1.0000
  H   H1857     1.0  0.57394  0.89207  0.37769  1.0000
  H   H1858     1.0  0.56258  0.92725  0.36421  1.0000
  H   H1859     1.0  0.65771  0.75024  0.40521  1.0000
  H   H1860     1.0  0.63809  0.53176  0.09830  1.0000
  H   H1861     1.0  0.54303  0.91100  0.27554  1.0000
  H   H1862     1.0  0.62843  0.84561  0.37242  1.0000
  H   H1863     1.0  0.51154  0.66313  0.43248  1.0000
  H   H1864     1.0  0.52059  0.91986  0.37869  1.0000
  H   H1865     1.0  0.72603  0.54686  0.38150  1.0000
  H   H1866     1.0  0.64668  0.52401  0.43106  1.0000
  C   C1071     1.0  0.68859  0.91859  0.46130  1.0000
  H   H1867     1.0  0.61965  0.89747  0.35012  1.0000
  H   H1868     1.0  0.60797  0.93289  0.33836  1.0000
  H   H1869     1.0  0.61249  0.92311  0.37650  1.0000
  N   N61       1.0  0.67088  0.94220  0.44660  1.0000
  C   C1072     1.0  0.55498  0.85652  0.05681  1.0000
  H   H1870     1.0  0.56353  0.79836  0.38031  1.0000
  C   C1073     1.0  0.61844  0.75154  0.43216  1.0000
  C   C1074     1.0  0.71471  0.71234  0.99302  1.0000
  H   H1871     1.0  0.53018  0.78457  0.46393  1.0000
  H   H1872     1.0  0.61437  0.92778  0.14386  1.0000
  C   C1075     1.0  0.62839  0.52030  0.11736  1.0000
  H   H1873     1.0  0.54945  0.83439  0.05938  1.0000
  H   H1874     1.0  0.52460  0.72490  0.98890  1.0000
  N   N62       1.0  0.71202  0.72673  0.31996  1.0000
  H   H1875     1.0  0.60999  0.93994  0.43367  1.0000
  C   C1076     1.0  0.71833  0.69618  0.32970  1.0000
  C   C1077     1.0  0.68341  0.73083  0.30687  1.0000
  C   C1078     1.0  0.71340  0.74578  0.34427  1.0000
  H   H1876     1.0  0.55974  0.87219  0.24632  1.0000
  C   C1079     1.0  0.62193  0.83182  0.41813  1.0000
  C   C1080     1.0  0.65870  0.71967  0.32593  1.0000
  C   C1081     1.0  0.70920  0.68634  0.36134  1.0000
  H   H1877     1.0  0.63567  0.96945  0.46042  1.0000
  H   H1878     1.0  0.62373  0.90841  0.45246  1.0000
  S   S240      1.0  0.72833  0.97200  0.99243  1.0000
  C   C1082     1.0  0.63058  0.72728  0.31201  1.0000
  C   C1083     1.0  0.54217  0.87248  0.08199  1.0000
  H   H1879     1.0  0.57814  0.85731  0.05583  1.0000
  H   H1880     1.0  0.70924  0.68257  0.31435  1.0000
  H   H1881     1.0  0.70809  0.64842  0.38976  1.0000
  H   H1882     1.0  0.68333  0.72077  0.28588  1.0000
  H   H1883     1.0  0.67794  0.75344  0.30168  1.0000
  H   H1884     1.0  0.70603  0.76757  0.33703  1.0000
  H   H1885     1.0  0.69848  0.73995  0.36233  1.0000
  H   H1886     1.0  0.70502  0.91300  0.40427  1.0000
  H   H1887     1.0  0.62999  0.83691  0.43909  1.0000
  C   C1084     1.0  0.66581  0.93718  0.41528  1.0000
  H   H1888     1.0  0.52775  0.81192  0.38427  1.0000
  H   H1889     1.0  0.65769  0.72865  0.34742  1.0000
  H   H1890     1.0  0.66071  0.69651  0.32874  1.0000
  H   H1891     1.0  0.72198  0.69544  0.37729  1.0000
  H   H1892     1.0  0.68724  0.69257  0.36668  1.0000
  C   C1085     1.0  0.55356  0.85783  0.16469  1.0000
  C   C1086     1.0  0.52032  0.49957  0.03637  1.0000
  H   H1893     1.0  0.52816  0.75939  0.97129  1.0000
  S   S241      1.0  0.52442  0.67366  0.13483  1.0000
  H   H1894     1.0  0.70982  0.91693  0.45084  1.0000
  H   H1895     1.0  0.66908  0.48969  0.01025  1.0000
  H   H1896     1.0  0.70835  0.96488  0.43704  1.0000
  H   H1897     1.0  0.60701  0.71080  0.07630  1.0000
  C   C1087     1.0  0.72500  0.89046  0.00954  1.0000
  H   H1898     1.0  0.62841  0.74969  0.30433  1.0000
  H   H1899     1.0  0.62810  0.71448  0.29338  1.0000
  H   H1900     1.0  0.61354  0.72283  0.32835  1.0000
  N   N63       1.0  0.57440  0.74039  0.05955  1.0000
  C   C1088     1.0  0.64409  0.93958  0.02915  1.0000
  C   C1089     1.0  0.67383  0.89860  0.01046  1.0000
  H   H1901     1.0  0.51257  0.88093  0.99745  1.0000
  C   C1090     1.0  0.56821  0.76215  0.03487  1.0000
  C   C1091     1.0  0.59337  0.77687  0.01992  1.0000
  C   C1092     1.0  0.60607  0.70559  0.03043  1.0000
  H   H1902     1.0  0.63867  0.68295  0.00598  1.0000
  C   C1093     1.0  0.59363  0.77674  0.09131  1.0000
  H   H1903     1.0  0.63485  0.87115  0.39765  1.0000
  H   H1904     1.0  0.57302  0.81876  0.01484  1.0000
  S   S242      1.0  0.50010  0.75380  0.27674  1.0000
  C   C1094     1.0  0.53877  0.55789  0.39621  1.0000
  H   H1905     1.0  0.54270  0.66573  0.38777  1.0000
  H   H1906     1.0  0.61986  0.73896  0.05425  1.0000
  H   H1907     1.0  0.68870  0.93796  0.02321  1.0000
  H   H1908     1.0  0.67468  0.85529  0.97821  1.0000
  H   H1909     1.0  0.71484  0.86399  0.45744  1.0000
  H   H1910     1.0  0.55759  0.75295  0.01710  1.0000
  H   H1911     1.0  0.55280  0.77862  0.04248  1.0000
  H   H1912     1.0  0.60521  0.76245  0.00569  1.0000
  H   H1913     1.0  0.60829  0.78337  0.03545  1.0000
  H   H1914     1.0  0.66813  0.81217  0.45368  1.0000
  C   C1095     1.0  0.65286  0.77761  0.24220  1.0000
  H   H1915     1.0  0.63127  0.92159  0.10920  1.0000
  C   C1096     1.0  0.58678  0.82419  0.19363  1.0000
  H   H1916     1.0  0.61560  0.76960  0.08615  1.0000
  H   H1917     1.0  0.58745  0.79543  0.07683  1.0000
  H   H1918     1.0  0.71326  0.54658  0.19165  1.0000
  C   C1097     1.0  0.64331  0.94703  0.46328  1.0000
  C   C1098     1.0  0.55164  0.85841  0.11174  1.0000
  C   C1099     1.0  0.52943  0.58390  0.29989  1.0000
  C   C1100     1.0  0.63481  0.78390  0.46687  1.0000
  H   H1919     1.0  0.59217  0.89520  0.09555  1.0000
  H   H1920     1.0  0.72268  0.88140  0.03236  1.0000
  S   S243      1.0  0.73877  0.63022  0.21185  1.0000
  H   H1921     1.0  0.56826  0.55873  0.18658  1.0000
  H   H1922     1.0  0.57315  0.57790  0.23884  1.0000
  H   H1923     1.0  0.55043  0.60589  0.22589  1.0000
  H   H1924     1.0  0.51334  0.61107  0.40107  1.0000
  H   H1925     1.0  0.65452  0.54427  0.23064  1.0000
  C   C1101     1.0  0.73341  0.76038  0.01419  1.0000
  C   C1102     1.0  0.62127  0.49041  0.11084  1.0000
  C   C1103     1.0  0.56756  0.59125  0.21884  1.0000
  S   S244      1.0  0.49918  0.71191  0.33655  1.0000
  N   N64       1.0  0.69010  0.77432  0.16527  1.0000
  C   C1104     1.0  0.69285  0.74978  0.14660  1.0000
  S   S245      1.0  0.73591  0.85468  0.25598  1.0000
  C   C1105     1.0  0.67424  0.76537  0.19306  1.0000
  C   C1106     1.0  0.67452  0.79976  0.15069  1.0000
  C   C1107     1.0  0.67618  0.80354  0.11682  1.0000
  C   C1108     1.0  0.66482  0.73707  0.14040  1.0000
  C   C1109     1.0  0.67247  0.78666  0.21691  1.0000
  H   H1926     1.0  0.69338  0.78825  0.22606  1.0000
  H   H1927     1.0  0.69764  0.64476  0.35326  1.0000
  C   C1110     1.0  0.66504  0.83284  0.10591  1.0000
  C   C1111     1.0  0.66755  0.71976  0.11383  1.0000
  H   H1928     1.0  0.65301  0.91902  0.41372  1.0000
  H   H1929     1.0  0.70676  0.73268  0.15707  1.0000
  H   H1930     1.0  0.70384  0.75520  0.12552  1.0000
  C   C1112     1.0  0.63898  0.60344  0.46301  1.0000
  C   C1113     1.0  0.50064  0.70981  0.05882  1.0000
  H   H1931     1.0  0.68384  0.74522  0.20295  1.0000
  H   H1932     1.0  0.65227  0.76108  0.18853  1.0000
  H   H1933     1.0  0.65171  0.79984  0.15656  1.0000
  H   H1934     1.0  0.68139  0.81917  0.15929  1.0000
  H   H1935     1.0  0.66327  0.78843  0.10730  1.0000
  H   H1936     1.0  0.69763  0.80019  0.10759  1.0000
  H   H1937     1.0  0.65820  0.72329  0.15948  1.0000
  H   H1938     1.0  0.64771  0.75339  0.13680  1.0000
  H   H1939     1.0  0.66476  0.80773  0.20802  1.0000
  C   C1114     1.0  0.55958  0.68490  0.46527  1.0000
  C   C1115     1.0  0.72995  0.73698  0.03369  1.0000
  C   C1116     1.0  0.73432  0.52866  0.34056  1.0000
  H   H1940     1.0  0.67702  0.49990  0.10318  1.0000
  Fe  Fe122     1.0  0.74201  0.90090  0.24828  1.0000
  C   C1117     1.0  0.58333  0.80288  0.00114  1.0000
  H   H1941     1.0  0.64351  0.83752  0.11479  1.0000
  H   H1942     1.0  0.67899  0.84873  0.11245  1.0000
  H   H1943     1.0  0.66441  0.83425  0.08179  1.0000
  H   H1944     1.0  0.68467  0.70313  0.11658  1.0000
  H   H1945     1.0  0.64770  0.70966  0.11116  1.0000
  H   H1946     1.0  0.67217  0.73321  0.09380  1.0000
  C   C1118     1.0  0.61061  0.92427  0.12080  1.0000
  H   H1947     1.0  0.53976  0.83917  0.11570  1.0000
  H   H1948     1.0  0.73436  0.64679  0.36078  1.0000
  H   H1949     1.0  0.60478  0.54739  0.21500  1.0000
  H   H1950     1.0  0.63085  0.77861  0.23516  1.0000
  H   H1951     1.0  0.55124  0.82574  0.33585  1.0000
  H   H1952     1.0  0.54002  0.57111  0.28316  1.0000
  H   H1953     1.0  0.55194  0.76339  0.09294  1.0000
  C   C1119     1.0  0.72852  0.75956  0.98431  1.0000
  H   H1954     1.0  0.52341  0.60495  0.28951  1.0000
  C   C1120     1.0  0.63693  0.69711  0.02402  1.0000
  H   H1955     1.0  0.56886  0.62913  0.17304  1.0000
  C   C1121     1.0  0.51750  0.69549  0.21753  1.0000
  H   H1956     1.0  0.72884  0.74371  0.40247  1.0000
  C   C1122     1.0  0.67891  0.81171  0.01390  1.0000
  H   H1957     1.0  0.54000  0.54135  0.23012  1.0000
  S   S246      1.0  0.68778  0.59639  0.15822  1.0000
  H   H1958     1.0  0.59895  0.94297  0.11051  1.0000
  Fe  Fe123     1.0  0.69832  0.62898  0.18927  1.0000
  C   C1123     1.0  0.59432  0.89818  0.11896  1.0000
  H   H1959     1.0  0.52085  0.74237  0.41548  1.0000
  S   S247      1.0  0.60392  0.57526  0.06210  1.0000
  S   S248      1.0  0.69359  0.67564  0.17899  1.0000
  H   H1960     1.0  0.64461  0.92997  0.05181  1.0000
  H   H1961     1.0  0.58802  0.59866  0.16225  1.0000
  C   C1124     1.0  0.58687  0.78940  0.44874  1.0000
  C   C1125     1.0  0.56171  0.57896  0.38895  1.0000
  H   H1962     1.0  0.59065  0.61208  0.35031  1.0000
  H   H1963     1.0  0.59933  0.76846  0.13785  1.0000
  H   H1964     1.0  0.60144  0.81218  0.98926  1.0000
  C   C1126     1.0  0.57316  0.75358  0.08830  1.0000
  C   C1127     1.0  0.55251  0.49573  0.03036  1.0000
  H   H1965     1.0  0.64766  0.79503  0.40757  1.0000
  C   C1128     1.0  0.52430  0.65288  0.38842  1.0000
  H   H1966     1.0  0.54305  0.58711  0.18011  1.0000
  H   H1967     1.0  0.53017  0.62521  0.33696  1.0000
  H   H1968     1.0  0.57816  0.80514  0.18634  1.0000
  C   C1129     1.0  0.64848  0.50413  0.04974  1.0000
  H   H1969     1.0  0.67454  0.88983  0.03342  1.0000
  H   H1970     1.0  0.68512  0.80076  0.99411  1.0000
  H   H1971     1.0  0.51465  0.65551  0.36686  1.0000
  H   H1972     1.0  0.70709  0.69367  0.98517  1.0000
  C   C1130     1.0  0.67070  0.93074  0.01198  1.0000
  H   H1973     1.0  0.71730  0.69462  0.03755  1.0000
  H   H1974     1.0  0.64654  0.68581  0.04350  1.0000
  H   H1975     1.0  0.51452  0.57052  0.22351  1.0000
  C   C1131     1.0  0.53067  0.55646  0.21319  1.0000
  H   H1976     1.0  0.57381  0.85050  0.10927  1.0000
  H   H1977     1.0  0.57491  0.83020  0.21357  1.0000
  H   H1978     1.0  0.71237  0.56802  0.22213  1.0000
  H   H1979     1.0  0.71805  0.53055  0.22805  1.0000
  H   H1980     1.0  0.52843  0.55278  0.37630  1.0000
  H   H1981     1.0  0.65265  0.52420  0.00595  1.0000
  S   S249      1.0  0.72809  0.49658  0.00679  1.0000
  C   C1132     1.0  0.58450  0.84771  0.16952  1.0000
  H   H1982     1.0  0.55649  0.70270  0.07871  1.0000
  H   H1983     1.0  0.54089  0.83908  0.16554  1.0000
  C   C1133     1.0  0.69670  0.83669  0.01621  1.0000
  H   H1984     1.0  0.65636  0.81870  0.01280  1.0000
  H   H1985     1.0  0.63496  0.69549  0.43244  1.0000
  H   H1986     1.0  0.59520  0.68605  0.03585  1.0000
  S   S250      1.0  0.50440  0.80801  0.01479  1.0000
  H   H1987     1.0  0.56834  0.59558  0.31537  1.0000
  H   H1988     1.0  0.51186  0.51172  0.01671  1.0000
  C   C1134     1.0  0.59290  0.78609  0.12220  1.0000
  H   H1989     1.0  0.51854  0.71481  0.22793  1.0000
  H   H1990     1.0  0.51116  0.89948  0.11890  1.0000
  H   H1991     1.0  0.73139  0.77920  0.38663  1.0000
  H   H1992     1.0  0.50951  0.79727  0.07651  1.0000
  H   H1993     1.0  0.72888  0.56507  0.27393  1.0000
  C   C1135     1.0  0.54921  0.58614  0.32484  1.0000
  C   C1136     1.0  0.73357  0.73382  0.29616  1.0000
  H   H1994     1.0  0.50267  0.69123  0.07453  1.0000
  H   H1995     1.0  0.64330  0.51933  0.13541  1.0000
  H   H1996     1.0  0.55643  0.53886  0.01308  1.0000
  C   C1137     1.0  0.71264  0.65463  0.36650  1.0000
  H   H1997     1.0  0.61042  0.73734  0.45013  1.0000
  H   H1998     1.0  0.66686  0.69852  0.41153  1.0000
  C   C1138     1.0  0.63142  0.50756  0.43457  1.0000
  C   C1139     1.0  0.56511  0.90137  0.13475  1.0000
  H   H1999     1.0  0.67265  0.90690  0.36511  1.0000
  H   H2000     1.0  0.59628  0.86524  0.17616  1.0000
  H   H2001     1.0  0.72785  0.76443  0.18944  1.0000
  N   N65       1.0  0.69889  0.88738  0.99298  1.0000
  H   H2002     1.0  0.66809  0.51231  0.05675  1.0000
  H   H2003     1.0  0.57155  0.79451  0.12849  1.0000
  H   H2004     1.0  0.65398  0.89158  0.00244  1.0000
  H   H2005     1.0  0.55512  0.56465  0.33387  1.0000
  C   C1140     1.0  0.66617  0.78991  0.46098  1.0000
  H   H2006     1.0  0.57353  0.78814  0.42972  1.0000
  Fe  Fe124     1.0  0.73327  0.67786  0.20409  1.0000
  H   H2007     1.0  0.51902  0.87251  0.08073  1.0000
  C   C1141     1.0  0.51686  0.88630  0.13893  1.0000
  H   H2008     1.0  0.57693  0.73709  0.10617  1.0000
  H   H2009     1.0  0.60743  0.88025  0.12832  1.0000
  H   H2010     1.0  0.66937  0.88377  0.44219  1.0000
  H   H2011     1.0  0.58556  0.53766  0.11045  1.0000
  H   H2012     1.0  0.73473  0.77954  0.29772  1.0000
  S   S251      1.0  0.73799  0.66605  0.12539  1.0000
  H   H2013     1.0  0.65329  0.95539  0.40493  1.0000
  H   H2014     1.0  0.60444  0.74998  0.41365  1.0000
  C   C1142     1.0  0.60259  0.72461  0.05623  1.0000
  C   C1143     1.0  0.68452  0.92603  0.36485  1.0000
  H   H2015     1.0  0.62525  0.93339  0.01845  1.0000
  H   H2016     1.0  0.71760  0.80069  0.18568  1.0000
  H   H2017     1.0  0.61317  0.79587  0.39543  1.0000
  C   C1144     1.0  0.50279  0.66446  0.41040  1.0000
  C   C1145     1.0  0.72062  0.71282  0.02286  1.0000
  C   C1146     1.0  0.65047  0.50300  0.01663  1.0000
  H   H2018     1.0  0.73675  0.62261  0.99906  1.0000
  H   H2019     1.0  0.59701  0.71605  0.01042  1.0000
  H   H2020     1.0  0.51739  0.73596  0.08866  1.0000
  H   H2021     1.0  0.52498  0.85973  0.24663  1.0000
  H   H2022     1.0  0.50699  0.89088  0.18561  1.0000
  H   H2023     1.0  0.56835  0.90842  0.15681  1.0000
  H   H2024     1.0  0.63375  0.70852  0.39462  1.0000
  H   H2025     1.0  0.54795  0.89448  0.07882  1.0000
  C   C1147     1.0  0.64766  0.73820  0.42374  1.0000
  H   H2026     1.0  0.72817  0.91289  0.01149  1.0000
  H   H2027     1.0  0.50761  0.90121  0.27470  1.0000
  H   H2028     1.0  0.71878  0.82874  0.01936  1.0000
  C   C1148     1.0  0.69202  0.62739  0.45549  1.0000
  H   H2029     1.0  0.59946  0.83913  0.41753  1.0000
  H   H2030     1.0  0.49425  0.90211  0.32358  1.0000
  H   H2031     1.0  0.67654  0.77770  0.44383  1.0000
  H   H2032     1.0  0.56060  0.53452  0.43185  1.0000
  C   C1149     1.0  0.68448  0.60761  0.43684  1.0000
  H   H2033     1.0  0.51379  0.95834  0.99581  1.0000
  C   C1150     1.0  0.73143  0.76404  0.28172  1.0000
  H   H2034     1.0  0.73273  0.71939  0.27853  1.0000
  S   S252      1.0  0.72478  0.64351  0.45224  1.0000
  C   C1151     1.0  0.61810  0.93078  0.45483  1.0000
  H   H2035     1.0  0.51587  0.85872  0.30421  1.0000
  C   C1152     1.0  0.54121  0.61995  0.97043  1.0000
  C   C1153     1.0  0.63239  0.49166  0.40703  1.0000
  C   C1154     1.0  0.50329  0.91578  0.36474  1.0000
  H   H2036     1.0  0.74128  0.69038  0.32818  1.0000
  C   C1155     1.0  0.65814  0.59577  0.44059  1.0000
  H   H2037     1.0  0.64216  0.75152  0.97194  1.0000
  H   H2038     1.0  0.49221  0.89818  0.37576  1.0000
  H   H2039     1.0  0.74052  0.51715  0.29635  1.0000
  S   S253      1.0  0.71445  0.48871  0.43879  1.0000
  H   H2040     1.0  0.50429  0.70320  0.03635  1.0000
  H   H2041     1.0  0.74023  0.77923  0.02211  1.0000
  H   H2042     1.0  0.49299  0.96016  0.35414  1.0000
  C   C1156     1.0  0.68678  0.96838  0.44652  1.0000
  H   H2043     1.0  0.57032  0.75043  0.46772  1.0000
  H   H2044     1.0  0.55698  0.48709  0.00890  1.0000
  H   H2045     1.0  0.49704  0.68675  0.40393  1.0000
  C   C1157     1.0  0.50518  0.90305  0.99987  1.0000
  H   H2046     1.0  0.70551  0.94989  0.39367  1.0000
  C   C1158     1.0  0.52143  0.72000  0.45793  1.0000
  H   H2047     1.0  0.71095  0.84937  0.97233  1.0000
  H   H2048     1.0  0.67189  0.94410  0.35461  1.0000
  H   H2049     1.0  0.51375  0.90980  0.02009  1.0000
  C   C1159     1.0  0.74120  0.75758  0.38729  1.0000
  H   H2050     1.0  0.55120  0.97550  0.96920  1.0000
  C   C1160     1.0  0.49443  0.81479  0.07271  1.0000
  H   H2051     1.0  0.53815  0.91923  0.97259  1.0000
  H   H2052     1.0  0.73312  0.77730  0.96976  1.0000
  H   H2053     1.0  0.65368  0.48163  0.40329  1.0000
  S   S254      1.0  0.60648  0.58702  0.46772  1.0000
  H   H2054     1.0  0.49259  0.48339  0.08714  1.0000
  H   H2055     1.0  0.56314  0.48131  0.04688  1.0000
  H   H2056     1.0  0.74177  0.88574  0.16515  1.0000
  H   H2057     1.0  0.58265  0.48390  0.46772  1.0000
  Fe  Fe125     1.0  0.53572  0.70371  0.67805  1.0000
  H   H2058     1.0  0.59754  0.66217  0.86066  1.0000
  S   S255      1.0  0.58362  0.69689  0.66965  1.0000
  H   H2059     1.0  0.69574  0.54517  0.52418  1.0000
  S   S256      1.0  0.52186  0.74889  0.68210  1.0000
  S   S257      1.0  0.54670  0.56555  0.52820  1.0000
  C   C1161     1.0  0.58888  0.70399  0.90045  1.0000
  Fe  Fe126     1.0  0.71693  0.58316  0.70649  1.0000
  S   S258      1.0  0.72804  0.53682  0.71334  1.0000
  S   S259      1.0  0.66994  0.59503  0.71176  1.0000
  S   S260      1.0  0.71896  0.78843  0.67468  1.0000
  H   H2060     1.0  0.64696  0.68540  0.51418  1.0000
  H   H2061     1.0  0.62059  0.70626  0.86461  1.0000
  H   H2062     1.0  0.67360  0.79598  0.50649  1.0000
  H   H2063     1.0  0.69910  0.93942  0.81878  1.0000
  Fe  Fe127     1.0  0.50422  0.85477  0.47403  1.0000
  S   S261      1.0  0.50867  0.68887  0.71637  1.0000
  H   H2064     1.0  0.62583  0.80101  0.48012  1.0000
  S   S262      1.0  0.51436  0.88803  0.89142  1.0000
  S   S263      1.0  0.51060  0.81541  0.92981  1.0000
  C   C1162     1.0  0.70458  0.49588  0.79538  1.0000
  H   H2065     1.0  0.63968  0.78905  0.96512  1.0000
  C   C1163     1.0  0.66731  0.58582  0.85858  1.0000
  Fe  Fe128     1.0  0.54556  0.59536  0.56398  1.0000
  H   H2066     1.0  0.66697  0.89613  0.58809  1.0000
  Fe  Fe129     1.0  0.57079  0.59739  0.50062  1.0000
  C   C1164     1.0  0.72732  0.65243  0.59535  1.0000
  S   S264      1.0  0.57300  0.62509  0.53749  1.0000
  H   H2067     1.0  0.49786  0.91718  0.56285  1.0000
  S   S265      1.0  0.70997  0.73477  0.93598  1.0000
  Fe  Fe130     1.0  0.57698  0.67479  0.80416  1.0000
  S   S266      1.0  0.58857  0.62887  0.80981  1.0000
  S   S267      1.0  0.61053  0.70789  0.80386  1.0000
  Fe  Fe131     1.0  0.55512  0.62287  0.77795  1.0000
  S   S268      1.0  0.55984  0.58840  0.74617  1.0000
  Fe  Fe132     1.0  0.55392  0.62847  0.84388  1.0000
  S   S269      1.0  0.56254  0.60474  0.88698  1.0000
  S   S270      1.0  0.54538  0.66871  0.76970  1.0000
  S   S271      1.0  0.54269  0.67438  0.83941  1.0000
  Fe  Fe133     1.0  0.68010  0.83489  0.57949  1.0000
  S   S272      1.0  0.68593  0.79152  0.60031  1.0000
  S   S273      1.0  0.63409  0.85074  0.57748  1.0000
  S   S274      1.0  0.71048  0.85208  0.60907  1.0000
  Fe  Fe134     1.0  0.66807  0.82965  0.90560  1.0000
  S   S275      1.0  0.63391  0.84605  0.93610  1.0000
  S   S276      1.0  0.66744  0.79234  0.87934  1.0000
  C   C1165     1.0  0.71938  0.78500  0.73413  1.0000
  C   C1166     1.0  0.71234  0.79338  0.76218  1.0000
  H   H2068     1.0  0.69699  0.92277  0.71939  1.0000
  H   H2069     1.0  0.72088  0.78139  0.78068  1.0000
  Fe  Fe135     1.0  0.69861  0.81497  0.84910  1.0000
  H   H2070     1.0  0.67831  0.52574  0.67144  1.0000
  C   C1167     1.0  0.54649  0.61967  0.91768  1.0000
  C   C1168     1.0  0.52593  0.64170  0.91479  1.0000
  C   C1169     1.0  0.51292  0.65269  0.93967  1.0000
  H   H2071     1.0  0.71506  0.74263  0.63439  1.0000
  H   H2072     1.0  0.64638  0.94266  0.48710  1.0000
  C   C1170     1.0  0.55417  0.60896  0.94558  1.0000
  H   H2073     1.0  0.51964  0.64996  0.89342  1.0000
  H   H2074     1.0  0.68242  0.93130  0.53241  1.0000
  C   C1171     1.0  0.55071  0.57996  0.64772  1.0000
  C   C1172     1.0  0.56177  0.55817  0.66652  1.0000
  C   C1173     1.0  0.56418  0.56147  0.69627  1.0000
  C   C1174     1.0  0.55515  0.58657  0.70819  1.0000
  C   C1175     1.0  0.54207  0.60796  0.68998  1.0000
  C   C1176     1.0  0.53948  0.60445  0.65986  1.0000
  H   H2075     1.0  0.56860  0.53851  0.65797  1.0000
  H   H2076     1.0  0.57332  0.54442  0.71015  1.0000
  H   H2077     1.0  0.53393  0.62709  0.69901  1.0000
  H   H2078     1.0  0.54617  0.74947  0.86556  1.0000
  C   C1177     1.0  0.69805  0.86701  0.47439  1.0000
  N   N66       1.0  0.64366  0.52342  0.62197  1.0000
  H   H2079     1.0  0.58948  0.77293  0.82136  1.0000
  C   C1178     1.0  0.62165  0.53117  0.79862  1.0000
  C   C1179     1.0  0.57359  0.85746  0.50148  1.0000
  C   C1180     1.0  0.56353  0.85318  0.53022  1.0000
  C   C1181     1.0  0.58236  0.85043  0.55328  1.0000
  C   C1182     1.0  0.61146  0.85093  0.54780  1.0000
  C   C1183     1.0  0.62157  0.85405  0.51900  1.0000
  C   C1184     1.0  0.60268  0.85795  0.49607  1.0000
  H   H2080     1.0  0.54120  0.85284  0.53480  1.0000
  H   H2081     1.0  0.57429  0.84815  0.57551  1.0000
  H   H2082     1.0  0.62532  0.86411  0.66543  1.0000
  C   C1185     1.0  0.59472  0.53001  0.78221  1.0000
  C   C1186     1.0  0.54839  0.87871  0.90320  1.0000
  C   C1187     1.0  0.55209  0.87002  0.93247  1.0000
  C   C1188     1.0  0.57867  0.86105  0.94225  1.0000
  C   C1189     1.0  0.60156  0.85929  0.92261  1.0000
  C   C1190     1.0  0.59811  0.86805  0.89322  1.0000
  C   C1191     1.0  0.57150  0.87826  0.88360  1.0000
  H   H2083     1.0  0.53432  0.86970  0.94758  1.0000
  C   C1192     1.0  0.56829  0.77231  0.83187  1.0000
  H   H2084     1.0  0.61582  0.86678  0.87799  1.0000
  C   C1193     1.0  0.70295  0.73009  0.81561  1.0000
  C   C1194     1.0  0.68095  0.75062  0.81219  1.0000
  C   C1195     1.0  0.65311  0.74338  0.80899  1.0000
  C   C1196     1.0  0.64619  0.71535  0.81004  1.0000
  C   C1197     1.0  0.66773  0.69462  0.81559  1.0000
  C   C1198     1.0  0.69584  0.70191  0.81807  1.0000
  H   H2085     1.0  0.68512  0.77226  0.81270  1.0000
  H   H2086     1.0  0.63681  0.75983  0.80591  1.0000
  H   H2087     1.0  0.66272  0.67301  0.81769  1.0000
  H   H2088     1.0  0.71221  0.68561  0.82180  1.0000
  H   H2089     1.0  0.59871  0.53346  0.75838  1.0000
  S   S277      1.0  0.70270  0.81051  0.93228  1.0000
  H   H2090     1.0  0.64343  0.55849  0.76696  1.0000
  H   H2091     1.0  0.67521  0.51831  0.48548  1.0000
  C   C1199     1.0  0.67583  0.55814  0.52149  1.0000
  C   C1200     1.0  0.57326  0.77165  0.47430  1.0000
  S   S278      1.0  0.55271  0.57452  0.60969  1.0000
  H   H2092     1.0  0.65195  0.52447  0.53937  1.0000
  H   H2093     1.0  0.70742  0.87285  0.49462  1.0000
  H   H2094     1.0  0.69270  0.92301  0.48394  1.0000
  H   H2095     1.0  0.70027  0.88711  0.68281  1.0000
  H   H2096     1.0  0.55513  0.96322  0.90422  1.0000
  H   H2097     1.0  0.66635  0.91271  0.85229  1.0000
  H   H2098     1.0  0.62429  0.58130  0.59969  1.0000
  H   H2099     1.0  0.66675  0.60129  0.90174  1.0000
  H   H2100     1.0  0.59977  0.48742  0.62865  1.0000
  Fe  Fe136     1.0  0.70490  0.77459  0.90517  1.0000
  C   C1201     1.0  0.71886  0.89092  0.69515  1.0000
  C   C1202     1.0  0.63623  0.55868  0.79021  1.0000
  Fe  Fe137     1.0  0.51212  0.66444  0.80579  1.0000
  C   C1203     1.0  0.60736  0.66854  0.68216  1.0000
  C   C1204     1.0  0.59952  0.64752  0.70287  1.0000
  C   C1205     1.0  0.61900  0.62542  0.71172  1.0000
  C   C1206     1.0  0.64665  0.62400  0.70025  1.0000
  C   C1207     1.0  0.65463  0.64509  0.67970  1.0000
  C   C1208     1.0  0.63511  0.66714  0.67071  1.0000
  H   H2101     1.0  0.57843  0.64823  0.71217  1.0000
  H   H2102     1.0  0.61254  0.60926  0.72763  1.0000
  H   H2103     1.0  0.67564  0.64400  0.67044  1.0000
  H   H2104     1.0  0.64132  0.68300  0.65446  1.0000
  S   S279      1.0  0.69815  0.85275  0.87610  1.0000
  S   S280      1.0  0.52185  0.61807  0.81311  1.0000
  S   S281      1.0  0.68700  0.82994  0.80150  1.0000
  C   C1209     1.0  0.70989  0.80092  0.70930  1.0000
  Fe  Fe138     1.0  0.53209  0.64417  0.52053  1.0000
  H   H2105     1.0  0.64229  0.62189  0.62109  1.0000
  H   H2106     1.0  0.66824  0.60608  0.59704  1.0000
  C   C1210     1.0  0.69540  0.81764  0.76620  1.0000
  H   H2107     1.0  0.63339  0.89557  0.62147  1.0000
  H   H2108     1.0  0.60946  0.64913  0.89614  1.0000
  H   H2109     1.0  0.69081  0.62914  0.75339  1.0000
  H   H2110     1.0  0.58584  0.50934  0.78694  1.0000
  C   C1211     1.0  0.49672  0.73749  0.80675  1.0000
  C   C1212     1.0  0.70154  0.90309  0.96352  1.0000
  H   H2111     1.0  0.67395  0.60637  0.84919  1.0000
  C   C1213     1.0  0.67571  0.90341  0.94402  1.0000
  H   H2112     1.0  0.65848  0.76777  0.93986  1.0000
  C   C1214     1.0  0.73632  0.65534  0.62694  1.0000
  N   N67       1.0  0.66103  0.94700  0.61849  1.0000
  H   H2113     1.0  0.67366  0.89515  0.53489  1.0000
  H   H2114     1.0  0.72143  0.64348  0.64138  1.0000
  C   C1215     1.0  0.69079  0.49350  0.62627  1.0000
  H   H2115     1.0  0.63520  0.49649  0.66075  1.0000
  C   C1216     1.0  0.60473  0.50966  0.49602  1.0000
  H   H2116     1.0  0.67883  0.52583  0.77009  1.0000
  H   H2117     1.0  0.64386  0.85455  0.51463  1.0000
  H   H2118     1.0  0.58709  0.95480  0.48038  1.0000
  C   C1217     1.0  0.66035  0.61542  0.78717  1.0000
  S   S282      1.0  0.52198  0.68976  0.51077  1.0000
  H   H2119     1.0  0.61465  0.72209  0.94343  1.0000
  H   H2120     1.0  0.62210  0.67979  0.48677  1.0000
  H   H2121     1.0  0.55183  0.50204  0.52349  1.0000
  H   H2122     1.0  0.67960  0.95796  0.57594  1.0000
  H   H2123     1.0  0.71935  0.89382  0.95044  1.0000
  H   H2124     1.0  0.64343  0.92128  0.56849  1.0000
  H   H2125     1.0  0.51480  0.53398  0.82204  1.0000
  H   H2126     1.0  0.60362  0.94796  0.91558  1.0000
  H   H2127     1.0  0.71688  0.48829  0.77632  1.0000
  S   S283      1.0  0.55083  0.86358  0.47173  1.0000
  H   H2128     1.0  0.57294  0.73071  0.96834  1.0000
  H   H2129     1.0  0.72227  0.66072  0.93751  1.0000
  H   H2130     1.0  0.70482  0.65921  0.59308  1.0000
  N   N68       1.0  0.73689  0.68475  0.63597  1.0000
  C   C1218     1.0  0.65139  0.53942  0.51996  1.0000
  N   N69       1.0  0.51076  0.97260  0.95022  1.0000
  H   H2131     1.0  0.61610  0.52906  0.82221  1.0000
  H   H2132     1.0  0.71087  0.72655  0.67065  1.0000
  H   H2133     1.0  0.62600  0.57604  0.63845  1.0000
  H   H2134     1.0  0.67378  0.94798  0.93093  1.0000
  H   H2135     1.0  0.51065  0.73357  0.95335  1.0000
  H   H2136     1.0  0.58633  0.96895  0.57579  1.0000
  H   H2137     1.0  0.49738  0.55055  0.74549  1.0000
  H   H2138     1.0  0.62930  0.58898  0.83452  1.0000
  C   C1219     1.0  0.61690  0.52472  0.60528  1.0000
  C   C1220     1.0  0.67669  0.58696  0.79416  1.0000
  C   C1221     1.0  0.63991  0.76895  0.95483  1.0000
  C   C1222     1.0  0.65295  0.52445  0.49122  1.0000
  C   C1223     1.0  0.63097  0.95659  0.61248  1.0000
  Fe  Fe139     1.0  0.50718  0.58936  0.51277  1.0000
  H   H2139     1.0  0.70725  0.92481  0.96581  1.0000
  H   H2140     1.0  0.62091  0.53154  0.58194  1.0000
  H   H2141     1.0  0.63786  0.55535  0.85056  1.0000
  H   H2142     1.0  0.66812  0.88511  0.82778  1.0000
  H   H2143     1.0  0.71676  0.68258  0.90454  1.0000
  H   H2144     1.0  0.55645  0.93556  0.93217  1.0000
  H   H2145     1.0  0.70373  0.96511  0.49079  1.0000
  C   C1224     1.0  0.67487  0.97114  0.63005  1.0000
  H   H2146     1.0  0.61067  0.75166  0.86903  1.0000
  H   H2147     1.0  0.63433  0.65559  0.86628  1.0000
  H   H2148     1.0  0.70490  0.78943  0.48440  1.0000
  C   C1225     1.0  0.52029  0.64159  0.96755  1.0000
  H   H2149     1.0  0.55709  0.76427  0.92467  1.0000
  H   H2150     1.0  0.70365  0.51191  0.62325  1.0000
  C   C1226     1.0  0.49375  0.73540  0.83730  1.0000
  H   H2151     1.0  0.60073  0.92238  0.49883  1.0000
  H   H2152     1.0  0.66609  0.50196  0.58779  1.0000
  H   H2153     1.0  0.64830  0.57002  0.89979  1.0000
  C   C1227     1.0  0.68290  0.78376  0.48860  1.0000
  C   C1228     1.0  0.59410  0.93267  0.47755  1.0000
  C   C1229     1.0  0.63773  0.90277  0.64300  1.0000
  H   H2154     1.0  0.50101  0.58488  0.75603  1.0000
  H   H2155     1.0  0.58127  0.85465  0.96500  1.0000
  S   S284      1.0  0.72451  0.74523  0.54535  1.0000
  C   C1230     1.0  0.73126  0.62206  0.58750  1.0000
  H   H2156     1.0  0.60171  0.54088  0.61365  1.0000
  H   H2157     1.0  0.69582  0.88805  0.73535  1.0000
  H   H2158     1.0  0.51070  0.94305  0.91683  1.0000
  H   H2159     1.0  0.55552  0.70362  0.95269  1.0000
  C   C1231     1.0  0.52818  0.73681  0.96766  1.0000
  C   C1232     1.0  0.70345  0.72701  0.64811  1.0000
  H   H2160     1.0  0.54254  0.73550  0.91039  1.0000
  H   H2161     1.0  0.71854  0.49460  0.81422  1.0000
  C   C1233     1.0  0.73121  0.66634  0.91542  1.0000
  H   H2162     1.0  0.57039  0.66867  0.47891  1.0000
  H   H2163     1.0  0.66669  0.65622  0.76578  1.0000
  H   H2164     1.0  0.60134  0.51592  0.51872  1.0000
  C   C1234     1.0  0.59124  0.96161  0.93038  1.0000
  N   N70       1.0  0.61285  0.77366  0.71955  1.0000
  C   C1235     1.0  0.58202  0.76896  0.72217  1.0000
  C   C1236     1.0  0.62133  0.78132  0.68817  1.0000
  C   C1237     1.0  0.62815  0.74601  0.72840  1.0000
  C   C1238     1.0  0.62139  0.79512  0.73925  1.0000
  C   C1239     1.0  0.60398  0.82347  0.73839  1.0000
  C   C1240     1.0  0.57027  0.76192  0.75354  1.0000
  C   C1241     1.0  0.66053  0.74617  0.72862  1.0000
  C   C1242     1.0  0.60077  0.80110  0.66989  1.0000
  C   C1243     1.0  0.61359  0.80886  0.63974  1.0000
  C   C1244     1.0  0.60690  0.83805  0.76641  1.0000
  C   C1245     1.0  0.55988  0.73266  0.75711  1.0000
  C   C1246     1.0  0.67393  0.71659  0.73317  1.0000
  H   H2165     1.0  0.57727  0.75228  0.70782  1.0000
  H   H2166     1.0  0.56892  0.78729  0.71345  1.0000
  H   H2167     1.0  0.64205  0.79073  0.68685  1.0000
  H   H2168     1.0  0.62399  0.76214  0.67597  1.0000
  H   H2169     1.0  0.62239  0.72955  0.71423  1.0000
  H   H2170     1.0  0.62161  0.73833  0.75072  1.0000
  H   H2171     1.0  0.62215  0.78620  0.76219  1.0000
  H   H2172     1.0  0.64339  0.80010  0.73418  1.0000
  H   H2173     1.0  0.58133  0.82144  0.73604  1.0000
  H   H2174     1.0  0.61177  0.83737  0.71995  1.0000
  H   H2175     1.0  0.58556  0.76345  0.77057  1.0000
  H   H2176     1.0  0.55254  0.77708  0.75851  1.0000
  H   H2177     1.0  0.66686  0.75806  0.74678  1.0000
  H   H2178     1.0  0.66939  0.75581  0.70809  1.0000
  H   H2179     1.0  0.58133  0.79053  0.66635  1.0000
  H   H2180     1.0  0.59500  0.82055  0.68062  1.0000
  H   H2181     1.0  0.59869  0.82338  0.62722  1.0000
  H   H2182     1.0  0.63343  0.81929  0.64146  1.0000
  H   H2183     1.0  0.61794  0.78992  0.62750  1.0000
  H   H2184     1.0  0.59596  0.85915  0.76448  1.0000
  H   H2185     1.0  0.59730  0.82583  0.78520  1.0000
  H   H2186     1.0  0.62924  0.84026  0.77086  1.0000
  H   H2187     1.0  0.55250  0.72816  0.77998  1.0000
  H   H2188     1.0  0.54229  0.73080  0.74260  1.0000
  H   H2189     1.0  0.57697  0.71702  0.75167  1.0000
  H   H2190     1.0  0.69693  0.71759  0.73444  1.0000
  H   H2191     1.0  0.66593  0.70625  0.75380  1.0000
  H   H2192     1.0  0.66920  0.70395  0.71499  1.0000
  N   N71       1.0  0.58714  0.70997  0.56729  1.0000
  C   C1247     1.0  0.56571  0.73343  0.55877  1.0000
  C   C1248     1.0  0.59467  0.69509  0.54015  1.0000
  C   C1249     1.0  0.57324  0.68996  0.58908  1.0000
  C   C1250     1.0  0.61184  0.72208  0.58027  1.0000
  C   C1251     1.0  0.64017  0.70400  0.58074  1.0000
  C   C1252     1.0  0.55285  0.75068  0.58374  1.0000
  C   C1253     1.0  0.59209  0.66477  0.60154  1.0000
  C   C1254     1.0  0.60868  0.71276  0.51495  1.0000
  S   S285      1.0  0.71276  0.82713  0.54431  1.0000
  C   C1255     1.0  0.66418  0.71897  0.56507  1.0000
  C   C1256     1.0  0.53724  0.77759  0.57162  1.0000
  C   C1257     1.0  0.57477  0.64421  0.61966  1.0000
  H   H2193     1.0  0.54777  0.72521  0.54800  1.0000
  H   H2194     1.0  0.57495  0.74849  0.54225  1.0000
  H   H2195     1.0  0.60755  0.67553  0.54448  1.0000
  H   H2196     1.0  0.57553  0.68729  0.53146  1.0000
  H   H2197     1.0  0.55456  0.68192  0.57939  1.0000
  H   H2198     1.0  0.56509  0.70079  0.60842  1.0000
  H   H2199     1.0  0.61552  0.74315  0.56959  1.0000
  H   H2200     1.0  0.60661  0.72647  0.60333  1.0000
  H   H2201     1.0  0.63952  0.68340  0.57195  1.0000
  H   H2202     1.0  0.64617  0.69928  0.60372  1.0000
  H   H2203     1.0  0.53743  0.73844  0.59700  1.0000
  H   H2204     1.0  0.56904  0.75662  0.59830  1.0000
  H   H2205     1.0  0.60769  0.67196  0.61595  1.0000
  H   H2206     1.0  0.60323  0.65280  0.58466  1.0000
  H   H2207     1.0  0.59240  0.72001  0.49927  1.0000
  H   H2208     1.0  0.61763  0.73154  0.52226  1.0000
  C   C1258     1.0  0.67892  0.53864  0.81543  1.0000
  H   H2209     1.0  0.54723  0.51850  0.48710  1.0000
  H   H2210     1.0  0.69538  0.59041  0.80681  1.0000
  H   H2211     1.0  0.66818  0.73811  0.57587  1.0000
  H   H2212     1.0  0.68347  0.70486  0.56547  1.0000
  H   H2213     1.0  0.65984  0.72496  0.54198  1.0000
  H   H2214     1.0  0.52118  0.77292  0.55617  1.0000
  H   H2215     1.0  0.52644  0.78844  0.58973  1.0000
  H   H2216     1.0  0.55208  0.79187  0.56021  1.0000
  H   H2217     1.0  0.56290  0.65473  0.63731  1.0000
  H   H2218     1.0  0.55980  0.63520  0.60569  1.0000
  H   H2219     1.0  0.58870  0.62705  0.62972  1.0000
  C   C1259     1.0  0.64389  0.87688  0.66354  1.0000
  H   H2220     1.0  0.53824  0.48297  0.49553  1.0000
  H   H2221     1.0  0.61052  0.86201  0.47409  1.0000
  H   H2222     1.0  0.71980  0.95798  0.62379  1.0000
  C   C1260     1.0  0.69240  0.82495  0.71296  1.0000
  C   C1261     1.0  0.65588  0.53163  0.67550  1.0000
  H   H2223     1.0  0.65554  0.90499  0.95643  1.0000
  H   H2224     1.0  0.73631  0.56472  0.87753  1.0000
  H   H2225     1.0  0.67709  0.55119  0.62644  1.0000
  H   H2226     1.0  0.64681  0.54085  0.47404  1.0000
  H   H2227     1.0  0.62621  0.52929  0.71241  1.0000
  S   S286      1.0  0.50204  0.69890  0.64586  1.0000
  H   H2228     1.0  0.66186  0.86396  0.65473  1.0000
  C   C1262     1.0  0.55331  0.49866  0.49990  1.0000
  C   C1263     1.0  0.65287  0.59037  0.88815  1.0000
  H   H2229     1.0  0.63394  0.76462  0.48174  1.0000
  Fe  Fe140     1.0  0.72115  0.78514  0.56785  1.0000
  Fe  Fe141     1.0  0.71766  0.80789  0.62812  1.0000
  C   C1264     1.0  0.57173  0.50252  0.59476  1.0000
  H   H2230     1.0  0.67256  0.57129  0.54024  1.0000
  H   H2231     1.0  0.69620  0.54304  0.82942  1.0000
  C   C1265     1.0  0.64829  0.52244  0.70707  1.0000
  H   H2232     1.0  0.63155  0.55271  0.52121  1.0000
  H   H2233     1.0  0.54486  0.80464  0.49086  1.0000
  H   H2234     1.0  0.66526  0.55110  0.59087  1.0000
  Fe  Fe142     1.0  0.73330  0.82955  0.90074  1.0000
  C   C1266     1.0  0.67716  0.93921  0.59127  1.0000
  H   H2235     1.0  0.70555  0.94786  0.65927  1.0000
  H   H2236     1.0  0.73084  0.70888  0.49927  1.0000
  H   H2237     1.0  0.52227  0.52514  0.78504  1.0000
  H   H2238     1.0  0.66068  0.72402  0.66532  1.0000
  H   H2239     1.0  0.65075  0.62400  0.80710  1.0000
  H   H2240     1.0  0.53467  0.76969  0.50042  1.0000
  C   C1267     1.0  0.61325  0.76744  0.93783  1.0000
  C   C1268     1.0  0.64720  0.57333  0.83804  1.0000
  S   S287      1.0  0.50500  0.61718  0.54983  1.0000
  H   H2241     1.0  0.71108  0.53850  0.78044  1.0000
  C   C1269     1.0  0.70753  0.69811  0.63534  1.0000
  C   C1270     1.0  0.66545  0.91612  0.57459  1.0000
  H   H2242     1.0  0.66202  0.93053  0.66373  1.0000
  C   C1271     1.0  0.49404  0.76360  0.79127  1.0000
  H   H2243     1.0  0.71436  0.90666  0.83398  1.0000
  H   H2244     1.0  0.64346  0.61311  0.77182  1.0000
  H   H2245     1.0  0.59498  0.77120  0.95263  1.0000
  C   C1272     1.0  0.66215  0.92274  0.64154  1.0000
  C   C1273     1.0  0.53524  0.69898  0.47573  1.0000
  C   C1274     1.0  0.74144  0.67464  0.72074  1.0000
  H   H2246     1.0  0.68530  0.58017  0.77290  1.0000
  C   C1275     1.0  0.61265  0.73858  0.92519  1.0000
  H   H2247     1.0  0.69241  0.68404  0.64647  1.0000
  H   H2248     1.0  0.68225  0.90988  0.63927  1.0000
  C   C1276     1.0  0.63647  0.51914  0.65419  1.0000
  H   H2249     1.0  0.73209  0.90388  0.88258  1.0000
  H   H2250     1.0  0.61302  0.78461  0.92036  1.0000
  C   C1277     1.0  0.51551  0.54240  0.79894  1.0000
  H   H2251     1.0  0.70819  0.67955  0.69100  1.0000
  N   N72       1.0  0.72877  0.92174  0.77010  1.0000
  H   H2252     1.0  0.57199  0.51448  0.57318  1.0000
  C   C1278     1.0  0.56001  0.95792  0.92740  1.0000
  H   H2253     1.0  0.70053  0.70129  0.61259  1.0000
  H   H2254     1.0  0.61968  0.57610  0.79014  1.0000
  S   S288      1.0  0.53111  0.61826  0.48232  1.0000
  H   H2255     1.0  0.63289  0.60325  0.88544  1.0000
  H   H2256     1.0  0.55820  0.51434  0.61026  1.0000
  H   H2257     1.0  0.55306  0.76830  0.81532  1.0000
  C   C1279     1.0  0.70644  0.90640  0.78762  1.0000
  H   H2258     1.0  0.52880  0.62071  0.64619  1.0000
  C   C1280     1.0  0.61613  0.69307  0.88466  1.0000
  C   C1281     1.0  0.61416  0.66312  0.87652  1.0000
  H   H2259     1.0  0.58712  0.69025  0.92082  1.0000
  H   H2260     1.0  0.63431  0.69291  0.89896  1.0000
  H   H2261     1.0  0.59917  0.52899  0.48213  1.0000
  C   C1282     1.0  0.68501  0.83306  0.74126  1.0000
  H   H2262     1.0  0.69433  0.92644  0.90649  1.0000
  C   C1283     1.0  0.73514  0.90661  0.74287  1.0000
  C   C1284     1.0  0.68270  0.91163  0.54662  1.0000
  H   H2263     1.0  0.63562  0.51282  0.79322  1.0000
  C   C1285     1.0  0.70501  0.96460  0.64139  1.0000
  C   C1286     1.0  0.65636  0.60298  0.61805  1.0000
  H   H2264     1.0  0.67111  0.60041  0.63629  1.0000
  H   H2265     1.0  0.56862  0.88461  0.86083  1.0000
  H   H2266     1.0  0.57051  0.69971  0.88775  1.0000
  S   S289      1.0  0.49424  0.76759  0.75276  1.0000
  H   H2267     1.0  0.69500  0.95347  0.76182  1.0000
  C   C1287     1.0  0.63156  0.69580  0.49880  1.0000
  C   C1288     1.0  0.67519  0.92772  0.92071  1.0000
  H   H2268     1.0  0.71952  0.60819  0.60322  1.0000
  H   H2269     1.0  0.57021  0.59209  0.94799  1.0000
  C   C1289     1.0  0.54402  0.78357  0.48282  1.0000
  H   H2270     1.0  0.64308  0.70972  0.48310  1.0000
  C   C1290     1.0  0.63894  0.57749  0.61797  1.0000
  H   H2271     1.0  0.65671  0.92681  0.90701  1.0000
  H   H2272     1.0  0.71270  0.88360  0.79052  1.0000
  H   H2273     1.0  0.58622  0.77553  0.88497  1.0000
  H   H2274     1.0  0.68630  0.57188  0.86259  1.0000
  C   C1291     1.0  0.69890  0.91643  0.81835  1.0000
  C   C1292     1.0  0.70968  0.90296  0.72392  1.0000
  C   C1293     1.0  0.55610  0.72655  0.95377  1.0000
  C   C1294     1.0  0.56039  0.74129  0.92301  1.0000
  H   H2275     1.0  0.56212  0.79290  0.84040  1.0000
  H   H2276     1.0  0.65331  0.91943  0.81603  1.0000
  H   H2277     1.0  0.67779  0.57210  0.50133  1.0000
  H   H2278     1.0  0.73253  0.64748  0.90281  1.0000
  N   N73       1.0  0.58783  0.73427  0.90717  1.0000
  H   H2279     1.0  0.70477  0.90476  0.55161  1.0000
  C   C1295     1.0  0.67953  0.63702  0.77285  1.0000
  C   C1296     1.0  0.69325  0.52597  0.78827  1.0000
  H   H2280     1.0  0.67083  0.85110  0.74388  1.0000
  H   H2281     1.0  0.68325  0.76114  0.49569  1.0000
  S   S290      1.0  0.73634  0.79327  0.87254  1.0000
  H   H2282     1.0  0.49698  0.66963  0.93729  1.0000
  C   C1297     1.0  0.58941  0.75333  0.87966  1.0000
  H   H2283     1.0  0.68434  0.83694  0.69406  1.0000
  C   C1298     1.0  0.66988  0.90789  0.82920  1.0000
  H   H2284     1.0  0.66197  0.53234  0.72168  1.0000
  H   H2285     1.0  0.68655  0.90799  0.77570  1.0000
  C   C1299     1.0  0.65774  0.55027  0.61406  1.0000
  H   H2286     1.0  0.68779  0.48750  0.64981  1.0000
  H   H2287     1.0  0.61526  0.52863  0.65926  1.0000
  H   H2288     1.0  0.65341  0.55473  0.67339  1.0000
  H   H2289     1.0  0.64856  0.88277  0.68562  1.0000
  Fe  Fe143     1.0  0.49417  0.73434  0.71971  1.0000
  H   H2290     1.0  0.63244  0.73619  0.91185  1.0000
  C   C1300     1.0  0.67261  0.73720  0.64915  1.0000
  H   H2291     1.0  0.61947  0.93956  0.60446  1.0000
  N   N74       1.0  0.65983  0.56447  0.80939  1.0000
  H   H2292     1.0  0.67085  0.75893  0.65574  1.0000
  H   H2293     1.0  0.66761  0.52222  0.82850  1.0000
  H   H2294     1.0  0.73258  0.76614  0.73173  1.0000
  H   H2295     1.0  0.53113  0.55852  0.79657  1.0000
  H   H2296     1.0  0.73084  0.87052  0.69923  1.0000
  H   H2297     1.0  0.57241  0.72889  0.84667  1.0000
  H   H2298     1.0  0.72345  0.62023  0.56535  1.0000
  H   H2299     1.0  0.49462  0.71503  0.84897  1.0000
  H   H2300     1.0  0.57915  0.54633  0.78943  1.0000
  H   H2301     1.0  0.61823  0.91368  0.65138  1.0000
  H   H2302     1.0  0.65842  0.88955  0.47939  1.0000
  C   C1301     1.0  0.56780  0.74913  0.85635  1.0000
  H   H2303     1.0  0.66321  0.73717  0.62757  1.0000
  H   H2304     1.0  0.50261  0.90826  0.52559  1.0000
  H   H2305     1.0  0.65136  0.49940  0.71101  1.0000
  H   H2306     1.0  0.58618  0.77052  0.49385  1.0000
  C   C1302     1.0  0.60135  0.49730  0.60615  1.0000
  H   H2307     1.0  0.73188  0.90550  0.68167  1.0000
  H   H2308     1.0  0.63407  0.48247  0.53572  1.0000
  H   H2309     1.0  0.69890  0.93138  0.59657  1.0000
  H   H2310     1.0  0.50197  0.56538  0.69812  1.0000
  C   C1303     1.0  0.71821  0.95185  0.76374  1.0000
  H   H2311     1.0  0.69501  0.64246  0.78846  1.0000
  H   H2312     1.0  0.63722  0.97852  0.56907  1.0000
  H   H2313     1.0  0.61983  0.96197  0.63318  1.0000
  C   C1304     1.0  0.66219  0.49922  0.61181  1.0000
  C   C1305     1.0  0.69054  0.97994  0.47671  1.0000
  H   H2314     1.0  0.72221  0.96413  0.78255  1.0000
  H   H2315     1.0  0.67674  0.88372  0.93280  1.0000
  H   H2316     1.0  0.72676  0.66669  0.73814  1.0000
  C   C1306     1.0  0.64655  0.62314  0.48165  1.0000
  H   H2317     1.0  0.63234  0.62895  0.49926  1.0000
  H   H2318     1.0  0.59767  0.95563  0.95303  1.0000
  H   H2319     1.0  0.67856  0.64995  0.49261  1.0000
  H   H2320     1.0  0.50055  0.71882  0.79521  1.0000
  H   H2321     1.0  0.73972  0.66510  0.57913  1.0000
  C   C1307     1.0  0.73000  0.96768  0.73562  1.0000
  H   H2322     1.0  0.72088  0.96049  0.71596  1.0000
  H   H2323     1.0  0.61266  0.48232  0.59195  1.0000
  S   S291      1.0  0.73912  0.73834  0.81857  1.0000
  H   H2324     1.0  0.51901  0.95558  0.86530  1.0000
  C   C1308     1.0  0.72992  0.67021  0.69106  1.0000
  H   H2325     1.0  0.56239  0.48228  0.59249  1.0000
  C   C1309     1.0  0.49933  0.96269  0.92297  1.0000
  N   N75       1.0  0.63497  0.49989  0.49076  1.0000
  H   H2326     1.0  0.72920  0.64740  0.68920  1.0000
  H   H2327     1.0  0.68707  0.48209  0.80052  1.0000
  H   H2328     1.0  0.50675  0.91273  0.95385  1.0000
  H   H2329     1.0  0.68803  0.84700  0.47935  1.0000
  H   H2330     1.0  0.74041  0.63606  0.81002  1.0000
  C   C1310     1.0  0.58294  0.48805  0.49108  1.0000
  C   C1311     1.0  0.54180  0.97714  0.94733  1.0000
  C   C1312     1.0  0.49993  0.96984  0.86739  1.0000
  H   H2331     1.0  0.68502  0.48833  0.52656  1.0000
  H   H2332     1.0  0.66170  0.97984  0.64809  1.0000
  C   C1313     1.0  0.67282  0.63498  0.47787  1.0000
  H   H2333     1.0  0.57605  0.92177  0.47041  1.0000
  S   S292      1.0  0.74099  0.96407  0.56050  1.0000
  H   H2334     1.0  0.86577  0.98630  0.28950  1.0000
  Fe  Fe144     1.0  0.77638  0.43190  0.44200  1.0000
  C   C1314     1.0  0.94922  0.25768  0.08999  1.0000
  H   H2335     1.0  0.94137  0.00720  0.43661  1.0000
  S   S293      1.0  0.77575  0.45538  0.04215  1.0000
  Fe  Fe145     1.0  0.80276  0.45829  0.00139  1.0000
  S   S294      1.0  0.84704  0.43885  0.99255  1.0000
  S   S295      1.0  0.76878  0.01026  0.02627  1.0000
  Fe  Fe146     1.0  0.97418  0.36110  0.40539  1.0000
  S   S296      1.0  0.94238  0.39541  0.42055  1.0000
  S   S297      1.0  0.96584  0.31945  0.38906  1.0000
  H   H2336     1.0  0.93892  0.05793  0.44115  1.0000
  H   H2337     1.0  0.77841  0.28998  0.35863  1.0000
  S   S298      1.0  0.93541  0.37693  0.08076  1.0000
  H   H2338     1.0  0.97744  0.24093  0.35019  1.0000
  H   H2339     1.0  0.89994  0.43931  0.42858  1.0000
  H   H2340     1.0  0.74764  0.36172  0.02499  1.0000
  H   H2341     1.0  0.83065  0.47753  0.26380  1.0000
  H   H2342     1.0  0.87916  0.32284  0.99165  1.0000
  H   H2343     1.0  0.91287  0.23015  0.98306  1.0000
  H   H2344     1.0  0.90495  0.41998  0.98501  1.0000
  H   H2345     1.0  0.79730  0.47256  0.28237  1.0000
  H   H2346     1.0  0.85139  0.35144  0.43089  1.0000
  C   C1315     1.0  0.87173  0.42287  0.01773  1.0000
  C   C1316     1.0  0.89915  0.41536  0.00767  1.0000
  C   C1317     1.0  0.91919  0.40194  0.02667  1.0000
  C   C1318     1.0  0.91189  0.39551  0.05598  1.0000
  C   C1319     1.0  0.88449  0.40308  0.06601  1.0000
  C   C1320     1.0  0.86459  0.41682  0.04712  1.0000
  C   C1321     1.0  0.89858  0.03599  0.98588  1.0000
  H   H2347     1.0  0.94018  0.39646  0.01862  1.0000
  H   H2348     1.0  0.87859  0.39819  0.08861  1.0000
  H   H2349     1.0  0.84363  0.42238  0.05523  1.0000
  C   C1322     1.0  0.84599  0.39595  0.43429  1.0000
  C   C1323     1.0  0.86184  0.37076  0.43017  1.0000
  C   C1324     1.0  0.89119  0.37025  0.42524  1.0000
  C   C1325     1.0  0.90518  0.39494  0.42481  1.0000
  C   C1326     1.0  0.88931  0.42016  0.42889  1.0000
  C   C1327     1.0  0.85991  0.42073  0.43337  1.0000
  C   C1328     1.0  0.97207  0.31595  0.98914  1.0000
  H   H2350     1.0  0.94941  0.21839  0.98081  1.0000
  H   H2351     1.0  0.90371  0.02625  0.00706  1.0000
  C   C1329     1.0  0.92912  0.27704  0.07161  1.0000
  H   H2352     1.0  0.91424  0.26391  0.06189  1.0000
  C   C1330     1.0  0.83930  0.46573  0.36365  1.0000
  H   H2353     1.0  0.90303  0.35068  0.42226  1.0000
  C   C1331     1.0  0.93451  0.23715  0.97995  1.0000
  H   H2354     1.0  0.91676  0.29029  0.98111  1.0000
  Fe  Fe147     1.0  0.74650  0.47897  0.40367  1.0000
  H   H2355     1.0  0.75429  0.34476  0.46420  1.0000
  H   H2356     1.0  0.85768  0.99779  0.35171  1.0000
  H   H2357     1.0  0.79178  0.30617  0.38883  1.0000
  H   H2358     1.0  0.81138  0.46144  0.13205  1.0000
  H   H2359     1.0  0.77547  0.98194  0.38218  1.0000
  C   C1332     1.0  0.94482  0.29542  0.04795  1.0000
  H   H2360     1.0  0.83937  0.01785  0.32250  1.0000
  Fe  Fe148     1.0  0.98195  0.36172  0.08069  1.0000
  C   C1333     1.0  0.94407  0.32680  0.00336  1.0000
  H   H2361     1.0  0.96311  0.26133  0.00023  1.0000
  S   S299      1.0  0.78309  0.47754  0.43366  1.0000
  H   H2362     1.0  0.84116  0.35784  0.00626  1.0000
  H   H2363     1.0  0.89168  0.35561  0.00068  1.0000
  H   H2364     1.0  0.78351  0.35668  0.01245  1.0000
  H   H2365     1.0  0.79302  0.47669  0.22863  1.0000
  H   H2366     1.0  0.75831  0.33508  0.41899  1.0000
  H   H2367     1.0  0.93987  0.24332  0.02484  1.0000
  H   H2368     1.0  0.84805  0.44020  0.43641  1.0000
  C   C1334     1.0  0.98516  0.32425  0.24415  1.0000
  H   H2369     1.0  0.91681  0.29079  0.08642  1.0000
  H   H2370     1.0  0.84188  0.32626  0.03009  1.0000
  H   H2371     1.0  0.96440  0.26987  0.10048  1.0000
  H   H2372     1.0  0.96549  0.31446  0.24769  1.0000
  H   H2373     1.0  0.93147  0.33601  0.98486  1.0000
  C   C1335     1.0  0.92714  0.01573  0.45376  1.0000
  H   H2374     1.0  0.75062  0.33333  0.36775  1.0000
  H   H2375     1.0  0.96094  0.24255  0.07626  1.0000
  H   H2376     1.0  0.85578  0.35759  0.04170  1.0000
  H   H2377     1.0  0.82003  0.00300  0.35352  1.0000
  H   H2378     1.0  0.90662  0.33647  0.04833  1.0000
  H   H2379     1.0  0.84845  0.46482  0.38549  1.0000
  H   H2380     1.0  0.96447  0.28384  0.04137  1.0000
  H   H2381     1.0  0.98935  0.35716  0.98468  1.0000
  C   C1336     1.0  0.92020  0.28221  0.00408  1.0000
  H   H2382     1.0  0.75961  0.32969  0.00886  1.0000
  Fe  Fe149     1.0  0.80207  0.00132  0.99125  1.0000
  H   H2383     1.0  0.81808  0.98795  0.26315  1.0000
  C   C1337     1.0  0.90142  0.32074  0.03309  1.0000
  H   H2384     1.0  0.85640  0.46369  0.34684  1.0000
  C   C1338     1.0  0.83851  0.99954  0.33863  1.0000
  N   N76       1.0  0.92791  0.30567  0.02184  1.0000
  C   C1339     1.0  0.94110  0.25597  0.00375  1.0000
  H   H2385     1.0  0.98522  0.32230  0.19722  1.0000
  H   H2386     1.0  0.89971  0.27421  0.01189  1.0000
  S   S300      1.0  0.98570  0.32281  0.30439  1.0000
  H   H2387     1.0  0.77422  0.98362  0.43608  1.0000
  C   C1340     1.0  0.87177  0.03323  0.97513  1.0000
  H   H2388     1.0  0.88823  0.30589  0.04616  1.0000
  H   H2389     1.0  0.98686  0.30694  0.00578  1.0000
  C   C1341     1.0  0.74691  0.31452  0.38249  1.0000
  S   S301      1.0  0.80913  0.39518  0.44148  1.0000
  C   C1342     1.0  0.85352  0.34491  0.02284  1.0000
  H   H2390     1.0  0.93724  0.24580  0.10729  1.0000
  H   H2391     1.0  0.94845  0.34451  0.01651  1.0000
  C   C1343     1.0  0.88228  0.33618  0.00974  1.0000
  S   S302      1.0  0.84789  0.01204  0.99614  1.0000
  C   C1344     1.0  0.77372  0.29545  0.38136  1.0000
  H   H2392     1.0  0.88106  0.98409  0.44729  1.0000
  H   H2393     1.0  0.95202  0.31349  0.05889  1.0000
  H   H2394     1.0  0.93920  0.05334  0.97832  1.0000
  H   H2395     1.0  0.94964  0.99485  0.00248  1.0000
  H   H2396     1.0  0.82597  0.44770  0.36309  1.0000
  H   H2397     1.0  0.82017  0.98375  0.20923  1.0000
  H   H2398     1.0  0.77126  0.27582  0.39526  1.0000
  C   C1345     1.0  0.91877  0.05144  0.96965  1.0000
  H   H2399     1.0  0.88701  0.47762  0.46298  1.0000
  C   C1346     1.0  0.98619  0.33949  0.97122  1.0000
  H   H2400     1.0  0.90594  0.02052  0.44511  1.0000
  H   H2401     1.0  0.96836  0.30003  0.97376  1.0000
  H   H2402     1.0  0.83515  0.00765  0.45437  1.0000
  C   C1347     1.0  0.76156  0.35263  0.00785  1.0000
  S   S303      1.0  0.76771  0.44986  0.97228  1.0000
  C   C1348     1.0  0.75412  0.36600  0.97774  1.0000
  H   H2403     1.0  0.75721  0.38865  0.97756  1.0000
  S   S304      1.0  0.99092  0.32169  0.10848  1.0000
  H   H2404     1.0  0.78517  0.98148  0.22476  1.0000
  H   H2405     1.0  0.74287  0.45287  0.10140  1.0000
  C   C1349     1.0  0.93824  0.04342  0.46104  1.0000
  H   H2406     1.0  0.92639  0.98133  0.03133  1.0000
  C   C1350     1.0  0.94967  0.99432  0.63257  1.0000
  H   H2407     1.0  0.84479  0.04486  0.93933  1.0000
  C   C1351     1.0  0.89656  0.00054  0.63445  1.0000
  S   S305      1.0  0.93687  0.08441  0.92052  1.0000
  Fe  Fe150     1.0  0.80236  0.01369  0.54642  1.0000
  S   S306      1.0  0.83430  0.04747  0.54284  1.0000
  H   H2408     1.0  0.91763  0.00623  0.49957  1.0000
  S   S307      1.0  0.77533  0.01177  0.58688  1.0000
  S   S308      1.0  0.76465  0.01640  0.51769  1.0000
  S   S309      1.0  0.98993  0.13931  0.89429  1.0000
  C   C1352     1.0  0.84313  0.03876  0.64142  1.0000
  S   S310      1.0  0.96255  0.05281  0.57634  1.0000
  H   H2409     1.0  0.82511  0.00017  0.63135  1.0000
  H   H2410     1.0  0.87032  0.46637  0.51051  1.0000
  H   H2411     1.0  0.81825  0.45136  0.54413  1.0000
  H   H2412     1.0  0.74679  0.37552  0.50359  1.0000
  H   H2413     1.0  0.82083  0.05898  0.60428  1.0000
  H   H2414     1.0  0.97263  0.30135  0.63972  1.0000
  C   C1353     1.0  0.82658  0.47107  0.50071  1.0000
  C   C1354     1.0  0.95549  0.19715  0.63645  1.0000
  H   H2415     1.0  0.97670  0.46623  0.74877  1.0000
  H   H2416     1.0  0.76926  0.35655  0.96191  1.0000
  C   C1355     1.0  0.74350  0.37201  0.86387  1.0000
  C   C1356     1.0  0.86958  0.04822  0.55376  1.0000
  C   C1357     1.0  0.87949  0.07358  0.56127  1.0000
  C   C1358     1.0  0.90772  0.07541  0.56859  1.0000
  C   C1359     1.0  0.92663  0.05203  0.56764  1.0000
  C   C1360     1.0  0.91681  0.02681  0.55957  1.0000
  C   C1361     1.0  0.88839  0.02477  0.55330  1.0000
  H   H2417     1.0  0.86524  0.09199  0.56140  1.0000
  H   H2418     1.0  0.91493  0.09502  0.57450  1.0000
  H   H2419     1.0  0.93125  0.00862  0.55857  1.0000
  H   H2420     1.0  0.86040  0.98136  0.51126  1.0000
  H   H2421     1.0  0.88016  0.07211  0.91069  1.0000
  Fe  Fe151     1.0  0.98204  0.09875  0.92091  1.0000
  H   H2422     1.0  0.86225  0.05018  0.63578  1.0000
  H   H2423     1.0  0.95086  0.01513  0.64130  1.0000
  H   H2424     1.0  0.85375  0.00431  0.89283  1.0000
  C   C1362     1.0  0.92683  0.99488  0.48095  1.0000
  H   H2425     1.0  0.96369  0.25026  0.65564  1.0000
  H   H2426     1.0  0.79838  0.04650  0.63429  1.0000
  H   H2427     1.0  0.92433  0.05341  0.47766  1.0000
  H   H2428     1.0  0.96604  0.12380  0.75269  1.0000
  H   H2429     1.0  0.82106  0.01144  0.49058  1.0000
  H   H2430     1.0  0.97522  0.17656  0.67391  1.0000
  H   H2431     1.0  0.92102  0.17781  0.61819  1.0000
  H   H2432     1.0  0.97024  0.18723  0.62066  1.0000
  S   S311      1.0  0.77250  0.01130  0.95424  1.0000
  H   H2433     1.0  0.77556  0.47072  0.59884  1.0000
  H   H2434     1.0  0.95100  0.99686  0.60843  1.0000
  H   H2435     1.0  0.98356  0.23014  0.70895  1.0000
  H   H2436     1.0  0.76807  0.47158  0.54568  1.0000
  H   H2437     1.0  0.87080  0.00531  0.68490  1.0000
  H   H2438     1.0  0.83723  0.42883  0.51932  1.0000
  H   H2439     1.0  0.81717  0.07747  0.63685  1.0000
  H   H2440     1.0  0.81916  0.99386  0.67992  1.0000
  H   H2441     1.0  0.82829  0.46389  0.47844  1.0000
  H   H2442     1.0  0.91323  0.19030  0.65373  1.0000
  C   C1363     1.0  0.83392  0.99733  0.47672  1.0000
  H   H2443     1.0  0.95276  0.20614  0.68191  1.0000
  C   C1364     1.0  0.91237  0.06460  0.94235  1.0000
  S   S312      1.0  0.74598  0.43802  0.48000  1.0000
  S   S313      1.0  0.97706  0.12772  0.61074  1.0000
  H   H2444     1.0  0.94852  0.21812  0.62674  1.0000
  C   C1365     1.0  0.98643  0.24465  0.65166  1.0000
  H   H2445     1.0  0.76554  0.37626  0.86787  1.0000
  H   H2446     1.0  0.98864  0.17877  0.71923  1.0000
  H   H2447     1.0  0.93523  0.15865  0.64998  1.0000
  C   C1366     1.0  0.88547  0.06198  0.93169  1.0000
  H   H2448     1.0  0.98651  0.45375  0.78506  1.0000
  C   C1367     1.0  0.84591  0.00941  0.62931  1.0000
  H   H2449     1.0  0.80037  0.43728  0.51527  1.0000
  C   C1368     1.0  0.92967  0.17992  0.63991  1.0000
  C   C1369     1.0  0.86529  0.04653  0.94793  1.0000
  H   H2450     1.0  0.89879  0.02036  0.64492  1.0000
  C   C1370     1.0  0.82032  0.44562  0.52122  1.0000
  H   H2451     1.0  0.83905  0.99681  0.72884  1.0000
  C   C1371     1.0  0.81834  0.05640  0.62837  1.0000
  H   H2452     1.0  0.88111  0.00524  0.54760  1.0000
  H   H2453     1.0  0.83973  0.03745  0.66537  1.0000
  C   C1372     1.0  0.86308  0.99199  0.48926  1.0000
  H   H2454     1.0  0.89824  0.00642  0.61082  1.0000
  H   H2455     1.0  0.84982  0.01326  0.60546  1.0000
  H   H2456     1.0  0.83612  0.99399  0.92672  1.0000
  H   H2457     1.0  0.88838  0.99370  0.93028  1.0000
  C   C1373     1.0  0.96937  0.19857  0.66627  1.0000
  H   H2458     1.0  0.95976  0.04008  0.46948  1.0000
  H   H2459     1.0  0.75304  0.37638  0.92134  1.0000
  H   H2460     1.0  0.91302  0.48053  0.51548  1.0000
  C   C1374     1.0  0.98838  0.12089  0.75572  1.0000
  H   H2461     1.0  0.98426  0.12163  0.80276  1.0000
  H   H2462     1.0  0.98933  0.24416  0.62756  1.0000
  C   C1375     1.0  0.85065  0.98653  0.90917  1.0000
  C   C1376     1.0  0.86520  0.98602  0.67510  1.0000
  H   H2463     1.0  0.95474  0.47587  0.77945  1.0000
  Fe  Fe152     1.0  0.98940  0.08644  0.59234  1.0000
  H   H2464     1.0  0.93690  0.24834  0.95811  1.0000
  C   C1377     1.0  0.97679  0.47180  0.77173  1.0000
  H   H2465     1.0  0.87169  0.01261  0.49123  1.0000
  H   H2466     1.0  0.97323  0.34733  0.95246  1.0000
  H   H2467     1.0  0.94916  0.99006  0.48639  1.0000
  N   N77       1.0  0.86840  0.98927  0.64236  1.0000
  S   S314      1.0  0.93538  0.79655  0.30331  1.0000
  C   C1378     1.0  0.92433  0.59608  0.44355  1.0000
  H   H2468     1.0  0.85662  0.93304  0.10274  1.0000
  H   H2469     1.0  0.83233  0.51178  0.22046  1.0000
  C   C1379     1.0  0.88998  0.78341  0.45636  1.0000
  H   H2470     1.0  0.80564  0.56919  0.19462  1.0000
  S   S315      1.0  0.97358  0.88487  0.46104  1.0000
  H   H2471     1.0  0.92271  0.60760  0.19696  1.0000
  H   H2472     1.0  0.96510  0.62036  0.00658  1.0000
  C   C1380     1.0  0.92010  0.95317  0.42495  1.0000
  Fe  Fe153     1.0  0.77500  0.85286  0.28221  1.0000
  S   S316      1.0  0.78223  0.89819  0.27241  1.0000
  S   S317      1.0  0.80576  0.81598  0.27432  1.0000
  H   H2473     1.0  0.91006  0.97042  0.27280  1.0000
  H   H2474     1.0  0.86537  0.83120  0.98338  1.0000
  Fe  Fe154     1.0  0.75622  0.90577  0.31331  1.0000
  S   S318      1.0  0.76856  0.93835  0.34401  1.0000
  C   C1381     1.0  0.74658  0.90641  0.12186  1.0000
  C   C1382     1.0  0.97834  0.85205  0.29725  1.0000
  H   H2475     1.0  0.89438  0.59090  0.36679  1.0000
  H   H2476     1.0  0.76120  0.53346  0.41728  1.0000
  H   H2477     1.0  0.94255  0.91942  0.24891  1.0000
  H   H2478     1.0  0.75131  0.79692  0.08235  1.0000
  S   S319      1.0  0.76241  0.71328  0.18708  1.0000
  C   C1383     1.0  0.77176  0.96409  0.42652  1.0000
  H   H2479     1.0  0.86092  0.66597  0.99786  1.0000
  H   H2480     1.0  0.85437  0.95983  0.12797  1.0000
  Fe  Fe155     1.0  0.91979  0.77626  0.20277  1.0000
  S   S320      1.0  0.90337  0.82112  0.20009  1.0000
  S   S321      1.0  0.88902  0.74104  0.21062  1.0000
  Fe  Fe156     1.0  0.93415  0.82598  0.16243  1.0000
  C   C1384     1.0  0.82145  0.49297  0.35790  1.0000
  Fe  Fe157     1.0  0.93917  0.82879  0.22871  1.0000
  S   S322      1.0  0.93213  0.86252  0.26157  1.0000
  S   S323      1.0  0.94922  0.78094  0.16329  1.0000
  S   S324      1.0  0.95461  0.78328  0.23351  1.0000
  C   C1385     1.0  0.74409  0.90546  0.15266  1.0000
  C   C1386     1.0  0.93179  0.61568  0.17564  1.0000
  H   H2481     1.0  0.90466  0.59721  0.32886  1.0000
  Fe  Fe158     1.0  0.81208  0.68708  0.42882  1.0000
  S   S325      1.0  0.82081  0.72638  0.44984  1.0000
  Fe  Fe159     1.0  0.80629  0.65673  0.37262  1.0000
  S   S326      1.0  0.79526  0.61775  0.39945  1.0000
  S   S327      1.0  0.82242  0.65331  0.32528  1.0000
  S   S328      1.0  0.79510  0.95514  0.99419  1.0000
  Fe  Fe160     1.0  0.83135  0.62574  0.42722  1.0000
  C   C1387     1.0  0.80129  0.50517  0.14022  1.0000
  S   S329      1.0  0.84266  0.66394  0.40023  1.0000
  Fe  Fe161     1.0  0.81041  0.66369  0.08521  1.0000
  S   S330      1.0  0.79790  0.69471  0.11761  1.0000
  S   S331      1.0  0.85018  0.66848  0.05848  1.0000
  Fe  Fe162     1.0  0.78139  0.65799  0.14530  1.0000
  S   S332      1.0  0.80303  0.64172  0.18874  1.0000
  Fe  Fe163     1.0  0.75664  0.69949  0.09494  1.0000
  H   H2482     1.0  0.84143  0.54216  0.99311  1.0000
  S   S333      1.0  0.79500  0.62694  0.11190  1.0000
  S   S334      1.0  0.77096  0.67084  0.06130  1.0000
  C   C1388     1.0  0.80968  0.51869  0.22137  1.0000
  H   H2483     1.0  0.75525  0.72980  0.30420  1.0000
  Fe  Fe164     1.0  0.76038  0.96456  0.02741  1.0000
  H   H2484     1.0  0.88616  0.92578  0.14618  1.0000
  C   C1389     1.0  0.84285  0.91985  0.29669  1.0000
  H   H2485     1.0  0.85605  0.87830  0.00626  1.0000
  C   C1390     1.0  0.81515  0.65106  0.28766  1.0000
  C   C1391     1.0  0.78987  0.66110  0.27509  1.0000
  C   C1392     1.0  0.78611  0.65948  0.24484  1.0000
  C   C1393     1.0  0.80686  0.64670  0.22688  1.0000
  C   C1394     1.0  0.83183  0.63621  0.23993  1.0000
  C   C1395     1.0  0.83616  0.63892  0.26967  1.0000
  H   H2486     1.0  0.77352  0.67086  0.28834  1.0000
  H   H2487     1.0  0.76755  0.66928  0.23533  1.0000
  H   H2488     1.0  0.84825  0.62644  0.22675  1.0000
  H   H2489     1.0  0.85589  0.63123  0.27889  1.0000
  C   C1396     1.0  0.92659  0.61045  0.08037  1.0000
  C   C1397     1.0  0.90077  0.60526  0.09439  1.0000
  C   C1398     1.0  0.87718  0.62368  0.08891  1.0000
  C   C1399     1.0  0.87938  0.64675  0.06878  1.0000
  C   C1400     1.0  0.90524  0.65210  0.05525  1.0000
  C   C1401     1.0  0.92880  0.63422  0.06139  1.0000
  H   H2490     1.0  0.85721  0.61960  0.09951  1.0000
  H   H2491     1.0  0.90705  0.67008  0.03988  1.0000
  H   H2492     1.0  0.94847  0.63842  0.05069  1.0000
  N   N78       1.0  0.84965  0.90167  0.15475  1.0000
  H   H2493     1.0  0.75147  0.97618  0.10707  1.0000
  C   C1402     1.0  0.85497  0.90329  0.32398  1.0000
  S   S335      1.0  0.94263  0.82879  0.44622  1.0000
  H   H2494     1.0  0.92741  0.59458  0.42035  1.0000
  C   C1403     1.0  0.94992  0.86078  0.29515  1.0000
  C   C1404     1.0  0.93541  0.86979  0.32016  1.0000
  C   C1405     1.0  0.94841  0.86893  0.34717  1.0000
  N   N79       1.0  0.86010  0.94289  0.28327  1.0000
  H   H2495     1.0  0.91379  0.87675  0.31877  1.0000
  H   H2496     1.0  0.93672  0.87559  0.36619  1.0000
  C   C1406     1.0  0.92754  0.83293  0.08896  1.0000
  C   C1407     1.0  0.93715  0.84538  0.06228  1.0000
  C   C1408     1.0  0.94097  0.82964  0.03780  1.0000
  H   H2497     1.0  0.94280  0.86687  0.06087  1.0000
  H   H2498     1.0  0.94966  0.83899  0.01774  1.0000
  C   C1409     1.0  0.79648  0.72430  0.19548  1.0000
  C   C1410     1.0  0.81241  0.73899  0.17370  1.0000
  C   C1411     1.0  0.83964  0.74717  0.17894  1.0000
  C   C1412     1.0  0.85196  0.73990  0.20588  1.0000
  C   C1413     1.0  0.83546  0.72670  0.22807  1.0000
  C   C1414     1.0  0.80773  0.71997  0.22323  1.0000
  H   H2499     1.0  0.80394  0.74336  0.15234  1.0000
  H   H2500     1.0  0.85194  0.75700  0.16140  1.0000
  H   H2501     1.0  0.84430  0.72118  0.24911  1.0000
  H   H2502     1.0  0.79520  0.71141  0.24111  1.0000
  C   C1415     1.0  0.76852  0.93805  0.38285  1.0000
  H   H2503     1.0  0.84573  0.81898  0.46808  1.0000
  H   H2504     1.0  0.81882  0.85006  0.16545  1.0000
  C   C1416     1.0  0.76734  0.94000  0.44464  1.0000
  C   C1417     1.0  0.76425  0.91483  0.43156  1.0000
  C   C1418     1.0  0.76477  0.91381  0.40097  1.0000
  H   H2505     1.0  0.77666  0.80320  0.03425  1.0000
  H   H2506     1.0  0.75206  0.78935  0.24725  1.0000
  C   C1419     1.0  0.75278  0.87773  0.99618  1.0000
  H   H2507     1.0  0.77498  0.76308  0.26553  1.0000
  H   H2508     1.0  0.85219  0.56545  0.38036  1.0000
  H   H2509     1.0  0.95111  0.95169  0.45854  1.0000
  C   C1420     1.0  0.93998  0.93533  0.40610  1.0000
  H   H2510     1.0  0.81472  0.80487  0.34150  1.0000
  H   H2511     1.0  0.98202  0.75312  0.11144  1.0000
  H   H2512     1.0  0.83537  0.62261  0.02533  1.0000
  H   H2513     1.0  0.97843  0.67245  0.24487  1.0000
  H   H2514     1.0  0.95647  0.69952  0.15006  1.0000
  H   H2515     1.0  0.84790  0.53946  0.15322  1.0000
  S   S336      1.0  0.92627  0.85194  0.12014  1.0000
  N   N80       1.0  0.83022  0.58414  0.00483  1.0000
  H   H2516     1.0  0.77986  0.56875  0.11286  1.0000
  H   H2517     1.0  0.93420  0.91372  0.16261  1.0000
  H   H2518     1.0  0.85443  0.54280  0.19101  1.0000
  H   H2519     1.0  0.77933  0.84647  0.20031  1.0000
  C   C1421     1.0  0.82933  0.92423  0.14186  1.0000
  H   H2520     1.0  0.88226  0.55254  0.33711  1.0000
  C   C1422     1.0  0.81410  0.54968  0.32210  1.0000
  C   C1423     1.0  0.89981  0.80271  0.29331  1.0000
  C   C1424     1.0  0.88796  0.78812  0.27219  1.0000
  C   C1425     1.0  0.85933  0.79295  0.26603  1.0000
  C   C1426     1.0  0.84223  0.81256  0.28071  1.0000
  C   C1427     1.0  0.85405  0.82729  0.30167  1.0000
  C   C1428     1.0  0.88252  0.82211  0.30820  1.0000
  H   H2521     1.0  0.90063  0.77263  0.26100  1.0000
  H   H2522     1.0  0.85037  0.78114  0.25001  1.0000
  H   H2523     1.0  0.84102  0.84195  0.31345  1.0000
  H   H2524     1.0  0.89127  0.83304  0.32501  1.0000
  N   N81       1.0  0.89582  0.72162  0.34818  1.0000
  C   C1429     1.0  0.86482  0.71826  0.34639  1.0000
  C   C1430     1.0  0.90821  0.69838  0.36852  1.0000
  C   C1431     1.0  0.89941  0.74891  0.36163  1.0000
  C   C1432     1.0  0.91087  0.72206  0.31882  1.0000
  C   C1433     1.0  0.89915  0.70485  0.29526  1.0000
  C   C1434     1.0  0.84814  0.74269  0.32958  1.0000
  C   C1435     1.0  0.93002  0.75575  0.36739  1.0000
  C   C1436     1.0  0.90952  0.66855  0.35806  1.0000
  C   C1437     1.0  0.92132  0.64747  0.38173  1.0000
  C   C1438     1.0  0.92020  0.70200  0.26982  1.0000
  C   C1439     1.0  0.82006  0.73395  0.31972  1.0000
  C   C1440     1.0  0.93136  0.78529  0.37730  1.0000
  H   H2525     1.0  0.85497  0.71629  0.36864  1.0000
  H   H2526     1.0  0.86079  0.69851  0.33674  1.0000
  H   H2527     1.0  0.93038  0.70177  0.37272  1.0000
  H   H2528     1.0  0.89662  0.69808  0.38990  1.0000
  H   H2529     1.0  0.88719  0.74967  0.38262  1.0000
  H   H2530     1.0  0.89083  0.76676  0.34716  1.0000
  H   H2531     1.0  0.91148  0.74371  0.30875  1.0000
  H   H2532     1.0  0.93310  0.71490  0.32175  1.0000
  H   H2533     1.0  0.87973  0.71548  0.28636  1.0000
  H   H2534     1.0  0.89404  0.68360  0.30370  1.0000
  H   H2535     1.0  0.84397  0.76017  0.34385  1.0000
  H   H2536     1.0  0.86009  0.75085  0.31019  1.0000
  H   H2537     1.0  0.94365  0.75376  0.34765  1.0000
  H   H2538     1.0  0.93937  0.74159  0.38488  1.0000
  H   H2539     1.0  0.88856  0.66236  0.35261  1.0000
  H   H2540     1.0  0.92392  0.66716  0.33872  1.0000
  H   H2541     1.0  0.94155  0.65392  0.38931  1.0000
  H   H2542     1.0  0.90627  0.64557  0.40059  1.0000
  H   H2543     1.0  0.92527  0.62673  0.37293  1.0000
  H   H2544     1.0  0.91053  0.69181  0.25218  1.0000
  H   H2545     1.0  0.92646  0.72290  0.26092  1.0000
  H   H2546     1.0  0.93916  0.68921  0.27701  1.0000
  H   H2547     1.0  0.82345  0.71769  0.30381  1.0000
  H   H2548     1.0  0.80732  0.72561  0.33863  1.0000
  H   H2549     1.0  0.80836  0.75232  0.30886  1.0000
  H   H2550     1.0  0.92062  0.80116  0.36216  1.0000
  S   S337      1.0  0.86792  0.59329  0.43401  1.0000
  H   H2551     1.0  0.95356  0.79046  0.37833  1.0000
  N   N82       1.0  0.82199  0.82452  0.42839  1.0000
  H   H2552     1.0  0.80304  0.95453  0.26812  1.0000
  C   C1441     1.0  0.79373  0.82729  0.44411  1.0000
  C   C1442     1.0  0.81912  0.80784  0.40222  1.0000
  C   C1443     1.0  0.83181  0.85270  0.41751  1.0000
  C   C1444     1.0  0.83713  0.87309  0.44071  1.0000
  C   C1445     1.0  0.87267  0.80248  0.43489  1.0000
  C   C1446     1.0  0.79450  0.81732  0.38199  1.0000
  H   H2553     1.0  0.96552  0.68956  0.09757  1.0000
  H   H2554     1.0  0.74869  0.59505  0.14717  1.0000
  C   C1447     1.0  0.85036  0.89924  0.42701  1.0000
  C   C1448     1.0  0.88944  0.93037  0.27733  1.0000
  C   C1449     1.0  0.79595  0.80016  0.35533  1.0000
  C   C1450     1.0  0.80234  0.58684  0.99019  1.0000
  C   C1451     1.0  0.87455  0.91861  0.00578  1.0000
  H   H2555     1.0  0.78059  0.84507  0.43384  1.0000
  H   H2556     1.0  0.76791  0.70171  0.46158  1.0000
  H   H2557     1.0  0.81670  0.78537  0.40933  1.0000
  H   H2558     1.0  0.83843  0.80837  0.38801  1.0000
  H   H2559     1.0  0.85135  0.85008  0.40386  1.0000
  H   H2560     1.0  0.81606  0.86402  0.40314  1.0000
  H   H2561     1.0  0.75855  0.50819  0.19807  1.0000
  C   C1452     1.0  0.94044  0.93772  0.26228  1.0000
  H   H2562     1.0  0.87242  0.79156  0.41460  1.0000
  H   H2563     1.0  0.88326  0.82226  0.43032  1.0000
  H   H2564     1.0  0.79512  0.83959  0.37404  1.0000
  H   H2565     1.0  0.77397  0.81428  0.39336  1.0000
  C   C1453     1.0  0.80648  0.97083  0.22396  1.0000
  H   H2566     1.0  0.94437  0.55961  0.19167  1.0000
  H   H2567     1.0  0.84028  0.90415  0.28051  1.0000
  H   H2568     1.0  0.88043  0.76300  0.45981  1.0000
  H   H2569     1.0  0.95502  0.95328  0.25287  1.0000
  H   H2570     1.0  0.85365  0.91349  0.44426  1.0000
  H   H2571     1.0  0.87104  0.89365  0.41650  1.0000
  H   H2572     1.0  0.83634  0.91045  0.41071  1.0000
  H   H2573     1.0  0.93316  0.93404  0.01239  1.0000
  H   H2574     1.0  0.96272  0.96884  0.02966  1.0000
  C   C1454     1.0  0.92706  0.71187  0.43904  1.0000
  H   H2575     1.0  0.77720  0.80527  0.34205  1.0000
  H   H2576     1.0  0.79706  0.77749  0.36195  1.0000
  H   H2577     1.0  0.76199  0.89435  0.39140  1.0000
  N   N83       1.0  0.93497  0.64666  0.17519  1.0000
  C   C1455     1.0  0.95732  0.65351  0.19530  1.0000
  C   C1456     1.0  0.94322  0.65732  0.14460  1.0000
  C   C1457     1.0  0.90738  0.66023  0.18517  1.0000
  C   C1458     1.0  0.95432  0.64102  0.22724  1.0000
  C   C1459     1.0  0.88249  0.65759  0.16509  1.0000
  C   C1460     1.0  0.94054  0.68950  0.13815  1.0000
  C   C1461     1.0  0.94460  0.69732  0.10567  1.0000
  H   H2578     1.0  0.84872  0.93538  0.23977  1.0000
  C   C1462     1.0  0.85925  0.67960  0.17095  1.0000
  H   H2579     1.0  0.95774  0.67661  0.19605  1.0000
  H   H2580     1.0  0.97853  0.64680  0.18670  1.0000
  H   H2581     1.0  0.93113  0.64759  0.12828  1.0000
  H   H2582     1.0  0.90958  0.68261  0.18898  1.0000
  H   H2583     1.0  0.90055  0.65091  0.20686  1.0000
  H   H2584     1.0  0.93430  0.64861  0.23758  1.0000
  H   H2585     1.0  0.95514  0.61788  0.22838  1.0000
  H   H2586     1.0  0.88826  0.66036  0.14163  1.0000
  H   H2587     1.0  0.91960  0.69875  0.14442  1.0000
  H   H2588     1.0  0.95599  0.94774  0.98365  1.0000
  H   H2589     1.0  0.87484  0.58023  0.15880  1.0000
  H   H2590     1.0  0.84977  0.51743  0.37961  1.0000
  H   H2591     1.0  0.88837  0.89218  0.20533  1.0000
  H   H2592     1.0  0.77277  0.50369  0.24634  1.0000
  H   H2593     1.0  0.86710  0.93315  0.17891  1.0000
  H   H2594     1.0  0.84135  0.67717  0.15705  1.0000
  H   H2595     1.0  0.85199  0.67785  0.19413  1.0000
  H   H2596     1.0  0.86712  0.70051  0.16555  1.0000
  H   H2597     1.0  0.84837  0.59431  0.18343  1.0000
  Fe  Fe165     1.0  0.97924  0.77449  0.29877  1.0000
  H   H2598     1.0  0.80760  0.69476  0.01778  1.0000
  C   C1463     1.0  0.84339  0.61177  0.00586  1.0000
  H   H2599     1.0  0.93417  0.93875  0.38293  1.0000
  H   H2600     1.0  0.85153  0.86321  0.45718  1.0000
  N   N84       1.0  0.82735  0.77315  0.04401  1.0000
  C   C1464     1.0  0.85284  0.76024  0.05943  1.0000
  H   H2601     1.0  0.97537  0.60012  0.18441  1.0000
  H   H2602     1.0  0.92734  0.68982  0.43334  1.0000
  C   C1465     1.0  0.81072  0.75149  0.03149  1.0000
  C   C1466     1.0  0.82547  0.73479  0.00735  1.0000
  C   C1467     1.0  0.84723  0.73923  0.08569  1.0000
  H   H2603     1.0  0.94677  0.93099  0.28482  1.0000
  C   C1468     1.0  0.86462  0.78912  0.00425  1.0000
  Fe  Fe166     1.0  0.75319  0.63759  0.09127  1.0000
  H   H2604     1.0  0.87972  0.96268  0.31741  1.0000
  C   C1469     1.0  0.87466  0.72659  0.09827  1.0000
  H   H2605     1.0  0.88887  0.91194  0.26403  1.0000
  H   H2606     1.0  0.86486  0.77704  0.06750  1.0000
  H   H2607     1.0  0.86742  0.74907  0.04437  1.0000
  C   C1470     1.0  0.80783  0.71118  0.99963  1.0000
  H   H2608     1.0  0.89870  0.94608  0.42257  1.0000
  H   H2609     1.0  0.74629  0.88726  0.11101  1.0000
  H   H2610     1.0  0.79643  0.82924  0.04794  1.0000
  H   H2611     1.0  0.80289  0.73641  0.04894  1.0000
  H   H2612     1.0  0.96880  0.59285  0.45175  1.0000
  H   H2613     1.0  0.84611  0.72519  0.01415  1.0000
  H   H2614     1.0  0.78582  0.87932  0.21397  1.0000
  H   H2615     1.0  0.83495  0.74929  0.10339  1.0000
  H   H2616     1.0  0.83575  0.72187  0.07872  1.0000
  H   H2617     1.0  0.91786  0.76818  0.06754  1.0000
  H   H2618     1.0  0.80756  0.94659  0.08817  1.0000
  H   H2619     1.0  0.88184  0.79223  0.01888  1.0000
  H   H2620     1.0  0.86766  0.76765  0.99720  1.0000
  H   H2621     1.0  0.88736  0.48878  0.40272  1.0000
  H   H2622     1.0  0.90813  0.51868  0.39540  1.0000
  H   H2623     1.0  0.77847  0.50330  0.13803  1.0000
  C   C1471     1.0  0.97788  0.64934  0.24563  1.0000
  C   C1472     1.0  0.86788  0.80923  0.97739  1.0000
  H   H2624     1.0  0.97393  0.78436  0.09000  1.0000
  H   H2625     1.0  0.87008  0.70975  0.11515  1.0000
  H   H2626     1.0  0.88810  0.71717  0.08099  1.0000
  H   H2627     1.0  0.89898  0.58690  0.10920  1.0000
  H   H2628     1.0  0.81618  0.88156  0.33105  1.0000
  H   H2629     1.0  0.78150  0.90243  0.01718  1.0000
  H   H2630     1.0  0.81324  0.55298  0.03567  1.0000
  H   H2631     1.0  0.79955  0.56102  0.15902  1.0000
  H   H2632     1.0  0.80469  0.95024  0.21495  1.0000
  H   H2633     1.0  0.84062  0.59162  0.14574  1.0000
  C   C1473     1.0  0.81045  0.55272  0.17904  1.0000
  C   C1474     1.0  0.84243  0.55198  0.17213  1.0000
  C   C1475     1.0  0.85210  0.58135  0.16454  1.0000
  H   H2634     1.0  0.75804  0.88884  0.97489  1.0000
  S   S338      1.0  0.95577  0.58678  0.08578  1.0000
  H   H2635     1.0  0.96545  0.65067  0.13931  1.0000
  H   H2636     1.0  0.87394  0.63672  0.16928  1.0000
  C   C1476     1.0  0.79591  0.86068  0.20419  1.0000
  H   H2637     1.0  0.79559  0.88116  0.16149  1.0000
  H   H2638     1.0  0.81190  0.58702  0.04844  1.0000
  C   C1477     1.0  0.91981  0.80533  0.09057  1.0000
  C   C1478     1.0  0.93462  0.80158  0.03980  1.0000
  S   S339      1.0  0.75264  0.93168  0.06606  1.0000
  H   H2639     1.0  0.85512  0.83111  0.10603  1.0000
  C   C1479     1.0  0.81107  0.86945  0.17562  1.0000
  H   H2640     1.0  0.86762  0.86094  0.14450  1.0000
  H   H2641     1.0  0.78093  0.58365  0.32309  1.0000
  H   H2642     1.0  0.91634  0.61129  0.15933  1.0000
  C   C1480     1.0  0.95309  0.56671  0.16990  1.0000
  H   H2643     1.0  0.78004  0.54362  0.44737  1.0000
  H   H2644     1.0  0.74778  0.83243  0.06701  1.0000
  C   C1481     1.0  0.95885  0.59765  0.16872  1.0000
  H   H2645     1.0  0.81505  0.59560  0.31415  1.0000
  H   H2646     1.0  0.85113  0.87183  0.19255  1.0000
  H   H2647     1.0  0.81097  0.91525  0.13289  1.0000
  H   H2648     1.0  0.82004  0.93731  0.15918  1.0000
  S   S340      1.0  0.75204  0.86006  0.32460  1.0000
  H   H2649     1.0  0.88603  0.74269  0.10827  1.0000
  C   C1482     1.0  0.74939  0.93187  0.10499  1.0000
  H   H2650     1.0  0.87169  0.85618  0.08093  1.0000
  H   H2651     1.0  0.81892  0.86832  0.11899  1.0000
  H   H2652     1.0  0.76377  0.81849  0.16563  1.0000
  N   N85       1.0  0.79919  0.52541  0.19096  1.0000
  C   C1483     1.0  0.83597  0.88702  0.18114  1.0000
  H   H2653     1.0  0.82900  0.90251  0.19717  1.0000
  H   H2654     1.0  0.90516  0.95541  0.23882  1.0000
  C   C1484     1.0  0.84811  0.95306  0.25421  1.0000
  C   C1485     1.0  0.83935  0.87439  0.10952  1.0000
  H   H2655     1.0  0.83520  0.89286  0.09403  1.0000
  C   C1486     1.0  0.85152  0.85061  0.09178  1.0000
  C   C1487     1.0  0.74960  0.95638  0.11954  1.0000
  H   H2656     1.0  0.96698  0.60362  0.14650  1.0000
  H   H2657     1.0  0.76616  0.56970  0.42083  1.0000
  C   C1488     1.0  0.86006  0.88108  0.13294  1.0000
  H   H2658     1.0  0.80674  0.52569  0.12999  1.0000
  H   H2659     1.0  0.82816  0.74874  0.98728  1.0000
  H   H2660     1.0  0.85469  0.93004  0.99918  1.0000
  H   H2661     1.0  0.76100  0.89604  0.44528  1.0000
  C   C1489     1.0  0.77617  0.54827  0.42390  1.0000
  H   H2662     1.0  0.77057  0.58968  0.02518  1.0000
  C   C1490     1.0  0.92386  0.91099  0.18453  1.0000
  C   C1491     1.0  0.76767  0.52839  0.19099  1.0000
  H   H2663     1.0  0.76027  0.53345  0.16853  1.0000
  H   H2664     1.0  0.83674  0.84681  0.07472  1.0000
  H   H2665     1.0  0.93821  0.89757  0.19885  1.0000
  S   S341      1.0  0.74566  0.49487  0.35562  1.0000
  C   C1492     1.0  0.76772  0.79636  0.16061  1.0000
  H   H2666     1.0  0.86633  0.60818  0.00916  1.0000
  H   H2667     1.0  0.79133  0.76149  0.02182  1.0000
  H   H2668     1.0  0.87868  0.88879  0.12041  1.0000
  S   S342      1.0  0.77649  0.68411  0.39918  1.0000
  H   H2669     1.0  0.92019  0.93160  0.19380  1.0000
  H   H2670     1.0  0.90117  0.87703  0.17241  1.0000
  C   C1493     1.0  0.87442  0.91588  0.16509  1.0000
  C   C1494     1.0  0.89634  0.89692  0.18266  1.0000
  H   H2671     1.0  0.83209  0.57368  0.09537  1.0000
  H   H2672     1.0  0.77160  0.82342  0.09615  1.0000
  H   H2673     1.0  0.97447  0.64145  0.26867  1.0000
  C   C1495     1.0  0.84220  0.94444  0.11779  1.0000
  C   C1496     1.0  0.88650  0.59543  0.34444  1.0000
  Fe  Fe167     1.0  0.98235  0.79232  0.19350  1.0000
  H   H2674     1.0  0.90995  0.72455  0.42781  1.0000
  H   H2675     1.0  0.85648  0.51595  0.34181  1.0000
  C   C1497     1.0  0.86096  0.65508  0.97749  1.0000
  H   H2676     1.0  0.85283  0.89462  0.04020  1.0000
  C   C1498     1.0  0.97676  0.86030  0.34924  1.0000
  C   C1499     1.0  0.80100  0.57879  0.31122  1.0000
  H   H2677     1.0  0.96200  0.94091  0.40783  1.0000
  C   C1500     1.0  0.79850  0.54988  0.37314  1.0000
  H   H2678     1.0  0.78279  0.53527  0.36806  1.0000
  C   C1501     1.0  0.82521  0.57208  0.03569  1.0000
  C   C1502     1.0  0.86864  0.57211  0.33659  1.0000
  H   H2679     1.0  0.78759  0.57082  0.36928  1.0000
  H   H2680     1.0  0.81388  0.52453  0.41186  1.0000
  H   H2681     1.0  0.78558  0.62245  0.01475  1.0000
  C   C1503     1.0  0.79502  0.57978  0.27883  1.0000
  H   H2682     1.0  0.81716  0.70160  0.98014  1.0000
  H   H2683     1.0  0.78208  0.80819  0.44217  1.0000
  C   C1504     1.0  0.84405  0.55608  0.08537  1.0000
  C   C1505     1.0  0.80380  0.54549  0.40621  1.0000
  H   H2684     1.0  0.74709  0.76546  0.13925  1.0000
  H   H2685     1.0  0.87394  0.61571  0.34337  1.0000
  H   H2686     1.0  0.83158  0.54378  0.30673  1.0000
  C   C1506     1.0  0.84332  0.56926  0.35833  1.0000
  H   H2687     1.0  0.95469  0.62398  0.96955  1.0000
  H   H2688     1.0  0.78498  0.79509  0.14391  1.0000
  H   H2689     1.0  0.82164  0.90669  0.35721  1.0000
  C   C1507     1.0  0.84285  0.80833  0.44796  1.0000
  H   H2690     1.0  0.86108  0.96910  0.24287  1.0000
  H   H2691     1.0  0.82094  0.79774  0.08170  1.0000
  H   H2692     1.0  0.81490  0.57920  0.26564  1.0000
  C   C1508     1.0  0.81976  0.96093  0.09976  1.0000
  H   H2693     1.0  0.81945  0.79907  0.00415  1.0000
  H   H2694     1.0  0.88211  0.64488  0.97357  1.0000
  H   H2695     1.0  0.92472  0.92732  0.46400  1.0000
  H   H2696     1.0  0.79486  0.56576  0.98752  1.0000
  C   C1509     1.0  0.80842  0.78717  0.06636  1.0000
  H   H2697     1.0  0.78258  0.59945  0.27235  1.0000
  C   C1510     1.0  0.77719  0.88026  0.01604  1.0000
  H   H2698     1.0  0.83227  0.49767  0.17382  1.0000
  C   C1511     1.0  0.93718  0.95267  0.99757  1.0000
  H   H2699     1.0  0.75431  0.72618  0.35780  1.0000
  C   C1512     1.0  0.83608  0.79493  0.02056  1.0000
  H   H2700     1.0  0.91160  0.77941  0.44758  1.0000
  H   H2701     1.0  0.86338  0.55067  0.09773  1.0000
  H   H2702     1.0  0.81785  0.64469  0.98190  1.0000
  Fe  Fe168     1.0  0.76776  0.64520  0.42795  1.0000
  H   H2703     1.0  0.94244  0.72037  0.10182  1.0000
  H   H2704     1.0  0.82131  0.92788  0.30249  1.0000
  H   H2705     1.0  0.81081  0.84956  0.21966  1.0000
  H   H2706     1.0  0.91403  0.90235  0.98684  1.0000
  C   C1513     1.0  0.95469  0.63490  0.98983  1.0000
  C   C1514     1.0  0.83928  0.51875  0.35841  1.0000
  H   H2707     1.0  0.80863  0.53772  0.23378  1.0000
  C   C1515     1.0  0.78622  0.80954  0.05400  1.0000
  H   H2708     1.0  0.83118  0.53763  0.08678  1.0000
  C   C1516     1.0  0.77241  0.96306  0.39589  1.0000
  H   H2709     1.0  0.92847  0.68822  0.09327  1.0000
  C   C1517     1.0  0.79438  0.49586  0.24027  1.0000
  H   H2710     1.0  0.79708  0.77123  0.08026  1.0000
  H   H2711     1.0  0.96377  0.74516  0.06236  1.0000
  H   H2712     1.0  0.79767  0.53480  0.31949  1.0000
  H   H2713     1.0  0.77225  0.87157  0.03845  1.0000
  H   H2714     1.0  0.81178  0.49226  0.33650  1.0000
  H   H2715     1.0  0.91189  0.79573  0.11096  1.0000
  H   H2716     1.0  0.75039  0.75322  0.23987  1.0000
  H   H2717     1.0  0.75542  0.76108  0.34227  1.0000
  C   C1518     1.0  0.83214  0.89061  0.34382  1.0000
  S   S343      1.0  0.96801  0.83785  0.19042  1.0000
  H   H2718     1.0  0.88622  0.87850  0.02893  1.0000
  H   H2719     1.0  0.83372  0.95560  0.34049  1.0000
  H   H2720     1.0  0.84191  0.87370  0.35841  1.0000
  H   H2721     1.0  0.86578  0.58154  0.05274  1.0000
  H   H2722     1.0  0.83453  0.78778  0.45535  1.0000
  C   C1519     1.0  0.92310  0.78979  0.06594  1.0000
  H   H2723     1.0  0.98997  0.84517  0.27826  1.0000
  C   C1520     1.0  0.75773  0.56567  0.11408  1.0000
  C   C1521     1.0  0.84969  0.56336  0.98979  1.0000
  H   H2724     1.0  0.81766  0.56110  0.41328  1.0000
  H   H2725     1.0  0.83850  0.81519  0.03014  1.0000
  H   H2726     1.0  0.86727  0.91634  0.33703  1.0000
  N   N86       1.0  0.82383  0.54692  0.35300  1.0000
  S   S344      1.0  0.94232  0.78017  0.01080  1.0000
  H   H2727     1.0  0.88433  0.93068  0.02186  1.0000
  C   C1522     1.0  0.85178  0.56404  0.05357  1.0000
  H   H2728     1.0  0.81706  0.88028  0.45135  1.0000
  C   C1523     1.0  0.92812  0.94964  0.45748  1.0000
  H   H2729     1.0  0.86359  0.54554  0.04513  1.0000
  H   H2730     1.0  0.78592  0.71895  0.99513  1.0000
  C   C1524     1.0  0.75363  0.61118  0.98671  1.0000
  H   H2731     1.0  0.92158  0.78666  0.39921  1.0000
  C   C1525     1.0  0.76284  0.81592  0.07638  1.0000
  Fe  Fe169     1.0  0.76532  0.50152  0.03401  1.0000
  H   H2732     1.0  0.75158  0.85527  0.99294  1.0000
  S   S345      1.0  0.77068  0.52945  0.07138  1.0000
  H   H2733     1.0  0.78279  0.56196  0.27418  1.0000
  H   H2734     1.0  0.96762  0.67228  0.00665  1.0000
  C   C1526     1.0  0.83876  0.63347  0.97949  1.0000
  H   H2735     1.0  0.79632  0.86900  0.00733  1.0000
  H   H2736     1.0  0.86869  0.53213  0.42739  1.0000
  C   C1527     1.0  0.97023  0.66191  0.98588  1.0000
  H   H2737     1.0  0.86177  0.57730  0.31399  1.0000
  C   C1528     1.0  0.89457  0.91410  0.97906  1.0000
  H   H2738     1.0  0.83170  0.59004  0.35859  1.0000
  H   H2739     1.0  0.94739  0.72037  0.43169  1.0000
  H   H2740     1.0  0.92039  0.97511  0.41599  1.0000
  Fe  Fe170     1.0  0.97959  0.85204  0.42865  1.0000
  H   H2741     1.0  0.95614  0.70390  0.96945  1.0000
  H   H2742     1.0  0.97295  0.55421  0.16578  1.0000
  H   H2743     1.0  0.93816  0.56294  0.15290  1.0000
  H   H2744     1.0  0.86894  0.88580  0.31657  1.0000
  H   H2745     1.0  0.76270  0.55154  0.23097  1.0000
  C   C1529     1.0  0.98883  0.76595  0.09169  1.0000
  H   H2746     1.0  0.81184  0.50623  0.28073  1.0000
  H   H2747     1.0  0.89920  0.92212  0.29800  1.0000
  S   S346      1.0  0.79497  0.50493  0.99476  1.0000
  C   C1530     1.0  0.77837  0.60318  0.00640  1.0000
  C   C1531     1.0  0.83572  0.97283  0.32328  1.0000
  H   H2748     1.0  0.76257  0.75758  0.39589  1.0000
  C   C1532     1.0  0.86706  0.89070  0.02118  1.0000
  C   C1533     1.0  0.75355  0.76755  0.25713  1.0000
  H   H2749     1.0  0.98069  0.87852  0.09976  1.0000
  H   H2750     1.0  0.77448  0.78388  0.18068  1.0000
  H   H2751     1.0  0.87063  0.56158  0.99974  1.0000
  H   H2752     1.0  0.93263  0.63954  0.99717  1.0000
  C   C1534     1.0  0.81797  0.96695  0.25464  1.0000
  H   H2753     1.0  0.80456  0.49329  0.37491  1.0000
  S   S347      1.0  0.80324  0.64927  0.45819  1.0000
  H   H2754     1.0  0.93850  0.91278  0.41279  1.0000
  C   C1535     1.0  0.80914  0.50170  0.17270  1.0000
  C   C1536     1.0  0.90110  0.50297  0.41256  1.0000
  S   S348      1.0  0.98515  0.72794  0.30387  1.0000
  H   H2755     1.0  0.74503  0.59214  0.97918  1.0000
  C   C1537     1.0  0.86159  0.96662  0.30282  1.0000
  C   C1538     1.0  0.91036  0.95057  0.26198  1.0000
  H   H2756     1.0  0.98452  0.67643  0.43385  1.0000
  H   H2757     1.0  0.75728  0.57249  0.19760  1.0000
  C   C1539     1.0  0.88555  0.51783  0.43712  1.0000
  H   H2758     1.0  0.98651  0.82807  0.09218  1.0000
  C   C1540     1.0  0.91157  0.96196  0.97864  1.0000
  H   H2759     1.0  0.81592  0.97523  0.31145  1.0000
  C   C1541     1.0  0.80957  0.48760  0.26850  1.0000
  C   C1542     1.0  0.99179  0.85242  0.32401  1.0000
  H   H2760     1.0  0.98588  0.61960  0.36156  1.0000
  H   H2761     1.0  0.98377  0.86482  0.13710  1.0000
  C   C1543     1.0  0.98608  0.74844  0.06555  1.0000
  C   C1544     1.0  0.74471  0.92996  0.16722  1.0000
  C   C1545     1.0  0.74741  0.95538  0.15032  1.0000
  C   C1546     1.0  0.74688  0.54774  0.09515  1.0000
  C   C1547     1.0  0.81658  0.48257  0.12289  1.0000
  H   H2762     1.0  0.91986  0.49053  0.42100  1.0000
  H   H2763     1.0  0.89431  0.97016  0.99310  1.0000
  H   H2764     1.0  0.80036  0.48188  0.18157  1.0000
  C   C1548     1.0  0.94787  0.59494  0.46134  1.0000
  H   H2765     1.0  0.74768  0.97457  0.16112  1.0000
  C   C1549     1.0  0.75393  0.55180  0.20910  1.0000
  H   H2766     1.0  0.81002  0.48512  0.09992  1.0000
  H   H2767     1.0  0.82977  0.97541  0.08319  1.0000
  H   H2768     1.0  0.80544  0.97347  0.11392  1.0000
  C   C1550     1.0  0.94434  0.97591  0.01638  1.0000
  H   H2769     1.0  0.90070  0.53079  0.44656  1.0000
  C   C1551     1.0  0.74286  0.74693  0.35678  1.0000
  C   C1552     1.0  0.87247  0.49659  0.45993  1.0000
  C   C1553     1.0  0.89693  0.59801  0.45571  1.0000
  H   H2770     1.0  0.83960  0.48431  0.12303  1.0000
  H   H2771     1.0  0.85410  0.48933  0.44925  1.0000
  Fe  Fe171     1.0  0.97247  0.72190  0.65475  1.0000
  S   S349      1.0  0.94775  0.71225  0.69575  1.0000
  S   S350      1.0  0.94742  0.75155  0.62421  1.0000
  S   S351      1.0  0.89644  0.88182  0.49274  1.0000
  Fe  Fe172     1.0  0.96667  0.66866  0.69305  1.0000
  S   S352      1.0  0.94111  0.62960  0.69683  1.0000
  C   C1554     1.0  0.77025  0.71691  0.47728  1.0000
  Fe  Fe173     1.0  0.77905  0.59545  0.70030  1.0000
  S   S353      1.0  0.79367  0.55028  0.70666  1.0000
  S   S354      1.0  0.80756  0.63180  0.69450  1.0000
  H   H2772     1.0  0.83317  0.51793  0.79729  1.0000
  H   H2773     1.0  0.87919  0.60071  0.77970  1.0000
  S   S355      1.0  0.74832  0.59363  0.73869  1.0000
  H   H2774     1.0  0.79924  0.81418  0.88724  1.0000
  H   H2775     1.0  0.78579  0.93012  0.75275  1.0000
  H   H2776     1.0  0.90461  0.54206  0.61298  1.0000
  C   C1555     1.0  0.92336  0.71361  0.47175  1.0000
  H   H2777     1.0  0.89936  0.74769  0.51286  1.0000
  Fe  Fe174     1.0  0.76361  0.96579  0.95942  1.0000
  H   H2778     1.0  0.83627  0.57296  0.94442  1.0000
  H   H2779     1.0  0.76224  0.66334  0.72345  1.0000
  H   H2780     1.0  0.95160  0.92653  0.50447  1.0000
  H   H2781     1.0  0.97799  0.85718  0.57642  1.0000
  Fe  Fe175     1.0  0.83045  0.77483  0.78305  1.0000
  S   S356      1.0  0.79157  0.76780  0.75968  1.0000
  S   S357      1.0  0.87197  0.75325  0.76837  1.0000
  Fe  Fe176     1.0  0.80167  0.82625  0.81074  1.0000
  S   S358      1.0  0.76092  0.82229  0.78917  1.0000
  S   S359      1.0  0.81655  0.86315  0.83310  1.0000
  Fe  Fe177     1.0  0.76710  0.77521  0.80157  1.0000
  Fe  Fe178     1.0  0.78774  0.81425  0.74880  1.0000
  S   S360      1.0  0.78443  0.82828  0.70039  1.0000
  S   S361      1.0  0.80715  0.78043  0.82570  1.0000
  S   S362      1.0  0.82766  0.82063  0.76978  1.0000
  Fe  Fe179     1.0  0.93188  0.83081  0.91411  1.0000
  S   S363      1.0  0.93745  0.78536  0.92812  1.0000
  H   H2782     1.0  0.81794  0.58452  0.49091  1.0000
  S   S364      1.0  0.96704  0.83544  0.51232  1.0000
  H   H2783     1.0  0.81354  0.90828  0.79228  1.0000
  Fe  Fe180     1.0  0.93843  0.85956  0.48077  1.0000
  C   C1556     1.0  0.75310  0.53888  0.58697  1.0000
  H   H2784     1.0  0.85123  0.58585  0.69282  1.0000
  S   S365      1.0  0.97174  0.66929  0.81682  1.0000
  H   H2785     1.0  0.91180  0.64186  0.78940  1.0000
  C   C1557     1.0  0.88819  0.51952  0.50272  1.0000
  H   H2786     1.0  0.85932  0.68909  0.90917  1.0000
  S   S366      1.0  0.77697  0.87018  0.55829  1.0000
  H   H2787     1.0  0.93646  0.67768  0.95809  1.0000
  H   H2788     1.0  0.84565  0.67516  0.69457  1.0000
  C   C1558     1.0  0.78290  0.61844  0.80402  1.0000
  H   H2789     1.0  0.98713  0.63937  0.93646  1.0000
  H   H2790     1.0  0.74432  0.56484  0.82382  1.0000
  H   H2791     1.0  0.91517  0.74237  0.89600  1.0000
  H   H2792     1.0  0.77058  0.67077  0.87301  1.0000
  H   H2793     1.0  0.86869  0.58766  0.95303  1.0000
  S   S367      1.0  0.89326  0.84815  0.89099  1.0000
  H   H2794     1.0  0.89752  0.67521  0.69507  1.0000
  H   H2795     1.0  0.74474  0.88518  0.74862  1.0000
  N   N87       1.0  0.86384  0.50761  0.48894  1.0000
  S   S368      1.0  0.76542  0.84515  0.92964  1.0000
  Fe  Fe181     1.0  0.74412  0.84025  0.57532  1.0000
  H   H2796     1.0  0.93420  0.68112  0.88686  1.0000
  H   H2797     1.0  0.95479  0.95784  0.52277  1.0000
  S   S369      1.0  0.97341  0.83191  0.88987  1.0000
  H   H2798     1.0  0.95963  0.89803  0.90545  1.0000
  H   H2799     1.0  0.83192  0.67788  0.83423  1.0000
  C   C1559     1.0  0.80535  0.71796  0.90916  1.0000
  H   H2800     1.0  0.79870  0.57672  0.52464  1.0000
  H   H2801     1.0  0.91098  0.91180  0.79241  1.0000
  H   H2802     1.0  0.86461  0.59673  0.82710  1.0000
  Fe  Fe182     1.0  0.95615  0.80048  0.96754  1.0000
  H   H2803     1.0  0.76517  0.83469  0.51390  1.0000
  C   C1560     1.0  0.87504  0.95190  0.94569  1.0000
  H   H2804     1.0  0.86383  0.51026  0.77476  1.0000
  H   H2805     1.0  0.87151  0.92972  0.56424  1.0000
  C   C1561     1.0  0.74745  0.54699  0.86832  1.0000
  C   C1562     1.0  0.94417  0.59449  0.49165  1.0000
  S   S370      1.0  0.74639  0.58889  0.66752  1.0000
  H   H2806     1.0  0.75810  0.69450  0.93283  1.0000
  H   H2807     1.0  0.98581  0.80609  0.62028  1.0000
  H   H2808     1.0  0.93484  0.89218  0.87845  1.0000
  C   C1563     1.0  0.86406  0.87571  0.51191  1.0000
  C   C1564     1.0  0.85676  0.84968  0.52504  1.0000
  C   C1565     1.0  0.82999  0.84689  0.53924  1.0000
  C   C1566     1.0  0.81063  0.87021  0.54028  1.0000
  C   C1567     1.0  0.81818  0.89569  0.52677  1.0000
  C   C1568     1.0  0.84442  0.89847  0.51284  1.0000
  H   H2809     1.0  0.87168  0.83194  0.52417  1.0000
  H   H2810     1.0  0.82442  0.82703  0.54959  1.0000
  H   H2811     1.0  0.80324  0.91351  0.52675  1.0000
  C   C1569     1.0  0.87110  0.64947  0.89213  1.0000
  C   C1570     1.0  0.85933  0.84235  0.90566  1.0000
  C   C1571     1.0  0.84171  0.82577  0.89164  1.0000
  C   C1572     1.0  0.81296  0.82567  0.89937  1.0000
  C   C1573     1.0  0.80172  0.84217  0.92119  1.0000
  C   C1574     1.0  0.81961  0.85762  0.93622  1.0000
  C   C1575     1.0  0.84820  0.85804  0.92817  1.0000
  H   H2812     1.0  0.84975  0.81455  0.87337  1.0000
  H   H2813     1.0  0.77381  0.66014  0.92816  1.0000
  C   C1576     1.0  0.97667  0.57019  0.77897  1.0000
  C   C1577     1.0  0.93758  0.92402  0.54893  1.0000
  C   C1578     1.0  0.89903  0.72986  0.78318  1.0000
  C   C1579     1.0  0.92420  0.72663  0.76689  1.0000
  C   C1580     1.0  0.94635  0.70803  0.77677  1.0000
  C   C1581     1.0  0.94391  0.69257  0.80336  1.0000
  C   C1582     1.0  0.91830  0.69493  0.81939  1.0000
  C   C1583     1.0  0.89605  0.71376  0.80961  1.0000
  H   H2814     1.0  0.92680  0.73884  0.74649  1.0000
  H   H2815     1.0  0.96546  0.70569  0.76381  1.0000
  H   H2816     1.0  0.91573  0.68215  0.83943  1.0000
  H   H2817     1.0  0.87670  0.71570  0.82227  1.0000
  C   C1584     1.0  0.78753  0.91524  0.65170  1.0000
  C   C1585     1.0  0.78379  0.89168  0.63664  1.0000
  C   C1586     1.0  0.78346  0.86507  0.65174  1.0000
  C   C1587     1.0  0.78683  0.86178  0.68203  1.0000
  C   C1588     1.0  0.79094  0.88527  0.69700  1.0000
  H   H2818     1.0  0.82242  0.94385  0.78488  1.0000
  H   H2819     1.0  0.78083  0.89398  0.61343  1.0000
  H   H2820     1.0  0.78002  0.84703  0.63993  1.0000
  C   C1589     1.0  0.95522  0.59492  0.78179  1.0000
  H   H2821     1.0  0.79294  0.88293  0.72032  1.0000
  C   C1590     1.0  0.76953  0.91949  0.89804  1.0000
  C   C1591     1.0  0.79877  0.91810  0.89552  1.0000
  C   C1592     1.0  0.81280  0.90073  0.87558  1.0000
  C   C1593     1.0  0.79788  0.88413  0.85841  1.0000
  C   C1594     1.0  0.76867  0.88553  0.86095  1.0000
  H   H2822     1.0  0.81944  0.60107  0.88205  1.0000
  H   H2823     1.0  0.81053  0.93016  0.90908  1.0000
  H   H2824     1.0  0.83539  0.89930  0.87434  1.0000
  Fe  Fe183     1.0  0.76992  0.96918  0.52040  1.0000
  H   H2825     1.0  0.81056  0.76932  0.93271  1.0000
  C   C1595     1.0  0.83059  0.58130  0.87588  1.0000
  H   H2826     1.0  0.82340  0.97742  0.47627  1.0000
  H   H2827     1.0  0.92422  0.73575  0.47610  1.0000
  H   H2828     1.0  0.82124  0.56368  0.88901  1.0000
  H   H2829     1.0  0.90300  0.96666  0.52508  1.0000
  H   H2830     1.0  0.87731  0.54943  0.92072  1.0000
  H   H2831     1.0  0.85973  0.96053  0.96197  1.0000
  C   C1596     1.0  0.79670  0.75194  0.49690  1.0000
  S   S371      1.0  0.97520  0.75986  0.48976  1.0000
  H   H2832     1.0  0.83659  0.62126  0.83382  1.0000
  H   H2833     1.0  0.75317  0.70455  0.67181  1.0000
  H   H2834     1.0  0.88034  0.96931  0.68404  1.0000
  C   C1597     1.0  0.95389  0.75094  0.58674  1.0000
  C   C1598     1.0  0.93899  0.77067  0.56850  1.0000
  C   C1599     1.0  0.94506  0.77272  0.53858  1.0000
  H   H2835     1.0  0.96620  0.56986  0.68110  1.0000
  H   H2836     1.0  0.92329  0.78499  0.57765  1.0000
  H   H2837     1.0  0.93359  0.78817  0.52460  1.0000
  C   C1600     1.0  0.81026  0.62431  0.78634  1.0000
  C   C1601     1.0  0.81211  0.69100  0.83200  1.0000
  C   C1602     1.0  0.90408  0.63065  0.69406  1.0000
  C   C1603     1.0  0.89072  0.60546  0.69350  1.0000
  C   C1604     1.0  0.86123  0.60537  0.69306  1.0000
  C   C1605     1.0  0.84478  0.63052  0.69345  1.0000
  C   C1606     1.0  0.85816  0.65565  0.69381  1.0000
  C   C1607     1.0  0.88760  0.65576  0.69403  1.0000
  H   H2838     1.0  0.90326  0.58591  0.69371  1.0000
  C   C1608     1.0  0.75480  0.91966  0.78799  1.0000
  H   H2839     1.0  0.88191  0.78614  0.54391  1.0000
  N   N88       1.0  0.85909  0.77644  0.65999  1.0000
  C   C1609     1.0  0.83506  0.76692  0.67956  1.0000
  C   C1610     1.0  0.88409  0.77893  0.67845  1.0000
  C   C1611     1.0  0.85001  0.80409  0.64435  1.0000
  C   C1612     1.0  0.86711  0.75573  0.63762  1.0000
  C   C1613     1.0  0.87368  0.72511  0.64981  1.0000
  C   C1614     1.0  0.80841  0.76034  0.66374  1.0000
  C   C1615     1.0  0.87310  0.81920  0.62600  1.0000
  C   C1616     1.0  0.88146  0.80253  0.69972  1.0000
  C   C1617     1.0  0.90901  0.80431  0.71503  1.0000
  C   C1618     1.0  0.88230  0.70613  0.62544  1.0000
  C   C1619     1.0  0.78535  0.75126  0.68534  1.0000
  C   C1620     1.0  0.86160  0.84774  0.61313  1.0000
  H   H2840     1.0  0.82835  0.78323  0.69471  1.0000
  H   H2841     1.0  0.84176  0.74833  0.69413  1.0000
  H   H2842     1.0  0.88849  0.75926  0.69230  1.0000
  H   H2843     1.0  0.90342  0.78146  0.66452  1.0000
  H   H2844     1.0  0.84005  0.81868  0.65996  1.0000
  H   H2845     1.0  0.83327  0.80133  0.62891  1.0000
  H   H2846     1.0  0.85051  0.75575  0.62135  1.0000
  H   H2847     1.0  0.88611  0.76210  0.62485  1.0000
  H   H2848     1.0  0.85515  0.71653  0.66151  1.0000
  H   H2849     1.0  0.89123  0.72376  0.66500  1.0000
  H   H2850     1.0  0.79965  0.77910  0.65088  1.0000
  H   H2851     1.0  0.81287  0.74329  0.64903  1.0000
  H   H2852     1.0  0.88071  0.80677  0.60765  1.0000
  H   H2853     1.0  0.89130  0.82268  0.63917  1.0000
  H   H2854     1.0  0.87636  0.82326  0.68839  1.0000
  H   H2855     1.0  0.86487  0.79842  0.71666  1.0000
  H   H2856     1.0  0.92641  0.80840  0.69898  1.0000
  H   H2857     1.0  0.90686  0.82149  0.72972  1.0000
  H   H2858     1.0  0.91436  0.78460  0.72829  1.0000
  H   H2859     1.0  0.86532  0.70621  0.60971  1.0000
  H   H2860     1.0  0.90174  0.71302  0.61395  1.0000
  H   H2861     1.0  0.88658  0.68439  0.63485  1.0000
  H   H2862     1.0  0.76653  0.74769  0.67324  1.0000
  H   H2863     1.0  0.79210  0.73189  0.69856  1.0000
  H   H2864     1.0  0.77922  0.76816  0.69981  1.0000
  Fe  Fe184     1.0  0.77967  0.96511  0.58674  1.0000
  H   H2865     1.0  0.96587  0.55098  0.82118  1.0000
  H   H2866     1.0  0.96656  0.55499  0.76672  1.0000
  H   H2867     1.0  0.85713  0.66082  0.49100  1.0000
  H   H2868     1.0  0.84640  0.92384  0.59368  1.0000
  N   N89       1.0  0.91232  0.96827  0.47848  1.0000
  C   C1621     1.0  0.95285  0.56864  0.62442  1.0000
  C   C1622     1.0  0.93688  0.56931  0.59555  1.0000
  C   C1623     1.0  0.96840  0.62938  0.60289  1.0000
  C   C1624     1.0  0.93915  0.64063  0.61299  1.0000
  C   C1625     1.0  0.90620  0.56304  0.60144  1.0000
  H   H2869     1.0  0.74354  0.69720  0.72326  1.0000
  H   H2870     1.0  0.81669  0.52730  0.52585  1.0000
  C   C1626     1.0  0.98862  0.62311  0.88064  1.0000
  H   H2871     1.0  0.81544  0.76322  0.49685  1.0000
  H   H2872     1.0  0.95229  0.54678  0.63419  1.0000
  H   H2873     1.0  0.94006  0.58127  0.63997  1.0000
  H   H2874     1.0  0.94630  0.55337  0.58133  1.0000
  H   H2875     1.0  0.93717  0.58973  0.58301  1.0000
  H   H2876     1.0  0.82909  0.72342  0.80211  1.0000
  H   H2877     1.0  0.92298  0.89312  0.82460  1.0000
  H   H2878     1.0  0.96745  0.62131  0.58128  1.0000
  H   H2879     1.0  0.92511  0.80988  0.79332  1.0000
  H   H2880     1.0  0.92432  0.62390  0.61631  1.0000
  C   C1627     1.0  0.89335  0.59846  0.48591  1.0000
  H   H2881     1.0  0.89538  0.57902  0.61483  1.0000
  H   H2882     1.0  0.89539  0.56341  0.58047  1.0000
  H   H2883     1.0  0.89247  0.53990  0.95559  1.0000
  H   H2884     1.0  0.98214  0.83895  0.75639  1.0000
  C   C1628     1.0  0.78567  0.74484  0.90641  1.0000
  C   C1629     1.0  0.91637  0.91216  0.91589  1.0000
  C   C1630     1.0  0.78875  0.76288  0.93187  1.0000
  H   H2885     1.0  0.82142  0.57981  0.75778  1.0000
  H   H2886     1.0  0.76515  0.66171  0.79887  1.0000
  H   H2887     1.0  0.79081  0.75758  0.88610  1.0000
  H   H2888     1.0  0.93363  0.73028  0.86396  1.0000
  H   H2889     1.0  0.79468  0.67703  0.83198  1.0000
  H   H2890     1.0  0.79263  0.71762  0.79744  1.0000
  H   H2891     1.0  0.86412  0.93513  0.93613  1.0000
  H   H2892     1.0  0.88278  0.52369  0.52573  1.0000
  C   C1631     1.0  0.76418  0.49044  0.55691  1.0000
  H   H2893     1.0  0.91683  0.69411  0.91895  1.0000
  C   C1632     1.0  0.78536  0.68956  0.60967  1.0000
  C   C1633     1.0  0.80133  0.70859  0.58782  1.0000
  H   H2894     1.0  0.78515  0.66900  0.60033  1.0000
  H   H2895     1.0  0.79725  0.68687  0.63004  1.0000
  H   H2896     1.0  0.80324  0.72935  0.59638  1.0000
  H   H2897     1.0  0.82259  0.69884  0.58375  1.0000
  H   H2898     1.0  0.79045  0.71145  0.56679  1.0000
  N   N90       1.0  0.88893  0.70421  0.51554  1.0000
  H   H2899     1.0  0.89240  0.96869  0.90322  1.0000
  C   C1634     1.0  0.86358  0.68849  0.52566  1.0000
  H   H2900     1.0  0.93203  0.95159  0.92664  1.0000
  C   C1635     1.0  0.91382  0.69548  0.53400  1.0000
  C   C1636     1.0  0.77511  0.75674  0.51784  1.0000
  C   C1637     1.0  0.87141  0.74273  0.54992  1.0000
  C   C1638     1.0  0.86110  0.65915  0.51470  1.0000
  C   C1639     1.0  0.83645  0.64479  0.53008  1.0000
  C   C1640     1.0  0.86340  0.77398  0.55000  1.0000
  C   C1641     1.0  0.99165  0.65197  0.89152  1.0000
  H   H2901     1.0  0.88717  0.79278  0.84579  1.0000
  H   H2902     1.0  0.86241  0.68604  0.54987  1.0000
  H   H2903     1.0  0.84394  0.70070  0.51880  1.0000
  C   C1642     1.0  0.87243  0.54455  0.94421  1.0000
  H   H2904     1.0  0.76342  0.73999  0.90605  1.0000
  H   H2905     1.0  0.92973  0.71137  0.53048  1.0000
  H   H2906     1.0  0.90800  0.69570  0.55756  1.0000
  H   H2907     1.0  0.74856  0.55758  0.59836  1.0000
  H   H2908     1.0  0.76903  0.67136  0.66668  1.0000
  H   H2909     1.0  0.82700  0.72519  0.90777  1.0000
  H   H2910     1.0  0.88830  0.73775  0.56567  1.0000
  H   H2911     1.0  0.85265  0.73169  0.55764  1.0000
  C   C1643     1.0  0.87887  0.90347  0.82597  1.0000
  H   H2912     1.0  0.88027  0.64563  0.51873  1.0000
  H   H2913     1.0  0.83982  0.64129  0.55383  1.0000
  H   H2914     1.0  0.81656  0.65767  0.52647  1.0000
  H   H2915     1.0  0.83436  0.62424  0.52119  1.0000
  C   C1644     1.0  0.75462  0.90332  0.88046  1.0000
  H   H2916     1.0  0.85572  0.77921  0.57205  1.0000
  H   H2917     1.0  0.84650  0.78020  0.53448  1.0000
  C   C1645     1.0  0.77221  0.68790  0.88764  1.0000
  C   C1646     1.0  0.95976  0.86012  0.79157  1.0000
  C   C1647     1.0  0.91678  0.59637  0.50376  1.0000
  H   H2918     1.0  0.85642  0.67095  0.95932  1.0000
  N   N91       1.0  0.97491  0.68344  0.93258  1.0000
  H   H2919     1.0  0.95469  0.82890  0.58222  1.0000
  C   C1648     1.0  0.96093  0.70519  0.91167  1.0000
  H   H2920     1.0  0.88454  0.89944  0.96581  1.0000
  C   C1649     1.0  0.86803  0.93015  0.58817  1.0000
  H   H2921     1.0  0.75752  0.72293  0.62425  1.0000
  C   C1650     1.0  0.84167  0.60095  0.82412  1.0000
  C   C1651     1.0  0.89557  0.70133  0.48354  1.0000
  C   C1652     1.0  0.93192  0.69899  0.90081  1.0000
  C   C1653     1.0  0.91924  0.72427  0.88257  1.0000
  H   H2922     1.0  0.94361  0.53488  0.50569  1.0000
  H   H2923     1.0  0.80161  0.81053  0.48890  1.0000
  H   H2924     1.0  0.87974  0.94478  0.64231  1.0000
  H   H2925     1.0  0.92895  0.93773  0.56582  1.0000
  H   H2926     1.0  0.95850  0.72566  0.92147  1.0000
  H   H2927     1.0  0.97438  0.70882  0.89179  1.0000
  H   H2928     1.0  0.95442  0.64772  0.91972  1.0000
  H   H2929     1.0  0.81780  0.66296  0.91598  1.0000
  S   S372      1.0  0.75031  0.51714  0.50300  1.0000
  H   H2930     1.0  0.84908  0.54802  0.47013  1.0000
  C   C1654     1.0  0.98442  0.85692  0.76976  1.0000
  H   H2931     1.0  0.75693  0.87269  0.84814  1.0000
  H   H2932     1.0  0.89778  0.92024  0.90352  1.0000
  H   H2933     1.0  0.90055  0.67209  0.76620  1.0000
  S   S373      1.0  0.94837  0.84610  0.95457  1.0000
  H   H2934     1.0  0.98591  0.87622  0.75510  1.0000
  H   H2935     1.0  0.98752  0.58174  0.57520  1.0000
  H   H2936     1.0  0.85703  0.61376  0.75121  1.0000
  C   C1655     1.0  0.91197  0.95288  0.50835  1.0000
  C   C1656     1.0  0.81347  0.70736  0.80239  1.0000
  H   H2937     1.0  0.75373  0.63912  0.77301  1.0000
  H   H2938     1.0  0.91366  0.59538  0.52716  1.0000
  N   N92       1.0  0.90136  0.94010  0.96045  1.0000
  S   S374      1.0  0.75383  0.79756  0.59696  1.0000
  C   C1657     1.0  0.99137  0.75725  0.78345  1.0000
  C   C1658     1.0  0.86739  0.64476  0.77968  1.0000
  H   H2939     1.0  0.86645  0.63662  0.91254  1.0000
  H   H2940     1.0  0.88764  0.81006  0.79423  1.0000
  C   C1659     1.0  0.97594  0.65487  0.92114  1.0000
  H   H2941     1.0  0.96937  0.64445  0.53370  1.0000
  S   S375      1.0  0.75042  0.94194  0.92168  1.0000
  C   C1660     1.0  0.90606  0.81369  0.80706  1.0000
  H   H2942     1.0  0.97039  0.67957  0.51797  1.0000
  C   C1661     1.0  0.79126  0.91185  0.68194  1.0000
  H   H2943     1.0  0.78280  0.75143  0.95270  1.0000
  C   C1662     1.0  0.86007  0.61451  0.77493  1.0000
  H   H2944     1.0  0.75705  0.64380  0.63022  1.0000
  C   C1663     1.0  0.75499  0.51520  0.54135  1.0000
  H   H2945     1.0  0.89929  0.93295  0.85065  1.0000
  H   H2946     1.0  0.85330  0.86979  0.72240  1.0000
  H   H2947     1.0  0.93581  0.58815  0.79338  1.0000
  C   C1664     1.0  0.80562  0.93031  0.79341  1.0000
  S   S376      1.0  0.98663  0.75945  0.74556  1.0000
  H   H2948     1.0  0.88328  0.91477  0.59908  1.0000
  C   C1665     1.0  0.94086  0.94082  0.51967  1.0000
  H   H2949     1.0  0.85307  0.58137  0.88105  1.0000
  Fe  Fe185     1.0  0.75932  0.54332  0.67596  1.0000
  H   H2950     1.0  0.92471  0.79480  0.84704  1.0000
  C   C1666     1.0  0.80739  0.56789  0.50437  1.0000
  C   C1667     1.0  0.90713  0.79171  0.83279  1.0000
  C   C1668     1.0  0.76023  0.67736  0.91793  1.0000
  H   H2951     1.0  0.96028  0.84132  0.80703  1.0000
  H   H2952     1.0  0.91161  0.89167  0.92687  1.0000
  C   C1669     1.0  0.75135  0.74114  0.51875  1.0000
  H   H2953     1.0  0.87787  0.85765  0.59880  1.0000
  H   H2954     1.0  0.92002  0.84503  0.83409  1.0000
  H   H2955     1.0  0.91034  0.77058  0.82461  1.0000
  H   H2956     1.0  0.80275  0.70794  0.93152  1.0000
  H   H2957     1.0  0.84441  0.55094  0.52513  1.0000
  C   C1670     1.0  0.92418  0.93246  0.93849  1.0000
  C   C1671     1.0  0.84094  0.53039  0.48418  1.0000
  H   H2958     1.0  0.77579  0.59762  0.80011  1.0000
  H   H2959     1.0  0.87247  0.59861  0.49566  1.0000
  C   C1672     1.0  0.88076  0.93248  0.83696  1.0000
  H   H2960     1.0  0.83184  0.88802  0.74884  1.0000
  C   C1673     1.0  0.90380  0.84369  0.81764  1.0000
  H   H2961     1.0  0.88337  0.84557  0.82997  1.0000
  H   H2962     1.0  0.89483  0.89313  0.73683  1.0000
  N   N93       1.0  0.83500  0.60371  0.79212  1.0000
  C   C1674     1.0  0.87655  0.89208  0.75225  1.0000
  C   C1675     1.0  0.76832  0.49003  0.58713  1.0000
  C   C1676     1.0  0.82806  0.54306  0.51204  1.0000
  H   H2963     1.0  0.84787  0.90730  0.71826  1.0000
  H   H2964     1.0  0.89116  0.79299  0.47746  1.0000
  C   C1677     1.0  0.92848  0.66622  0.52972  1.0000
  C   C1678     1.0  0.85433  0.55447  0.77946  1.0000
  C   C1679     1.0  0.91599  0.50098  0.50337  1.0000
  S   S377      1.0  0.76355  0.94026  0.48339  1.0000
  H   H2965     1.0  0.93069  0.84612  0.76159  1.0000
  H   H2966     1.0  0.88183  0.84789  0.76334  1.0000
  H   H2967     1.0  0.86014  0.90439  0.81252  1.0000
  C   C1680     1.0  0.88055  0.86711  0.77536  1.0000
  C   C1681     1.0  0.80793  0.71093  0.85698  1.0000
  H   H2968     1.0  0.93060  0.65659  0.59651  1.0000
  C   C1682     1.0  0.93176  0.86394  0.77545  1.0000
  H   H2969     1.0  0.94269  0.92206  0.94969  1.0000
  H   H2970     1.0  0.89710  0.67925  0.47804  1.0000
  H   H2971     1.0  0.82361  0.52299  0.47187  1.0000
  N   N94       1.0  0.90552  0.86730  0.79431  1.0000
  H   H2972     1.0  0.85917  0.68912  0.87040  1.0000
  C   C1683     1.0  0.94069  0.90712  0.89408  1.0000
  H   H2973     1.0  0.79047  0.72644  0.85078  1.0000
  H   H2974     1.0  0.87349  0.91217  0.76262  1.0000
  C   C1684     1.0  0.90593  0.89443  0.80870  1.0000
  H   H2975     1.0  0.97257  0.79837  0.78747  1.0000
  H   H2976     1.0  0.80562  0.62609  0.76267  1.0000
  C   C1685     1.0  0.98933  0.56929  0.67813  1.0000
  C   C1686     1.0  0.85083  0.88908  0.73436  1.0000
  H   H2977     1.0  0.87550  0.88857  0.84507  1.0000
  C   C1687     1.0  0.75922  0.64019  0.79594  1.0000
  C   C1688     1.0  0.85574  0.56934  0.95678  1.0000
  H   H2978     1.0  0.94019  0.65083  0.63370  1.0000
  C   C1689     1.0  0.74847  0.68345  0.66607  1.0000
  C   C1690     1.0  0.76459  0.83737  0.48986  1.0000
  C   C1691     1.0  0.95841  0.68268  0.96112  1.0000
  H   H2979     1.0  0.83104  0.95758  0.68052  1.0000
  H   H2980     1.0  0.81737  0.65507  0.87919  1.0000
  H   H2981     1.0  0.85059  0.49036  0.53171  1.0000
  H   H2982     1.0  0.96638  0.62024  0.87623  1.0000
  H   H2983     1.0  0.81512  0.64551  0.79152  1.0000
  H   H2984     1.0  0.96305  0.87847  0.80394  1.0000
  H   H2985     1.0  0.77448  0.78198  0.92915  1.0000
  C   C1692     1.0  0.95985  0.66595  0.53493  1.0000
  H   H2986     1.0  0.80072  0.93451  0.81649  1.0000
  H   H2987     1.0  0.92358  0.90671  0.54711  1.0000
  H   H2988     1.0  0.93367  0.88256  0.75988  1.0000
  H   H2989     1.0  0.87802  0.71107  0.47029  1.0000
  C   C1693     1.0  0.84515  0.52492  0.77725  1.0000
  C   C1694     1.0  0.96610  0.75509  0.52676  1.0000
  C   C1695     1.0  0.77134  0.50134  0.87474  1.0000
  H   H2990     1.0  0.94974  0.60416  0.75975  1.0000
  H   H2991     1.0  0.98358  0.66780  0.87483  1.0000
  S   S378      1.0  0.97244  0.58699  0.51551  1.0000
  H   H2992     1.0  0.86092  0.86578  0.78894  1.0000
  H   H2993     1.0  0.91922  0.65046  0.54544  1.0000
  H   H2994     1.0  0.81950  0.69337  0.78490  1.0000
  H   H2995     1.0  0.86705  0.63756  0.87315  1.0000
  H   H2996     1.0  0.74928  0.82321  0.48251  1.0000
  H   H2997     1.0  0.81097  0.87076  0.95278  1.0000
  H   H2998     1.0  0.80473  0.57723  0.83975  1.0000
  H   H2999     1.0  0.83935  0.62384  0.95849  1.0000
  C   C1696     1.0  0.76241  0.51408  0.60252  1.0000
  H   H3000     1.0  0.96399  0.61150  0.79363  1.0000
  H   H3001     1.0  0.92332  0.97704  0.66692  1.0000
  H   H3002     1.0  0.89785  0.93540  0.50889  1.0000
  H   H3003     1.0  0.75102  0.91708  0.72874  1.0000
  C   C1697     1.0  0.88230  0.97376  0.46955  1.0000
  H   H3004     1.0  0.95979  0.85118  0.61107  1.0000
  H   H3005     1.0  0.78608  0.61966  0.82759  1.0000
  H   H3006     1.0  0.92652  0.65904  0.50773  1.0000
  C   C1698     1.0  0.77975  0.93597  0.77502  1.0000
  H   H3007     1.0  0.80737  0.84673  0.48317  1.0000
  H   H3008     1.0  0.86166  0.93790  0.85031  1.0000
  H   H3009     1.0  0.88227  0.94844  0.81837  1.0000
  H   H3010     1.0  0.89900  0.71932  0.87389  1.0000
  H   H3011     1.0  0.86374  0.64986  0.80263  1.0000
  Fe  Fe186     1.0  0.97308  0.80583  0.47692  1.0000
  H   H3012     1.0  0.97427  0.61409  0.64741  1.0000
  H   H3013     1.0  0.75296  0.96453  0.73271  1.0000
  H   H3014     1.0  0.82674  0.72343  0.85691  1.0000
  S   S379      1.0  0.74923  0.52468  0.92552  1.0000
  H   H3015     1.0  0.83187  0.52410  0.75809  1.0000
  H   H3016     1.0  0.86130  0.87155  0.93839  1.0000
  C   C1699     1.0  0.79382  0.83042  0.47741  1.0000
  Fe  Fe187     1.0  0.98652  0.72159  0.71866  1.0000
  Fe  Fe188     1.0  0.76108  0.54787  0.74352  1.0000
  H   H3017     1.0  0.77427  0.95876  0.77476  1.0000
  C   C1700     1.0  0.82160  0.67196  0.89338  1.0000
  H   H3018     1.0  0.90498  0.63865  0.75171  1.0000
  C   C1701     1.0  0.75677  0.52399  0.88710  1.0000
  S   S380      1.0  0.99001  0.67809  0.65047  1.0000
  C   C1702     1.0  0.75525  0.70221  0.61558  1.0000
  C   C1703     1.0  0.98023  0.73442  0.54476  1.0000
  C   C1704     1.0  0.75210  0.54719  0.83777  1.0000
  S   S381      1.0  0.76585  0.51144  0.64114  1.0000
  C   C1705     1.0  0.77607  0.50159  0.84420  1.0000
  H   H3019     1.0  0.85413  0.65966  0.76562  1.0000
  N   N95       1.0  0.80184  0.69720  0.88683  1.0000
  H   H3020     1.0  0.96368  0.67347  0.55650  1.0000
  C   C1706     1.0  0.98238  0.78028  0.79898  1.0000
  H   H3021     1.0  0.79358  0.92994  0.69395  1.0000
  H   H3022     1.0  0.81130  0.56654  0.79277  1.0000
  H   H3023     1.0  0.86429  0.74248  0.50397  1.0000
  C   C1707     1.0  0.82893  0.57627  0.78049  1.0000
  C   C1708     1.0  0.98317  0.60871  0.62586  1.0000
  H   H3024     1.0  0.89366  0.65358  0.89134  1.0000
  C   C1709     1.0  0.89799  0.64950  0.77128  1.0000
  C   C1710     1.0  0.82737  0.57768  0.84354  1.0000
  H   H3025     1.0  0.85538  0.86168  0.63074  1.0000
  H   H3026     1.0  0.98140  0.64771  0.59913  1.0000
  C   C1711     1.0  0.85335  0.67712  0.89092  1.0000
  C   C1712     1.0  0.97418  0.73237  0.57491  1.0000
  H   H3027     1.0  0.86723  0.55444  0.79898  1.0000
  H   H3028     1.0  0.95839  0.91478  0.55584  1.0000
  C   C1713     1.0  0.98544  0.77967  0.82920  1.0000
  C   C1714     1.0  0.79414  0.73223  0.47639  1.0000
  C   C1715     1.0  0.76629  0.52434  0.82539  1.0000
  H   H3029     1.0  0.86006  0.52567  0.94649  1.0000
  H   H3030     1.0  0.98569  0.71701  0.58899  1.0000
  H   H3031     1.0  0.75025  0.92777  0.80974  1.0000
  S   S382      1.0  0.80918  0.96694  0.54725  1.0000
  Fe  Fe189     1.0  0.98047  0.78765  0.90747  1.0000
  H   H3032     1.0  0.97794  0.79737  0.84092  1.0000
  C   C1716     1.0  0.97031  0.84081  0.59253  1.0000
  H   H3033     1.0  0.94178  0.70205  0.48177  1.0000
  H   H3034     1.0  0.86794  0.55968  0.75998  1.0000
  S   S383      1.0  0.77204  0.52267  0.78683  1.0000
  C   C1717     1.0  0.83591  0.97823  0.68741  1.0000
  H   H3035     1.0  0.75734  0.70497  0.87866  1.0000
  H   H3036     1.0  0.76221  0.89727  0.79249  1.0000
  C   C1718     1.0  0.88132  0.73485  0.51900  1.0000
  H   H3037     1.0  0.94573  0.92696  0.88170  1.0000
  H   H3038     1.0  0.83707  0.55679  0.83899  1.0000
  H   H3039     1.0  0.75805  0.85949  0.48370  1.0000
  H   H3040     1.0  0.84926  0.91857  0.50249  1.0000
  S   S384      1.0  0.78723  0.94941  0.63420  1.0000
  H   H3041     1.0  0.98647  0.52681  0.60147  1.0000
  H   H3042     1.0  0.97292  0.50560  0.81514  1.0000
  H   H3043     1.0  0.84299  0.84552  0.59995  1.0000
  N   N96       1.0  0.98254  0.57778  0.62230  1.0000
  H   H3044     1.0  0.85210  0.80559  0.96121  1.0000
  H   H3045     1.0  0.77708  0.77204  0.53359  1.0000
  H   H3046     1.0  0.78966  0.56129  0.49225  1.0000
  H   H3047     1.0  0.84099  0.96978  0.89841  1.0000
  H   H3048     1.0  0.75382  0.61492  0.58756  1.0000
  H   H3049     1.0  0.89265  0.54030  0.49194  1.0000
  C   C1719     1.0  0.74910  0.72113  0.49859  1.0000
  C   C1720     1.0  0.87172  0.95956  0.59742  1.0000
  Fe  Fe190     1.0  0.99090  0.84183  0.93190  1.0000
  C   C1721     1.0  0.74973  0.53947  0.55656  1.0000
  H   H3050     1.0  0.74519  0.70726  0.59427  1.0000
  C   C1722     1.0  0.87885  0.97579  0.92158  1.0000
  H   H3051     1.0  0.84448  0.95409  0.63490  1.0000
  C   C1723     1.0  0.93875  0.51508  0.51824  1.0000
  H   H3052     1.0  0.77879  0.48352  0.88870  1.0000
  H   H3053     1.0  0.92408  0.49716  0.48107  1.0000
  H   H3054     1.0  0.92246  0.96076  0.63302  1.0000
  H   H3055     1.0  0.91777  0.98047  0.96453  1.0000
  Fe  Fe191     1.0  0.75028  0.48389  0.46977  1.0000
  H   H3056     1.0  0.78713  0.48378  0.83505  1.0000
  H   H3057     1.0  0.89331  0.96513  0.59106  1.0000
  H   H3058     1.0  0.93200  0.51961  0.54080  1.0000
  C   C1724     1.0  0.86595  0.96109  0.63061  1.0000
  H   H3059     1.0  0.88908  0.80574  0.96723  1.0000
  H   H3060     1.0  0.98343  0.51458  0.75924  1.0000
  C   C1725     1.0  0.98544  0.55707  0.80927  1.0000
  H   H3061     1.0  0.98358  0.51048  0.86359  1.0000
  H   H3062     1.0  0.80837  0.48647  0.50198  1.0000
  H   H3063     1.0  0.85686  0.97398  0.58490  1.0000
  H   H3064     1.0  0.85046  0.96008  0.72946  1.0000
  H   H3065     1.0  0.95821  0.50119  0.51912  1.0000
  H   H3066     1.0  0.76010  0.62500  0.96766  1.0000
  Fe  Fe192     1.0  0.75861  0.49656  0.96764  1.0000
  H   H3067     1.0  0.80407  0.59666  0.96779  1.0000
  H   H3068     1.0  0.98382  0.54755  0.86734  1.0000
  H   H3069     1.0  0.74285  0.55886  0.54474  1.0000
  C   C1726     1.0  0.85387  0.48383  0.50909  1.0000
  C   C1727     1.0  0.83485  0.97637  0.72068  1.0000
  H   H3070     1.0  0.81366  0.97076  0.72876  1.0000
  C   C1728     1.0  0.92256  0.98105  0.64294  1.0000
  H   H3071     1.0  0.96803  0.98074  0.64012  1.0000
  H   H3072     1.0  0.87243  0.95349  0.46847  1.0000
