data_wut_v1-Fe4S4_v2-Fe4S4_2-BDT
_audit_creation_date              2023-04-12
_audit_creation_method            'tobacco_3.0'
_symmetry_space_group_name_H-M    'P1'
_symmetry_Int_Tables_number       1
_symmetry_cell_setting            triclinic
loop_
_symmetry_equiv_pos_as_xyz
  x,y,z
_cell_length_a                    38.82630504187909
_cell_length_b                    38.82614821836697
_cell_length_c                    34.00909872362022
_cell_angle_alpha                 89.98707653856978
_cell_angle_beta                  89.9872062006112
_cell_angle_gamma                 90.03345777209442
loop_
_atom_site_label
_atom_site_type_symbol
_atom_site_fract_x
_atom_site_fract_y
_atom_site_fract_z
_atom_site_charge
Fe1       Fe    0.8339051855    0.5640480178    0.8298742898          0.2491
S2         S    0.8760536122    0.5326818771    0.8608453765         -0.1242
S3         S    0.8664497323    0.5976252674    0.7897000198         -0.6955
Fe4       Fe    0.7755549438    0.5371127615    0.8650185980          0.2491
S5         S    0.7997609248    0.4974641466    0.9067964067         -0.1242
S6         S    0.7187870437    0.5294621846    0.8786371498         -0.6955
Fe7       Fe    0.8355033788    0.5445906362    0.9080764572          0.2491
S8         S    0.8507200575    0.5695504614    0.9659224531         -0.6955
Fe9       Fe    0.8314423728    0.4950422902    0.8498371022          0.2491
S10        S    0.8404431665    0.4441620866    0.8185403774         -0.6955
S11        S    0.8029007593    0.5875377777    0.8803705913         -0.1242
S12        S    0.7976263101    0.5231842096    0.8047291098         -0.1242
Fe13      Fe    0.9405244705    0.6495978009    0.1506811342          0.2491
S14        S    0.8973964745    0.6821484258    0.1781009044         -0.1242
S15        S    0.9155667650    0.6343787658    0.0928323027         -0.6955
Fe16      Fe    0.9900735147    0.6536576591    0.2089197159          0.2491
S17        S    0.9621816345    0.6874566728    0.2542475968         -0.1242
S18        S    0.0409569069    0.6446527520    0.2402124213         -0.6955
Fe19      Fe    0.9210682934    0.6511962479    0.2288836054          0.2491
S20        S    0.8874942025    0.6186492523    0.2690551717         -0.6955
Fe21      Fe    0.9480041786    0.7095462319    0.1937388843          0.2491
S22        S    0.9556588769    0.7663112886    0.1801169969         -0.6955
S23        S    0.9525872030    0.6092685081    0.1977268009         -0.1242
S24        S    0.9875716266    0.6850536749    0.1520807121         -0.1242
Fe25      Fe    0.4404298486    0.7694166220    0.1507787201          0.2491
S26        S    0.3973000246    0.7368062193    0.1781969526         -0.1242
S27        S    0.4154725710    0.7846337862    0.0929311627         -0.6955
Fe28      Fe    0.4899804082    0.7653829567    0.2090148368          0.2491
S29        S    0.4620871660    0.7315322194    0.2543404221         -0.1242
S30        S    0.5408665478    0.7744260844    0.2403050434         -0.6955
Fe31      Fe    0.4479008450    0.7094585348    0.1938359525          0.2491
S32        S    0.4555452288    0.6527065004    0.1802135472         -0.6955
Fe33      Fe    0.4209763633    0.7677677604    0.2289821502          0.2491
S34        S    0.3874094124    0.8002653927    0.2691554589         -0.6955
S35        S    0.4874709424    0.7340070155    0.1521758808         -0.1242
S36        S    0.4525013298    0.8097392453    0.1978238874         -0.1242
Fe37      Fe    0.3354116509    0.8744450843    0.9081701997          0.2491
S38        S    0.3028054787    0.8313179072    0.8807786415         -0.1242
S39        S    0.3506141715    0.8494844892    0.9660259450         -0.6955
Fe40      Fe    0.3313939320    0.9239985064    0.8499122609          0.2491
S41        S    0.2975523288    0.8961087912    0.8046066397         -0.1242
S42        S    0.3404468243    0.9748857098    0.8185968406         -0.6955
Fe43      Fe    0.2754640916    0.8819209912    0.8651222987          0.2491
S44        S    0.2187095450    0.8895677336    0.8787532761         -0.6955
Fe45      Fe    0.3337797868    0.8549948997    0.8299760211          0.2491
S46        S    0.3662848091    0.8214278434    0.7898111621         -0.6955
S47        S    0.3000049167    0.9214882392    0.9067590405         -0.1242
S48        S    0.3757455490    0.8865165358    0.8611109301         -0.1242
Fe49      Fe    0.6106344999    0.1497119869    0.1506174650          0.2491
S50        S    0.6537625931    0.1823176467    0.1780078132         -0.1242
S51        S    0.6355944792    0.1345068963    0.0927623947         -0.6955
Fe52      Fe    0.5610814204    0.1537330622    0.2088751199          0.2491
S53        S    0.5889721571    0.1875751851    0.2541794438         -0.1242
S54        S    0.5101941256    0.1446827373    0.2401907805         -0.6955
Fe55      Fe    0.6031606286    0.2096612861    0.1936629289          0.2491
S56        S    0.5955158088    0.2664159236    0.1800296432         -0.6955
Fe57      Fe    0.6300846700    0.1513454739    0.2288116248          0.2491
S58        S    0.6636505108    0.1188403633    0.2689778771         -0.6955
S59        S    0.5635927173    0.1851204749    0.1520270805         -0.1242
S60        S    0.5985617580    0.1093796905    0.1976783319         -0.1242
Fe61      Fe    0.7173119407    0.0641268795    0.8298040515          0.2491
S62        S    0.6751193611    0.0327533610    0.8607735610         -0.1242
S63        S    0.6848178380    0.0976955271    0.7896251420         -0.6955
Fe64      Fe    0.7756205793    0.0372031221    0.8649520619          0.2491
S65        S    0.7513576526    0.9975506652    0.9067294319         -0.1242
S66        S    0.8323752447    0.0295615435    0.8785716410         -0.6955
Fe67      Fe    0.7196955375    0.9951235987    0.8497764394          0.2491
S68        S    0.7106543128    0.9442388615    0.8184867830         -0.6955
Fe69      Fe    0.7156630567    0.0446776095    0.9080089177          0.2491
S70        S    0.7004496086    0.0696415722    0.9658514564         -0.6955
S71        S    0.7535583512    0.0232652150    0.8046645223         -0.1242
S72        S    0.7483209507    0.0876261407    0.8802970723         -0.1242
Fe73      Fe    0.1105779866    0.2694948302    0.1507700440          0.2491
S74        S    0.1537002338    0.2369310948    0.1781760771         -0.1242
S75        S    0.1355395910    0.2847236996    0.0929062073         -0.6955
Fe76      Fe    0.0610267510    0.2654288262    0.2090329968          0.2491
S77        S    0.0889122085    0.2316148123    0.2543546347         -0.1242
S78        S    0.0101439035    0.2744341607    0.2403480004         -0.6955
Fe79      Fe    0.1300318053    0.2678749151    0.2289636097          0.2491
S80        S    0.1636098128    0.3004072623    0.2691124937         -0.6955
Fe81      Fe    0.1030879000    0.2095373690    0.1938437631          0.2491
S82        S    0.0954248425    0.1527767015    0.1802372668         -0.6955
S83        S    0.0985201860    0.3098148652    0.1978130875         -0.1242
S84        S    0.0635253459    0.2340458526    0.1521993057         -0.1242
Fe85      Fe    0.2155908403    0.3745087041    0.9080686064          0.2491
S86        S    0.2481525987    0.3313858953    0.8806607044         -0.1242
S87        S    0.2003633447    0.3495466239    0.9659327069         -0.6955
Fe88      Fe    0.2196560504    0.4240607686    0.8498061628          0.2491
S89        S    0.2534678432    0.3961750043    0.8044828127         -0.1242
S90        S    0.2106508746    0.4749444090    0.8184922028         -0.6955
Fe91      Fe    0.2172077909    0.3550557352    0.8298747142          0.2491
S92        S    0.1846735312    0.3214788114    0.7897266617         -0.6955
Fe93      Fe    0.2755468351    0.3819980173    0.8649926204          0.2491
S94        S    0.3323078830    0.3896596741    0.8785969781         -0.6955
S95        S    0.1752697182    0.3865680317    0.8610273187         -0.1242
S96        S    0.2510406763    0.4215607636    0.9066385802         -0.1242
Fe97      Fe    0.0343986728    0.9940753724    0.0581744502          0.2491
S98        S    0.0371584137    0.0046943383    0.9918219243         -0.1242
S99        S    0.0480191128    0.0468678138    0.0823989156         -0.6955
Fe100     Fe    0.0165926092    0.9250876305    0.0581724446          0.2491
S101       S    0.0138770630    0.9144931656    0.9918193020         -0.1242
S102       S    0.0029586103    0.8722855816    0.0823938403         -0.6955
Fe103     Fe    0.0600002675    0.9507099740    0.0006926050          0.2491
S104       S    0.1127961275    0.9371183292    0.9764813361         -0.6955
Fe105     Fe    0.9910231917    0.9684758292    0.0006850514          0.2491
S106       S    0.9382408872    0.9820770794    0.9764622207         -0.6955
S107       S    0.0702869766    0.9480425520    0.0671112567         -0.1242
S108       S    0.9806993051    0.9711169079    0.0671014460         -0.1242
Fe109     Fe    0.5600177841    0.4685020418    0.0005794082          0.2491
S110       S    0.5706151757    0.4712259987    0.0669315026         -0.1242
S111       S    0.6128177311    0.4821361582    0.9763527915         -0.6955
Fe112     Fe    0.4910304929    0.4506952320    0.0005842246          0.2491
S113       S    0.4804145923    0.4479436724    0.0669378001         -0.1242
S114       S    0.4382366395    0.4370737673    0.9763649802         -0.6955
Fe115     Fe    0.5166336799    0.4940722151    0.0580701001          0.2491
S116       S    0.5030337266    0.5468550534    0.0822927590         -0.6955
Fe117     Fe    0.5344001358    0.4250950342    0.0580627709          0.2491
S118       S    0.5479939970    0.3722995472    0.0822742116         -0.6955
S119       S    0.5139876940    0.5043948737    0.9916536720         -0.1242
S120       S    0.5370628302    0.4148070658    0.9916441528         -0.1242
Fe121     Fe    0.9209488302    0.2677820595    0.7289652929          0.2491
S122       S    0.9523276207    0.3099700012    0.6979943438         -0.1242
S123       S    0.8873804086    0.3002819566    0.7691381548         -0.6955
Fe124     Fe    0.9478699696    0.2094684281    0.6938252846          0.2491
S125       S    0.9875268933    0.2337251816    0.6520489356         -0.1242
S126       S    0.9555077667    0.1527119150    0.6802119060         -0.6955
Fe127     Fe    0.9899529036    0.2653913841    0.7089990409          0.2491
S128       S    0.0408361774    0.2744307905    0.7402921661         -0.6955
Fe129     Fe    0.9404031271    0.2694236631    0.6507619300          0.2491
S130       S    0.9154441825    0.2846349838    0.5929157694         -0.6955
S131       S    0.9618057802    0.2315340114    0.7541118598         -0.1242
S132       S    0.8974503542    0.2367711497    0.6784732929         -0.1242
Fe133     Fe    0.8337749609    0.3549828554    0.3299503807          0.2491
S134       S    0.8759573047    0.3863591873    0.3608966817         -0.1242
S135       S    0.8662820672    0.3214139814    0.2897861563         -0.6955
Fe136     Fe    0.7754550412    0.3819056383    0.3650908276          0.2491
S137       S    0.7997042632    0.4215606088    0.4068426633         -0.1242
S138       S    0.7186961124    0.3895454985    0.3787135148         -0.6955
Fe139     Fe    0.8313828515    0.4239867875    0.3498841632          0.2491
S140       S    0.8404311853    0.4748707073    0.3185646266         -0.6955
Fe141     Fe    0.8354003343    0.3744351148    0.4081440629          0.2491
S142       S    0.8505979351    0.3494739138    0.4659986931         -0.6955
S143       S    0.7975342612    0.3958421556    0.3047925431         -0.1242
S144       S    0.8027521821    0.3314842668    0.3804607082         -0.1242
Fe145     Fe    0.5609919203    0.7654345798    0.7090090828          0.2491
S146       S    0.5888759401    0.7316124935    0.7543240218         -0.1242
S147       S    0.5101096007    0.7744376311    0.7403260639         -0.6955
Fe148     Fe    0.6105419277    0.7695042995    0.6507451034          0.2491
S149       S    0.6536623595    0.7369336344    0.6781441220         -0.1242
S150       S    0.6355021800    0.7847365731    0.5928816732         -0.6955
Fe151     Fe    0.6030534209    0.7095444360    0.6938148192          0.2491
S152       S    0.5953907569    0.6527844109    0.6802045478         -0.6955
Fe153     Fe    0.6299973505    0.7678804104    0.7289380415          0.2491
S154       S    0.6635757885    0.8004109944    0.7690883171         -0.6955
S155       S    0.5634897334    0.7340546914    0.6521731259         -0.1242
S156       S    0.5984846050    0.8098216627    0.6977912919         -0.1242
Fe157     Fe    0.7172132315    0.8551022613    0.3298763280          0.2491
S158       S    0.6750501537    0.8864605665    0.3608370997         -0.1242
S159       S    0.6846864641    0.8215202470    0.2897223688         -0.6955
Fe160     Fe    0.7755483400    0.8820468002    0.3650004952          0.2491
S161       S    0.7513230545    0.9216904340    0.4067617956         -0.1242
S162       S    0.8323108562    0.8897068206    0.3786085293         -0.6955
Fe163     Fe    0.7155882756    0.8745578065    0.4080691684          0.2491
S164       S    0.7003585316    0.8495942251    0.4659291932         -0.6955
Fe165     Fe    0.7196582571    0.9241080044    0.3498050859          0.2491
S166       S    0.7106581361    0.9749872866    0.3184845415         -0.6955
S167       S    0.7482065480    0.8316168028    0.3803804228         -0.1242
S168       S    0.7534926545    0.8959727761    0.3047068252         -0.1242
Fe169     Fe    0.0611203519    0.6537128807    0.7089052045          0.2491
S170       S    0.0890131571    0.6875438053    0.7542187636         -0.1242
S171       S    0.0102315843    0.6446611073    0.7402172011         -0.6955
Fe172     Fe    0.1106755285    0.6496958953    0.6506495032          0.2491
S173       S    0.1538063352    0.6822916143    0.6780496873         -0.1242
S174       S    0.1356372450    0.6344956161    0.5927937589         -0.6955
Fe175     Fe    0.1301227650    0.6513212352    0.7288448365          0.2491
S176       S    0.1636860686    0.6188112112    0.7690086696         -0.6955
Fe177     Fe    0.1032018662    0.7096412709    0.6937021349          0.2491
S178       S    0.0955593192    0.7663974596    0.6800756053         -0.6955
S179       S    0.0985997460    0.6093594313    0.6977047007         -0.1242
S180       S    0.0636347868    0.6851057012    0.6520612348         -0.1242
Fe181     Fe    0.2756358540    0.5372173842    0.3649434401          0.2491
S182       S    0.2513750723    0.4975698927    0.4067285725         -0.1242
S183       S    0.3323913029    0.5295764001    0.3785592028         -0.6955
Fe184     Fe    0.2173251252    0.5641404633    0.3297992725          0.2491
S185       S    0.1751340478    0.5327717016    0.3607777260         -0.1242
S186       S    0.1848286066    0.5977086671    0.2896224284         -0.6955
Fe187     Fe    0.2156804976    0.5446914270    0.4080043293          0.2491
S188       S    0.2004698159    0.5696554264    0.4658477957         -0.6955
Fe189     Fe    0.2197104298    0.4951372697    0.3497717825          0.2491
S190       S    0.2106680707    0.4442523452    0.3184829492         -0.6955
S191       S    0.2483365344    0.5876401866    0.3802900935         -0.1242
S192       S    0.2535706247    0.5232790707    0.3046574546         -0.1242
Fe193     Fe    0.4480171696    0.2095564089    0.6937321253          0.2491
S194       S    0.4876664818    0.1853456569    0.6519590769         -0.1242
S195       S    0.4556717443    0.2663233236    0.6801097809         -0.6955
Fe196     Fe    0.4210789886    0.1512096717    0.7288815817          0.2491
S197       S    0.4524449271    0.1090575515    0.6979168383         -0.1242
S198       S    0.3875012600    0.1186695035    0.7690599390         -0.6955
Fe199     Fe    0.4900835956    0.1536658834    0.7089141028          0.2491
S200       S    0.5409644776    0.1446621346    0.7402080127         -0.6955
Fe201     Fe    0.4405320649    0.1496065223    0.6506782334          0.2491
S202       S    0.4155680432    0.1343894064    0.5928347578         -0.6955
S203       S    0.4619469762    0.1874863522    0.7540219784         -0.1242
S204       S    0.3975892717    0.1822140396    0.6783850240         -0.1242
Fe205     Fe    0.2755413413    0.0371026536    0.3650491532          0.2491
S206       S    0.2997559385    0.9974537914    0.4068201386         -0.1242
S207       S    0.2187756832    0.0294451063    0.3786748080         -0.6955
Fe208     Fe    0.3338848401    0.0640442536    0.3298965838          0.2491
S209       S    0.3760398096    0.0326798163    0.3608583068         -0.1242
S210       S    0.3664213078    0.0976242427    0.2897167718         -0.6955
Fe211     Fe    0.3314329529    0.9950389797    0.3498631644          0.2491
S212       S    0.3404376256    0.9441587560    0.3185679398         -0.6955
Fe213     Fe    0.3354927031    0.0445901156    0.4080995395          0.2491
S214       S    0.3507113385    0.0695541910    0.4659424744         -0.6955
S215       S    0.2976090754    0.0231746817    0.3047577574         -0.1242
S216       S    0.3028818935    0.0875318733    0.3803953686         -0.1242
Fe217     Fe    0.0343995856    0.9250622515    0.5581168294          0.2491
S218       S    0.0371376266    0.9144732864    0.4917630183         -0.1242
S219       S    0.0479937256    0.8722670984    0.5823348992         -0.6955
Fe220     Fe    0.0166320480    0.9940391534    0.5581231808          0.2491
S221       S    0.0139066484    0.0046602859    0.4917713227         -0.1242
S222       S    0.0030307178    0.0468218986    0.5823509722         -0.6955
Fe223     Fe    0.9910308425    0.9506614799    0.5006368348          0.2491
S224       S    0.9382377499    0.9370390644    0.4764220028         -0.6955
Fe225     Fe    0.0600178548    0.9684693708    0.5006339368          0.2491
S226       S    0.1128181358    0.9821041912    0.4764146692         -0.6955
S227       S    0.9807142025    0.9479839385    0.5670547910         -0.1242
S228       S    0.0703147796    0.9711128906    0.5670510271         -0.1242
Fe229     Fe    0.5600170246    0.4506730353    0.5006871172          0.2491
S230       S    0.5706051574    0.4479336826    0.5670410573         -0.1242
S231       S    0.6128126748    0.4370809513    0.4764696893         -0.6955
Fe232     Fe    0.4910398874    0.4684386530    0.5006799271          0.2491
S233       S    0.4804178503    0.4711621505    0.5670316563         -0.1242
S234       S    0.4382572791    0.4820391005    0.4764514939         -0.6955
Fe235     Fe    0.5344158943    0.4940398219    0.5581678663          0.2491
S236       S    0.5480364133    0.5468329335    0.5823844951         -0.6955
Fe237     Fe    0.5166100674    0.4250520184    0.5581684165          0.2491
S238       S    0.5029765097    0.3722505453    0.5823858874         -0.6955
S239       S    0.5370939964    0.5043581887    0.4917502609         -0.1242
S240       S    0.5139677251    0.4147565839    0.4917509755         -0.1242
C631       C    0.1919279361    0.0174497653    0.4034403403          0.2206
C632       C    0.1726447507    0.0405986311    0.4250095267         -0.1633
C633       C    0.1465345455    0.0289328175    0.4490947183         -0.1633
C634       C    0.1396658828    0.9940995322    0.4516491368          0.2206
C635       C    0.1589490683    0.9709506664    0.4300799504         -0.1633
C636       C    0.1850592734    0.9826164801    0.4059947589         -0.1633
H631       H    0.1777726469    0.0666304088    0.4231056448          0.0883
H632       H    0.1321280561    0.0462368007    0.4652102054          0.0883
H633       H    0.1538226402    0.9449120318    0.4319815837          0.0883
H634       H    0.1994672310    0.9653056399    0.3898770231          0.0883
C621       C    0.4676544648    0.2931556369    0.6553554441          0.2206
C622       C    0.4444812994    0.3126084695    0.6340201159         -0.1633
C623       C    0.4561416631    0.3387189454    0.6099317152         -0.1633
C624       C    0.4909937893    0.3454182320    0.6071402243          0.2206
C625       C    0.5141669546    0.3259653994    0.6284755525         -0.1633
C626       C    0.5025065909    0.2998549236    0.6525639531         -0.1633
H621       H    0.4184354388    0.3076071647    0.6361011846          0.0883
H622       H    0.4388195196    0.3532522288    0.5939910140          0.0883
H623       H    0.5402196772    0.3309651960    0.6263966767          0.0883
H624       H    0.5198355964    0.2853201320    0.6685068473          0.0883
C611       C    0.3991424001    0.1179692056    0.5606979514          0.2206
C612       C    0.4182387848    0.0985780600    0.5345623044         -0.1633
C613       C    0.4022488268    0.0825934000    0.5032779169         -0.1633
C614       C    0.3671369817    0.0859743918    0.4980792809          0.2206
C615       C    0.3480405970    0.1053655374    0.5242149279         -0.1633
C616       C    0.3640305550    0.1213501974    0.5554993154         -0.1633
H611       H    0.4444778087    0.0960476043    0.5384408899          0.0883
H612       H    0.4165249416    0.0681039990    0.4837510450          0.0883
H613       H    0.3217951625    0.1078986861    0.5203388184          0.0883
H614       H    0.3497480295    0.1358422914    0.5750286633          0.0883
C601       C    0.3592421507    0.5175194877    0.4033876803          0.2206
C602       C    0.3924032121    0.5296818544    0.3985184585         -0.1633
C603       C    0.4184645699    0.5179794490    0.4226169093         -0.1633
C604       C    0.4114064313    0.4940960129    0.4516230163          0.2206
C605       C    0.3782453698    0.4819336462    0.4564922381         -0.1633
C606       C    0.3521840121    0.4936360516    0.4323937873         -0.1633
H601       H    0.3976841727    0.5475297255    0.3768446325          0.0883
H602       H    0.4432433709    0.5270721495    0.4189723723          0.0883
H603       H    0.3729596530    0.4640815124    0.4781700702          0.0883
H604       H    0.3274004548    0.4845390884    0.4360423304          0.0883
C591       C    0.0600511015    0.8454302623    0.6071111367          0.2206
C592       C    0.0369857781    0.8225658085    0.6237077929         -0.1633
C593       C    0.0487018560    0.7964886204    0.6477827100         -0.1633
C594       C    0.0835019432    0.7932342957    0.6552993679          0.2206
C595       C    0.1065672666    0.8160987495    0.6387027117         -0.1633
C596       C    0.0948511888    0.8421759376    0.6146277946         -0.1633
H591       H    0.0109788236    0.8249923620    0.6180951394          0.0883
H592       H    0.0314603012    0.7794054899    0.6601817387          0.0883
H593       H    0.1325810643    0.8136745151    0.6443142913          0.0883
H594       H    0.1120995867    0.8592613872    0.6022276920          0.0883
C581       C    0.1520611471    0.6180697839    0.5606347986          0.2206
C582       C    0.1502779479    0.5827139297    0.5566765927         -0.1633
C583       C    0.1662575883    0.5667324115    0.5253875229         -0.1633
C584       C    0.1840459138    0.5860812586    0.4980067560          0.2206
C585       C    0.1858291130    0.6214371128    0.5019649619         -0.1633
C586       C    0.1698494726    0.6374186310    0.5332540317         -0.1633
H581       H    0.1369864909    0.5682491268    0.5771340641          0.0883
H582       H    0.1649213212    0.5403110138    0.5224360338          0.0883
H583       H    0.1991228845    0.6359083851    0.4815047206          0.0883
H584       H    0.1711880543    0.6638464981    0.5362027509          0.0883
C571       C    0.8591605666    0.9017043124    0.4034016989          0.2206
C572       C    0.8696465057    0.8821265997    0.4351190494         -0.1633
C573       C    0.8957394344    0.8937859321    0.4592134025         -0.1633
C574       C    0.9113880395    0.9250415725    0.4516288332          0.2206
C575       C    0.9009021004    0.9446192852    0.4199114828         -0.1633
C576       C    0.8748091717    0.9329599529    0.3958171296         -0.1633
H571       H    0.8579564916    0.8587687462    0.4407930317          0.0883
H572       H    0.9035708806    0.8791510240    0.4829136081          0.0883
H573       H    0.9125927250    0.9679831502    0.4142328527          0.0883
H574       H    0.8669783360    0.9476008724    0.3721122762          0.0883
C561       C    0.5833853526    0.6259232991    0.6554049374          0.2206
C562       C    0.5521001346    0.6291092295    0.6364394804         -0.1633
C563       C    0.5404376672    0.6030154110    0.6123482759         -0.1633
C564       C    0.5600418175    0.5736940452    0.6071841056          0.2206
C565       C    0.5913270355    0.5705081149    0.6261495626         -0.1633
C566       C    0.6029895029    0.5966019333    0.6502407670         -0.1633
H561       H    0.5374454665    0.6510182414    0.6402938851          0.0883
H562       H    0.5170577082    0.6054022969    0.5981788131          0.0883
H563       H    0.6059877218    0.5485952586    0.6222967900          0.0883
H564       H    0.6263754801    0.5942112032    0.6644118620          0.0883
C551       C    0.6519283663    0.8011630888    0.5607283830          0.2206
C552       C    0.6823344920    0.8189398732    0.5664582880         -0.1633
C553       C    0.6983237309    0.8349294327    0.5351602967         -0.1633
C554       C    0.6839323453    0.8331677094    0.4980824834          0.2206
C555       C    0.6535262196    0.8153909250    0.4923525784         -0.1633
C556       C    0.6375369807    0.7994013656    0.5236505697         -0.1633
H551       H    0.6930940983    0.8202600915    0.5941633135          0.0883
H552       H    0.7210457082    0.8482122618    0.5394496871          0.0883
H553       H    0.6427613156    0.8140683961    0.4646424905          0.0883
H554       H    0.6148097057    0.7861162259    0.5193561169          0.0883
C541       C    0.6918542088    0.4015959388    0.4034951225          0.2206
C542       C    0.6821101115    0.3826235725    0.4360049389         -0.1633
C543       C    0.6560310930    0.3943315221    0.4600822181         -0.1633
C544       C    0.6396545784    0.4250305110    0.4516880816          0.2206
C545       C    0.6493986756    0.4440028774    0.4191782651         -0.1633
C546       C    0.6754776942    0.4322949277    0.3951009860         -0.1633
H541       H    0.6943441669    0.3596817700    0.4422839866          0.0883
H542       H    0.6487540949    0.3801490382    0.4843747152          0.0883
H543       H    0.6371638359    0.4669505539    0.4128943802          0.0883
H544       H    0.6827539079    0.4464832857    0.3708036516          0.0883
C531       C    0.9909777245    0.0736782203    0.6071709204          0.2206
C532       C    0.0002684940    0.0743072851    0.6463603055         -0.1633
C533       C    0.9885693413    0.1003751839    0.6704516126         -0.1633
C534       C    0.9675607601    0.1258555933    0.6553919578          0.2206
C535       C    0.9582699905    0.1252265284    0.6162025728         -0.1633
C536       C    0.9699691433    0.0991586297    0.5921112656         -0.1633
H531       H    0.0159677042    0.0552689918    0.6576211532          0.0883
H532       H    0.9955158143    0.1008396246    0.6997364049          0.0883
H533       H    0.9425671972    0.1442677607    0.6049353095          0.0883
H534       H    0.9630190871    0.0986971279    0.5628200579          0.0883
C521       C    0.8990183867    0.3010589260    0.5607672018          0.2206
C522       C    0.9133922860    0.2992910722    0.5236746404         -0.1633
C523       C    0.8974077049    0.3152738495    0.4923896181         -0.1633
C524       C    0.8670237308    0.3330499716    0.4981472608          0.2206
C525       C    0.8526498316    0.3348178255    0.5352398222         -0.1633
C526       C    0.8686344126    0.3188350481    0.5665248445         -0.1633
H521       H    0.9360977083    0.2860087366    0.5193645218          0.0883
H522       H    0.9081542410    0.3139490507    0.4646735672          0.0883
H523       H    0.8299391163    0.3481024723    0.5395550082          0.0883
H524       H    0.8578825836    0.3201621582    0.5942459628          0.0883
C511       C    0.1452477665    0.3085829665    0.7761766850          0.2206
C512       C    0.1338018383    0.2760261982    0.7860553116         -0.1633
C513       C    0.1013348168    0.2654065012    0.7748969388         -0.1633
C514       C    0.0802619421    0.2873266353    0.7538421428          0.2206
C515       C    0.0917078704    0.3198834037    0.7439635162         -0.1633
C516       C    0.1241748918    0.3305031006    0.7551218891         -0.1633
H511       H    0.1495445432    0.2596407965    0.8017891813          0.0883
H512       H    0.0927872752    0.2410759587    0.7822826565          0.0883
H513       H    0.0759640269    0.3362752478    0.7282259884          0.0883
H514       H    0.1327212950    0.3548400855    0.7477325132          0.0883
C501       C    0.1977747543    0.5143876944    0.8049255349          0.2206
C502       C    0.1732645400    0.5181645163    0.7758224894         -0.1633
C503       C    0.1626667085    0.5506287434    0.7646562951         -0.1633
C504       C    0.1765621889    0.5793679258    0.7825753374          0.2206
C505       C    0.2010724033    0.5755911039    0.8116783829         -0.1633
C506       C    0.2116702347    0.5431268768    0.8228445772         -0.1633
H501       H    0.1628767556    0.4966920254    0.7624273770          0.0883
H502       H    0.1443501420    0.5534444086    0.7429071792          0.0883
H503       H    0.2114647294    0.5970665468    0.8250790561          0.0883
H504       H    0.2299913431    0.5403141637    0.8445992539          0.0883
C491       C    0.3591588918    0.4016782824    0.9033793845          0.2206
C492       C    0.3772327104    0.4310813390    0.8935042624         -0.1633
C493       C    0.4033252723    0.4427604638    0.9175866526         -0.1633
C494       C    0.4113856307    0.4250551590    0.9515825738          0.2206
C495       C    0.3933118121    0.3956521024    0.9614576959         -0.1633
C496       C    0.3672192502    0.3839729776    0.9373753057         -0.1633
H491       H    0.3712141389    0.4443168170    0.8681010542          0.0883
H492       H    0.4168278869    0.4647336950    0.9102007176          0.0883
H493       H    0.3993291994    0.3824110534    0.9868660923          0.0883
H494       H    0.3537154514    0.3619941754    0.9447664288          0.0883
C481       C    0.1977698071    0.4048256457    0.3049509322          0.2206
C482       C    0.1664241611    0.4004828727    0.2864118677         -0.1633
C483       C    0.1558017666    0.3680129239    0.2752675440         -0.1633
C484       C    0.1765080764    0.3398339618    0.2826445107          0.2206
C485       C    0.2078537223    0.3441767348    0.3011835752         -0.1633
C486       C    0.2184761169    0.3766466836    0.3123278989         -0.1633
H481       H    0.1509459691    0.4215366547    0.2808958895          0.0883
H482       H    0.1323764155    0.3647742691    0.2614139247          0.0883
H483       H    0.2233380700    0.3231201340    0.3067026183          0.0883
H484       H    0.2419076236    0.3798825195    0.3261845830          0.0883
C471       C    0.9707041235    0.2873136973    0.2539014906          0.2206
C472       C    0.9509226188    0.3067922807    0.2285261363         -0.1633
C473       C    0.9184573701    0.3173941999    0.2396828272         -0.1633
C474       C    0.9057218472    0.3085344447    0.2762326661          0.2206
C475       C    0.9255033519    0.2890558613    0.3016080204         -0.1633
C476       C    0.9579686007    0.2784539421    0.2904513295         -0.1633
H471       H    0.9604340016    0.3134163735    0.2012112976          0.0883
H472       H    0.9036798325    0.3319501331    0.2207148820          0.0883
H473       H    0.9159928023    0.2824284173    0.3289301823          0.0883
H474       H    0.9727469715    0.2638946576    0.3094265979          0.0883
C461       C    0.0834068064    0.1259272711    0.1554338338          0.2206
C462       C    0.0889851252    0.1276061081    0.1153720251         -0.1633
C463       C    0.0773096071    0.1015218954    0.0912754982         -0.1633
C464       C    0.0600371490    0.0737172441    0.1072023486          0.2206
C465       C    0.0544588301    0.0720384072    0.1472641572         -0.1633
C466       C    0.0661343483    0.0981226199    0.1713606841         -0.1633
H461       H    0.1018919686    0.1483815322    0.1034630358          0.0883
H462       H    0.0814813956    0.1027823800    0.0613386592          0.0883
H463       H    0.0415492845    0.0512594964    0.1591797678          0.0883
H464       H    0.0619598575    0.0968586486    0.2013041443          0.0883
C451       C    0.1519557388    0.3011396374    0.0607510847          0.2206
C452       C    0.1873911223    0.3002232727    0.0573812330         -0.1633
C453       C    0.2033741058    0.3162060517    0.0260745708         -0.1633
C454       C    0.1839471969    0.3331306861    0.9980878295          0.2206
C455       C    0.1485118133    0.3340470508    0.0014576812         -0.1633
C456       C    0.1325288299    0.3180642718    0.0327643434         -0.1633
H451       H    0.2019142688    0.2875773375    0.0782916048          0.0883
H452       H    0.2298549433    0.3155176545    0.0235628204          0.0883
H453       H    0.1339821789    0.3466950958    0.9805443982          0.0883
H454       H    0.1060415044    0.3187547789    0.0352731826          0.0883
C441       C    0.6453813972    0.1105711098    0.7760777651          0.2206
C442       C    0.6207693487    0.1175749470    0.8042834884         -0.1633
C443       C    0.5883049980    0.1281742157    0.7931311941         -0.1633
C444       C    0.5804009184    0.1317865519    0.7537553896          0.2206
C445       C    0.6050129669    0.1247827146    0.7255496662         -0.1633
C446       C    0.6374773177    0.1141834459    0.7367019606         -0.1633
H441       H    0.6266697192    0.1148774194    0.8337104500          0.0883
H442       H    0.5699171199    0.1334065455    0.8142145513          0.0883
H443       H    0.5991145723    0.1274798412    0.6961147125          0.0883
H444       H    0.6558671716    0.1089507151    0.7156106112          0.0883
C431       C    0.6977506924    0.9048174856    0.8049472963          0.2206
C432       C    0.6669430702    0.9006171993    0.7852282047         -0.1633
C433       C    0.6563159031    0.8681505321    0.7740773507         -0.1633
C434       C    0.6764794090    0.8398323703    0.7826278038          0.2206
C435       C    0.7072870311    0.8440326567    0.8023468955         -0.1633
C436       C    0.7179141983    0.8764993238    0.8134977495         -0.1633
H431       H    0.6518705679    0.9217750195    0.7788351632          0.0883
H432       H    0.6332926712    0.8650183708    0.7593417825          0.0883
H433       H    0.7223655613    0.8228719842    0.8087432801          0.0883
H434       H    0.7409434580    0.8796286329    0.8282366608          0.0883
C421       C    0.8592226556    0.0175195354    0.9033965848          0.2206
C422       C    0.8929576041    0.0266370833    0.8957789118         -0.1633
C423       C    0.9190222292    0.0149461822    0.9198800384         -0.1633
C424       C    0.9113934762    0.9941190875    0.9516372769          0.2206
C425       C    0.8776585277    0.9850015396    0.9592549499         -0.1633
C426       C    0.8515939026    0.9966924406    0.9351538232         -0.1633
H421       H    0.8986650416    0.0422006526    0.8720488954          0.0883
H422       H    0.9442299517    0.0217631879    0.9141813130          0.0883
H423       H    0.8719461986    0.9694344290    0.9829896227          0.0883
H424       H    0.8263812885    0.9898718938    0.9408572051          0.0883
C411       C    0.6765387642    0.0793996364    0.2825513013          0.2206
C412       C    0.6957690628    0.0594959078    0.2570541039         -0.1633
C413       C    0.7063761634    0.0270359814    0.2682251036         -0.1633
C414       C    0.6977698826    0.0144280135    0.3049111173          0.2206
C415       C    0.6785395840    0.0343317421    0.3304083146         -0.1633
C416       C    0.6679324834    0.0667916684    0.3192373149         -0.1633
H411       H    0.7022037104    0.0689119574    0.2296374915          0.0883
H412       H    0.7207465279    0.0121670927    0.2491660900          0.0883
H413       H    0.6721016445    0.0249165552    0.3578322807          0.0883
H414       H    0.6535588271    0.0816614199    0.3383036823          0.0883
C401       C    0.4707978778    0.1317878929    0.2537617618          0.2206
C402       C    0.4518894807    0.1104354680    0.2294941233         -0.1633
C403       C    0.4194252082    0.0998095387    0.2406772196         -0.1633
C404       C    0.4058175556    0.1105190871    0.2761457905          0.2206
C405       C    0.4247259527    0.1318715119    0.3004134291         -0.1633
C406       C    0.4571902252    0.1424974412    0.2892303327         -0.1633
H401       H    0.4620526919    0.1024288377    0.2029874282          0.0883
H402       H    0.4053002295    0.0838531049    0.2225371735          0.0883
H403       H    0.4145633683    0.1398819339    0.3269271885          0.0883
H404       H    0.4713158308    0.1584576667    0.3073774432          0.0883
C391       C    0.5834692496    0.2932569319    0.1552490940          0.2206
C392       C    0.5485527061    0.2992330911    0.1516303122         -0.1633
C393       C    0.5368476935    0.3253130972    0.1275523465         -0.1633
C394       C    0.5600405562    0.3454585390    0.1070547608          0.2206
C395       C    0.5949570997    0.3394823797    0.1106735425         -0.1633
C396       C    0.6066621122    0.3134023736    0.1347515082         -0.1633
H391       H    0.5312158310    0.2841821462    0.1669448884          0.0883
H392       H    0.5107536973    0.3297739446    0.1248529597          0.0883
H393       H    0.6123008467    0.3545350004    0.0953569703          0.0883
H394       H    0.6327629804    0.3089432019    0.1374488989          0.0883
C381       C    0.6520238525    0.1180749404    0.0606127836          0.2206
C382       C    0.6444853205    0.1280549744    0.0225987327         -0.1633
C383       C    0.6604707643    0.1120670178    0.9913178195         -0.1633
C384       C    0.6840202353    0.0860735280    0.9980010674          0.2206
C385       C    0.6915587673    0.0760934940    0.0360151183         -0.1633
C386       C    0.6755733235    0.0920814506    0.0672960315         -0.1633
H381       H    0.6268879943    0.1474789554    0.0175968193          0.0883
H382       H    0.6548329698    0.1195295872    0.9629130479          0.0883
H383       H    0.7091597699    0.0566652588    0.0410223176          0.0883
H384       H    0.6812147944    0.0846146271    0.0957060890          0.0883
C371       C    0.4057104227    0.8085467683    0.7762461825          0.2206
C372       C    0.4212254659    0.7811877582    0.7951981563         -0.1633
C373       C    0.4536863622    0.7705821846    0.7840294932         -0.1633
C374       C    0.4706839871    0.7873187063    0.7538910435          0.2206
C375       C    0.4551689439    0.8146777164    0.7349390697         -0.1633
C376       C    0.4227080476    0.8252832899    0.7461077328         -0.1633
H371       H    0.4085285944    0.7686765828    0.8177211310          0.0883
H372       H    0.4652751547    0.7501364348    0.7981966173          0.0883
H373       H    0.4678659907    0.8271941065    0.7124102896          0.0883
H374       H    0.4111194304    0.8457342545    0.7319348033          0.0883
C361       C    0.3533412940    0.0142872189    0.8050220932          0.2206
C362       C    0.3818628997    0.0181389663    0.7811476703         -0.1633
C363       C    0.3924871755    0.0506034652    0.7699628862         -0.1633
C364       C    0.3746067902    0.0792679944    0.7826346864          0.2206
C365       C    0.3460851846    0.0754162470    0.8065091093         -0.1633
C366       C    0.3354609088    0.0429517481    0.8176938934         -0.1633
H361       H    0.3952290009    0.9967222711    0.7716743337          0.0883
H362       H    0.4138018432    0.0534751295    0.7521216380          0.0883
H363       H    0.3327135959    0.0968358765    0.8159867678          0.0883
H364       H    0.3141407536    0.0400830181    0.8355394635          0.0883
C351       C    0.1918577980    0.9016230198    0.9035298267          0.2206
C352       C    0.1958539769    0.9320328715    0.9240906235         -0.1633
C353       C    0.1697698160    0.9437435444    0.9481589096         -0.1633
C354       C    0.1396478746    0.9250630429    0.9517047855          0.2206
C355       C    0.1356516956    0.8946531912    0.9311439888         -0.1633
C356       C    0.1617358565    0.8829425183    0.9070757026         -0.1633
H351       H    0.2183613399    0.9459972167    0.9214457243          0.0883
H352       H    0.1727622782    0.9664692456    0.9635207317          0.0883
H353       H    0.1131402979    0.8806830406    0.9337868758          0.0883
H354       H    0.1587393596    0.8602110117    0.8917118683          0.0883
C341       C    0.3745299415    0.8397203614    0.2827041580          0.2206
C342       C    0.3898730821    0.8684877566    0.2664365779         -0.1633
C343       C    0.3792751109    0.9009535797    0.2775852288         -0.1633
C344       C    0.3533170965    0.9047037873    0.3050192407          0.2206
C345       C    0.3379739559    0.8759363921    0.3212868208         -0.1633
C346       C    0.3485719271    0.8434705690    0.3101381700         -0.1633
H341       H    0.4092717319    0.8656919833    0.2459348910          0.0883
H342       H    0.3907448740    0.9224471565    0.2654244202          0.0883
H343       H    0.3185704219    0.8787292069    0.3417936759          0.0883
H344       H    0.3370972797    0.8219740337    0.3223041466          0.0883
C331       C    0.5802862332    0.7873341511    0.2538498672          0.2206
C332       C    0.5866262153    0.7963338386    0.2924613600         -0.1633
C333       C    0.6190905994    0.8069643758    0.3036163034         -0.1633
C334       C    0.6452667787    0.8086121803    0.2761775450          0.2206
C335       C    0.6389267966    0.7996124928    0.2375660522         -0.1633
C336       C    0.6064624125    0.7889819555    0.2264111088         -0.1633
H331       H    0.5670693086    0.7951046055    0.3129714895          0.0883
H332       H    0.6238219662    0.8136883938    0.3324720191          0.0883
H333       H    0.6584860491    0.8008408565    0.2170481117          0.0883
H334       H    0.6017333915    0.7822570682    0.1975475820          0.0883
C321       C    0.4909901609    0.5737000562    0.1071264661          0.2206
C322       C    0.5103046687    0.6032969078    0.1118019511         -0.1633
C323       C    0.4986133087    0.6293568471    0.1359094137         -0.1633
C324       C    0.4675887945    0.6258614977    0.1553798401          0.2206
C325       C    0.4482742867    0.5962646460    0.1507043551         -0.1633
C326       C    0.4599656467    0.5702047067    0.1265968925         -0.1633
H321       H    0.5334897718    0.6059150455    0.0972550786          0.0883
H322       H    0.5130515048    0.6514717641    0.1393985723          0.0883
H323       H    0.4250832305    0.5936425948    0.1652529773          0.0883
H324       H    0.4455214975    0.5480858763    0.1231094836          0.0883
C311       C    0.3990433907    0.8010610169    0.0607849995          0.2206
C312       C    0.3834425798    0.8326987665    0.0659259058         -0.1633
C313       C    0.3674553093    0.8486841398    0.0346444056         -0.1633
C314       C    0.3670433518    0.8330572585    0.9981721082          0.2206
C315       C    0.3826441627    0.8014195090    0.9930312019         -0.1633
C316       C    0.3986314332    0.7854341356    0.0243127021         -0.1633
H311       H    0.3837469673    0.8443817793    0.0931783733          0.0883
H312       H    0.3557987986    0.8723266316    0.0384935757          0.0883
H313       H    0.3823415714    0.7897309067    0.9657738133          0.0883
H314       H    0.4102897402    0.7617860544    0.0204586108          0.0883
C301       C    0.8745979796    0.5792510100    0.2826217682          0.2206
C302       C    0.8670848585    0.5725120046    0.3215655386         -0.1633
C303       C    0.8564580471    0.5400468637    0.3327447547         -0.1633
C304       C    0.8533274081    0.5142689496    0.3049980301          0.2206
C305       C    0.8608405292    0.5210079550    0.2660542596         -0.1633
C306       C    0.8714673406    0.5534730959    0.2548750435         -0.1633
H301       H    0.8694223605    0.5917712484    0.3423058469          0.0883
H302       H    0.8508450855    0.5350172678    0.3618488089          0.0883
H303       H    0.8585035456    0.5017464596    0.2453060646          0.0883
H304       H    0.8770808205    0.5585004402    0.2257631026          0.0883
C291       C    0.0804000923    0.6317827835    0.2537584354          0.2206
C292       C    0.0902524046    0.5979488261    0.2482863315         -0.1633
C293       C    0.1227191785    0.5873552000    0.2594364293         -0.1633
C294       C    0.1453854212    0.6105786356    0.2760764143          0.2206
C295       C    0.1355331089    0.6444125930    0.2815485182         -0.1633
C296       C    0.1030663351    0.6550062191    0.2703984204         -0.1633
H291       H    0.0733188190    0.5805893449    0.2358520822          0.0883
H292       H    0.1300756542    0.5620700829    0.2553441410          0.0883
H293       H    0.1524682099    0.6617788218    0.2939853825          0.0883
H294       H    0.0957113747    0.6802980837    0.2744933237          0.0883
C281       C    0.9676429574    0.7931614283    0.1553574034          0.2206
C282       C    0.9823556629    0.8222769970    0.1715534320         -0.1633
C283       C    0.9940121537    0.8483931775    0.1474706519         -0.1633
C284       C    0.9909745299    0.8454354418    0.1071534337          0.2206
C285       C    0.9762618244    0.8163198731    0.0909574051         -0.1633
C286       C    0.9646053336    0.7902036927    0.1150401852         -0.1633
H281       H    0.9846285360    0.8244933354    0.2016811667          0.0883
H282       H    0.0050058464    0.8701483721    0.1595808217          0.0883
H283       H    0.9739868521    0.8140997417    0.0608229873          0.0883
H284       H    0.9536095417    0.7684447051    0.1029233322          0.0883
C271       C    0.9058466136    0.6105133014    0.7761415024          0.2206
C272       C    0.9308027925    0.6164504925    0.8042682310         -0.1633
C273       C    0.9632709456    0.6270719083    0.7930942497         -0.1633
C274       C    0.9708347030    0.6317730733    0.7537757184          0.2206
C275       C    0.9458785240    0.6258358823    0.7256489899         -0.1633
C276       C    0.9134103709    0.6152144664    0.7368229712         -0.1633
H271       H    0.9251567791    0.6129391809    0.8336523819          0.0883
H272       H    0.9819160253    0.6315070237    0.8141185711          0.0883
H273       H    0.9515224806    0.6293470476    0.6962568630          0.0883
H274       H    0.8947632344    0.6107792049    0.7157906738          0.0883
C261       C    0.8533114900    0.4047158817    0.8049962543          0.2206
C262       C    0.8698043835    0.4000147429    0.7694185294         -0.1633
C263       C    0.8803962346    0.3675467743    0.7582704313         -0.1633
C264       C    0.8745120850    0.3397281614    0.7826822779          0.2206
C265       C    0.8580191915    0.3444293002    0.8182600027         -0.1633
C266       C    0.8474273405    0.3768972688    0.8294081009         -0.1633
H261       H    0.8742045115    0.4207992008    0.7511707101          0.0883
H262       H    0.8927206704    0.3640402770    0.7316821470          0.0883
H263       H    0.8536164172    0.3236421084    0.8365149164          0.0883
H264       H    0.8351002583    0.3804010322    0.8560034795          0.0883
C251       C    0.6919379159    0.5174713308    0.9033950697          0.2206
C252       C    0.6822961027    0.4832385301    0.9024128890         -0.1633
C253       C    0.6561813994    0.4715756713    0.9264935867         -0.1633
C254       C    0.6396668590    0.4941270120    0.9515948715          0.2206
C255       C    0.6493086722    0.5283598127    0.9525770523         -0.1633
C256       C    0.6754233755    0.5400226715    0.9284963545         -0.1633
H251       H    0.6946333105    0.4663811368    0.8836575166          0.0883
H252       H    0.6489808561    0.4459926940    0.9257542214          0.0883
H253       H    0.6369706516    0.5452239213    0.9713355093          0.0883
H254       H    0.6826231060    0.5656123640    0.9292388045          0.0883
C241       C    0.8671436424    0.5859693853    0.9980646351          0.2206
C242       C    0.8992248836    0.6007503628    0.9931978085         -0.1633
C243       C    0.9152119037    0.6167328459    0.0244856008         -0.1633
C244       C    0.8991431802    0.6179598419    0.0606901206          0.2206
C245       C    0.8670619390    0.6031788645    0.0655569472         -0.1633
C246       C    0.8510749189    0.5871963814    0.0342691549         -0.1633
H241       H    0.9112381289    0.5998368158    0.9661454789          0.0883
H242       H    0.9391858600    0.6277766155    0.0208412760          0.0883
H243       H    0.8550429995    0.6040908086    0.0926141338          0.0883
H244       H    0.8270952684    0.5761510089    0.0379183368          0.0883
loop_
_geom_bond_atom_site_label_1
_geom_bond_atom_site_label_2
_geom_bond_distance
_geom_bond_site_symmetry_2
_ccdc_geom_bond_type
Fe1         S11 2.287       .   S
Fe1         S12 2.287       .   S
Fe1          S2 2.296       .   S
Fe1          S3 2.271       .   S
S2          Fe9 2.296       .   S
S2          Fe7 2.296       .   S
S3         C271 1.674       .   S
Fe4         S12 2.287       .   S
Fe4         S11 2.287       .   S
Fe4          S5 2.296       .   S
Fe4          S6 2.271       .   S
S5          Fe7 2.296       .   S
S5          Fe9 2.296       .   S
S6         C251 1.418       .   S
Fe7          S8 2.271       .   S
Fe7         S11 2.296       .   S
S8         C241 1.417       .   S
Fe9         S10 2.271       .   S
Fe9         S12 2.296       .   S
S10        C261 1.676       .   S
Fe13        S23 2.287       .   S
Fe13        S24 2.287       .   S
Fe13        S14 2.296       .   S
Fe13        S15 2.271       .   S
S14        Fe21 2.296       .   S
S14        Fe19 2.296       .   S
S15        C244 1.417   1_554   S
Fe16        S24 2.287       .   S
Fe16        S23 2.287       .   S
Fe16        S17 2.296       .   S
Fe16        S18 2.271       .   S
S17        Fe19 2.296       .   S
S17        Fe21 2.296       .   S
S18        C291 1.676       .   S
Fe19        S20 2.271       .   S
Fe19        S23 2.296       .   S
S20        C301 1.674       .   S
Fe21        S22 2.271       .   S
Fe21        S24 2.296       .   S
S22        C281 1.418       .   S
Fe25        S35 2.287       .   S
Fe25        S36 2.287       .   S
Fe25        S26 2.296       .   S
Fe25        S27 2.271       .   S
S26        Fe33 2.296       .   S
S26        Fe31 2.296       .   S
S27        C311 1.418       .   S
Fe28        S36 2.287       .   S
Fe28        S35 2.287       .   S
Fe28        S29 2.296       .   S
Fe28        S30 2.271       .   S
S29        Fe31 2.296       .   S
S29        Fe33 2.296       .   S
S30        C331 1.675       .   S
Fe31        S32 2.271       .   S
Fe31        S35 2.296       .   S
S32        C324 1.421       .   S
Fe33        S34 2.271       .   S
Fe33        S36 2.296       .   S
S34        C341 1.676       .   S
Fe37        S47 2.287       .   S
Fe37        S48 2.287       .   S
Fe37        S38 2.296       .   S
Fe37        S39 2.271       .   S
S38        Fe45 2.296       .   S
S38        Fe43 2.296       .   S
S39        C314 1.418   1_556   S
Fe40        S48 2.287       .   S
Fe40        S47 2.287       .   S
Fe40        S41 2.296       .   S
Fe40        S42 2.271       .   S
S41        Fe43 2.296       .   S
S41        Fe45 2.296       .   S
S42        C361 1.674       .   S
Fe43        S44 2.271       .   S
Fe43        S47 2.296       .   S
S44        C351 1.420       .   S
Fe45        S46 2.271       .   S
Fe45        S48 2.296       .   S
S46        C371 1.675       .   S
Fe49        S59 2.287       .   S
Fe49        S60 2.287       .   S
Fe49        S50 2.296       .   S
Fe49        S51 2.271       .   S
S50        Fe57 2.296       .   S
S50        Fe55 2.296       .   S
S51        C381 1.418       .   S
Fe52        S60 2.287       .   S
Fe52        S59 2.287       .   S
Fe52        S53 2.296       .   S
Fe52        S54 2.271       .   S
S53        Fe55 2.296       .   S
S53        Fe57 2.296       .   S
S54        C401 1.674       .   S
Fe55        S56 2.271       .   S
Fe55        S59 2.296       .   S
S56        C391 1.420       .   S
Fe57        S58 2.271       .   S
Fe57        S60 2.296       .   S
S58        C411 1.676       .   S
Fe61        S71 2.287       .   S
Fe61        S72 2.287       .   S
Fe61        S62 2.296       .   S
Fe61        S63 2.271       .   S
S62        Fe69 2.296       .   S
S62        Fe67 2.296       .   S
S63        C441 1.676       .   S
Fe64        S72 2.287       .   S
Fe64        S71 2.287       .   S
Fe64        S65 2.296       .   S
Fe64        S66 2.271       .   S
S65        Fe67 2.296       .   S
S65        Fe69 2.296       .   S
S66        C421 1.421       .   S
Fe67        S68 2.271       .   S
Fe67        S71 2.296       .   S
S68        C431 1.675       .   S
Fe69        S70 2.271       .   S
Fe69        S72 2.296       .   S
S70        C384 1.418   1_556   S
Fe73        S83 2.287       .   S
Fe73        S84 2.287       .   S
Fe73        S74 2.296       .   S
Fe73        S75 2.271       .   S
S74        Fe81 2.296       .   S
S74        Fe79 2.296       .   S
S75        C451 1.417       .   S
Fe76        S84 2.287       .   S
Fe76        S83 2.287       .   S
Fe76        S77 2.296       .   S
Fe76        S78 2.271       .   S
S77        Fe79 2.296       .   S
S77        Fe81 2.296       .   S
S78        C471 1.676       .   S
Fe79        S80 2.271       .   S
Fe79        S83 2.296       .   S
S80        C484 1.675       .   S
Fe81        S82 2.271       .   S
Fe81        S84 2.296       .   S
S82        C461 1.420       .   S
Fe85        S95 2.287       .   S
Fe85        S96 2.287       .   S
Fe85        S86 2.296       .   S
Fe85        S87 2.271       .   S
S86        Fe93 2.296       .   S
S86        Fe91 2.296       .   S
S87        C454 1.417   1_556   S
Fe88        S96 2.287       .   S
Fe88        S95 2.287       .   S
Fe88        S89 2.296       .   S
Fe88        S90 2.271       .   S
S89        Fe91 2.296       .   S
S89        Fe93 2.296       .   S
S90        C501 1.676       .   S
Fe91        S92 2.271       .   S
Fe91        S95 2.296       .   S
S92        C511 1.675       .   S
Fe93        S94 2.271       .   S
Fe93        S96 2.296       .   S
S94        C491 1.419       .   S
Fe97       S107 2.287       .   S
Fe97       S108 2.287       .   S
Fe97        S98 2.296       .   S
Fe97        S99 2.271       .   S
S98       Fe105 2.296       .   S
S98       Fe103 2.296       .   S
S99        C464 1.420   1_565   S
Fe100      S108 2.287       .   S
Fe100      S107 2.287       .   S
Fe100      S101 2.296       .   S
Fe100      S102 2.271       .   S
S101      Fe103 2.296       .   S
S101      Fe105 2.296       .   S
S102       C284 1.418   1_455   S
Fe103      S104 2.271       .   S
Fe103      S107 2.296       .   S
S104       C354 1.420   1_554   S
Fe105      S106 2.271       .   S
Fe105      S108 2.296       .   S
S106       C424 1.421   1_464   S
Fe109      S119 2.287       .   S
Fe109      S120 2.287       .   S
Fe109      S110 2.296       .   S
Fe109      S111 2.271       .   S
S110      Fe117 2.296       .   S
S110      Fe115 2.296       .   S
S111       C254 1.418   1_554   S
Fe112      S120 2.287       .   S
Fe112      S119 2.287       .   S
Fe112      S113 2.296       .   S
Fe112      S114 2.271       .   S
S113      Fe115 2.296       .   S
S113      Fe117 2.296       .   S
S114       C494 1.419   1_554   S
Fe115      S116 2.271       .   S
Fe115      S119 2.296       .   S
S116       C321 1.421       .   S
Fe117      S118 2.271       .   S
Fe117      S120 2.296       .   S
S118       C394 1.420       .   S
Fe121      S131 2.287       .   S
Fe121      S132 2.287       .   S
Fe121      S122 2.296       .   S
Fe121      S123 2.271       .   S
S122      Fe129 2.296       .   S
S122      Fe127 2.296       .   S
S123       C264 1.676       .   S
Fe124      S132 2.287       .   S
Fe124      S131 2.287       .   S
Fe124      S125 2.296       .   S
Fe124      S126 2.271       .   S
S125      Fe127 2.296       .   S
S125      Fe129 2.296       .   S
S126       C534 1.421       .   S
Fe127      S128 2.271       .   S
Fe127      S131 2.296       .   S
S128       C514 1.675   1_655   S
Fe129      S130 2.271       .   S
Fe129      S132 2.296       .   S
S130       C521 1.417       .   S
Fe133      S143 2.287       .   S
Fe133      S144 2.287       .   S
Fe133      S134 2.296       .   S
Fe133      S135 2.271       .   S
S134      Fe141 2.296       .   S
S134      Fe139 2.296       .   S
S135       C474 1.676   1_655   S
Fe136      S144 2.287       .   S
Fe136      S143 2.287       .   S
Fe136      S137 2.296       .   S
Fe136      S138 2.271       .   S
S137      Fe139 2.296       .   S
S137      Fe141 2.296       .   S
S138       C541 1.420       .   S
Fe139      S140 2.271       .   S
Fe139      S143 2.296       .   S
S140       C304 1.674       .   S
Fe141      S142 2.271       .   S
Fe141      S144 2.296       .   S
S142       C524 1.417       .   S
Fe145      S155 2.287       .   S
Fe145      S156 2.287       .   S
Fe145      S146 2.296       .   S
Fe145      S147 2.271       .   S
S146      Fe153 2.296       .   S
S146      Fe151 2.296       .   S
S147       C374 1.675       .   S
Fe148      S156 2.287       .   S
Fe148      S155 2.287       .   S
Fe148      S149 2.296       .   S
Fe148      S150 2.271       .   S
S149      Fe151 2.296       .   S
S149      Fe153 2.296       .   S
S150       C551 1.417       .   S
Fe151      S152 2.271       .   S
Fe151      S155 2.296       .   S
S152       C561 1.420       .   S
Fe153      S154 2.271       .   S
Fe153      S156 2.296       .   S
S154       C434 1.675   1_565   S
Fe157      S167 2.287       .   S
Fe157      S168 2.287       .   S
Fe157      S158 2.296       .   S
Fe157      S159 2.271       .   S
S158      Fe165 2.296       .   S
S158      Fe163 2.296       .   S
S159       C334 1.675       .   S
Fe160      S168 2.287       .   S
Fe160      S167 2.287       .   S
Fe160      S161 2.296       .   S
Fe160      S162 2.271       .   S
S161      Fe163 2.296       .   S
S161      Fe165 2.296       .   S
S162       C571 1.419       .   S
Fe163      S164 2.271       .   S
Fe163      S167 2.296       .   S
S164       C554 1.417       .   S
Fe165      S166 2.271       .   S
Fe165      S168 2.296       .   S
S166       C414 1.676   1_565   S
Fe169      S179 2.287       .   S
Fe169      S180 2.287       .   S
Fe169      S170 2.296       .   S
Fe169      S171 2.271       .   S
S170      Fe177 2.296       .   S
S170      Fe175 2.296       .   S
S171       C274 1.674   1_455   S
Fe172      S180 2.287       .   S
Fe172      S179 2.287       .   S
Fe172      S173 2.296       .   S
Fe172      S174 2.271       .   S
S173      Fe175 2.296       .   S
S173      Fe177 2.296       .   S
S174       C581 1.418       .   S
Fe175      S176 2.271       .   S
Fe175      S179 2.296       .   S
S176       C504 1.676       .   S
Fe177      S178 2.271       .   S
Fe177      S180 2.296       .   S
S178       C594 1.420       .   S
Fe181      S191 2.287       .   S
Fe181      S192 2.287       .   S
Fe181      S182 2.296       .   S
Fe181      S183 2.271       .   S
S182      Fe189 2.296       .   S
S182      Fe187 2.296       .   S
S183       C601 1.421       .   S
Fe184      S192 2.287       .   S
Fe184      S191 2.287       .   S
Fe184      S185 2.296       .   S
Fe184      S186 2.271       .   S
S185      Fe187 2.296       .   S
S185      Fe189 2.296       .   S
S186       C294 1.676   1_455   S
Fe187      S188 2.271       .   S
Fe187      S191 2.296       .   S
S188       C584 1.418       .   S
Fe189      S190 2.271       .   S
Fe189      S192 2.296       .   S
S190       C481 1.675       .   S
Fe193      S203 2.287       .   S
Fe193      S204 2.287       .   S
Fe193      S194 2.296       .   S
Fe193      S195 2.271       .   S
S194      Fe201 2.296       .   S
S194      Fe199 2.296       .   S
S195       C621 1.418       .   S
Fe196      S204 2.287       .   S
Fe196      S203 2.287       .   S
Fe196      S197 2.296       .   S
Fe196      S198 2.271       .   S
S197      Fe199 2.296       .   S
S197      Fe201 2.296       .   S
S198       C364 1.674   1_545   S
Fe199      S200 2.271       .   S
Fe199      S203 2.296       .   S
S200       C444 1.676       .   S
Fe201      S202 2.271       .   S
Fe201      S204 2.296       .   S
S202       C611 1.417       .   S
Fe205      S215 2.287       .   S
Fe205      S216 2.287       .   S
Fe205      S206 2.296       .   S
Fe205      S207 2.271       .   S
S206      Fe213 2.296       .   S
S206      Fe211 2.296       .   S
S207       C631 1.418       .   S
Fe208      S216 2.287       .   S
Fe208      S215 2.287       .   S
Fe208      S209 2.296       .   S
Fe208      S210 2.271       .   S
S209      Fe211 2.296       .   S
S209      Fe213 2.296       .   S
S210       C404 1.674       .   S
Fe211      S212 2.271       .   S
Fe211      S215 2.296       .   S
S212       C344 1.676   1_545   S
Fe213      S214 2.271       .   S
Fe213      S216 2.296       .   S
S214       C614 1.417       .   S
Fe217      S227 2.287       .   S
Fe217      S228 2.287       .   S
Fe217      S218 2.296       .   S
Fe217      S219 2.271       .   S
S218      Fe225 2.296       .   S
S218      Fe223 2.296       .   S
S219       C591 1.420       .   S
Fe220      S228 2.287       .   S
Fe220      S227 2.287       .   S
Fe220      S221 2.296       .   S
Fe220      S222 2.271       .   S
S221      Fe223 2.296       .   S
S221      Fe225 2.296       .   S
S222       C531 1.421   1_465   S
Fe223      S224 2.271       .   S
Fe223      S227 2.296       .   S
S224       C574 1.419   1_455   S
Fe225      S226 2.271       .   S
Fe225      S228 2.296       .   S
S226       C634 1.418   1_565   S
Fe229      S239 2.287       .   S
Fe229      S240 2.287       .   S
Fe229      S230 2.296       .   S
Fe229      S231 2.271       .   S
S230      Fe237 2.296       .   S
S230      Fe235 2.296       .   S
S231       C544 1.420       .   S
Fe232      S240 2.287       .   S
Fe232      S239 2.287       .   S
Fe232      S233 2.296       .   S
Fe232      S234 2.271       .   S
S233      Fe235 2.296       .   S
S233      Fe237 2.296       .   S
S234       C604 1.421       .   S
Fe235      S236 2.271       .   S
Fe235      S239 2.296       .   S
S236       C564 1.420       .   S
Fe237      S238 2.271       .   S
Fe237      S240 2.296       .   S
S238       C624 1.418       .   S
C631       C632 1.381       .   A
C631       C636 1.381       .   A
C632       C633 1.379       .   A
C632       H631 1.032       .   S
C633       C634 1.381       .   A
C633       H632 1.032       .   S
C634       C635 1.381       .   A
C635       C636 1.379       .   A
C635       H633 1.032       .   S
C636       H634 1.032       .   S
C621       C622 1.381       .   A
C621       C626 1.381       .   A
C622       C623 1.379       .   A
C622       H621 1.032       .   S
C623       C624 1.381       .   A
C623       H622 1.032       .   S
C624       C625 1.381       .   A
C625       C626 1.379       .   A
C625       H623 1.032       .   S
C626       H624 1.032       .   S
C611       C612 1.381       .   A
C611       C616 1.381       .   A
C612       C613 1.379       .   A
C612       H611 1.032       .   S
C613       C614 1.381       .   A
C613       H612 1.032       .   S
C614       C615 1.381       .   A
C615       C616 1.379       .   A
C615       H613 1.032       .   S
C616       H614 1.032       .   S
C601       C602 1.381       .   A
C601       C606 1.381       .   A
C602       C603 1.379       .   A
C602       H601 1.032       .   S
C603       C604 1.381       .   A
C603       H602 1.032       .   S
C604       C605 1.381       .   A
C605       C606 1.379       .   A
C605       H603 1.032       .   S
C606       H604 1.032       .   S
C591       C592 1.381       .   A
C591       C596 1.381       .   A
C592       C593 1.379       .   A
C592       H591 1.032       .   S
C593       C594 1.381       .   A
C593       H592 1.032       .   S
C594       C595 1.381       .   A
C595       C596 1.379       .   A
C595       H593 1.032       .   S
C596       H594 1.032       .   S
C581       C582 1.381       .   A
C581       C586 1.381       .   A
C582       C583 1.379       .   A
C582       H581 1.032       .   S
C583       C584 1.381       .   A
C583       H582 1.032       .   S
C584       C585 1.381       .   A
C585       C586 1.379       .   A
C585       H583 1.032       .   S
C586       H584 1.032       .   S
C571       C572 1.381       .   A
C571       C576 1.381       .   A
C572       C573 1.379       .   A
C572       H571 1.032       .   S
C573       C574 1.381       .   A
C573       H572 1.032       .   S
C574       C575 1.381       .   A
C575       C576 1.379       .   A
C575       H573 1.032       .   S
C576       H574 1.032       .   S
C561       C562 1.381       .   A
C561       C566 1.381       .   A
C562       C563 1.379       .   A
C562       H561 1.032       .   S
C563       C564 1.381       .   A
C563       H562 1.032       .   S
C564       C565 1.381       .   A
C565       C566 1.379       .   A
C565       H563 1.032       .   S
C566       H564 1.032       .   S
C551       C552 1.381       .   A
C551       C556 1.381       .   A
C552       C553 1.379       .   A
C552       H551 1.032       .   S
C553       C554 1.381       .   A
C553       H552 1.032       .   S
C554       C555 1.381       .   A
C555       C556 1.379       .   A
C555       H553 1.032       .   S
C556       H554 1.032       .   S
C541       C542 1.381       .   A
C541       C546 1.381       .   A
C542       C543 1.379       .   A
C542       H541 1.032       .   S
C543       C544 1.381       .   A
C543       H542 1.032       .   S
C544       C545 1.381       .   A
C545       C546 1.379       .   A
C545       H543 1.032       .   S
C546       H544 1.032       .   S
C531       C532 1.381       .   A
C531       C536 1.381       .   A
C532       C533 1.379       .   A
C532       H531 1.032       .   S
C533       C534 1.381       .   A
C533       H532 1.032       .   S
C534       C535 1.381       .   A
C535       C536 1.379       .   A
C535       H533 1.032       .   S
C536       H534 1.032       .   S
C521       C522 1.381       .   A
C521       C526 1.381       .   A
C522       C523 1.379       .   A
C522       H521 1.032       .   S
C523       C524 1.381       .   A
C523       H522 1.032       .   S
C524       C525 1.381       .   A
C525       C526 1.379       .   A
C525       H523 1.032       .   S
C526       H524 1.032       .   S
C511       C512 1.381       .   A
C511       C516 1.381       .   A
C512       C513 1.379       .   A
C512       H511 1.032       .   S
C513       C514 1.381       .   A
C513       H512 1.032       .   S
C514       C515 1.381       .   A
C515       C516 1.379       .   A
C515       H513 1.032       .   S
C516       H514 1.032       .   S
C501       C502 1.381       .   A
C501       C506 1.381       .   A
C502       C503 1.379       .   A
C502       H501 1.032       .   S
C503       C504 1.381       .   A
C503       H502 1.032       .   S
C504       C505 1.381       .   A
C505       C506 1.379       .   A
C505       H503 1.032       .   S
C506       H504 1.032       .   S
C491       C492 1.381       .   A
C491       C496 1.381       .   A
C492       C493 1.379       .   A
C492       H491 1.032       .   S
C493       C494 1.381       .   A
C493       H492 1.032       .   S
C494       C495 1.381       .   A
C495       C496 1.379       .   A
C495       H493 1.032       .   S
C496       H494 1.032       .   S
C481       C482 1.381       .   A
C481       C486 1.381       .   A
C482       C483 1.379       .   A
C482       H481 1.032       .   S
C483       C484 1.381       .   A
C483       H482 1.032       .   S
C484       C485 1.381       .   A
C485       C486 1.379       .   A
C485       H483 1.032       .   S
C486       H484 1.032       .   S
C471       C472 1.381       .   A
C471       C476 1.381       .   A
C472       C473 1.379       .   A
C472       H471 1.032       .   S
C473       C474 1.381       .   A
C473       H472 1.032       .   S
C474       C475 1.381       .   A
C475       C476 1.379       .   A
C475       H473 1.032       .   S
C476       H474 1.032       .   S
C461       C462 1.381       .   A
C461       C466 1.381       .   A
C462       C463 1.379       .   A
C462       H461 1.032       .   S
C463       C464 1.381       .   A
C463       H462 1.032       .   S
C464       C465 1.381       .   A
C465       C466 1.379       .   A
C465       H463 1.032       .   S
C466       H464 1.032       .   S
C451       C452 1.381       .   A
C451       C456 1.381       .   A
C452       C453 1.379       .   A
C452       H451 1.032       .   S
C453       C454 1.381       .   A
C453       H452 1.032       .   S
C454       C455 1.381       .   A
C455       C456 1.379       .   A
C455       H453 1.032       .   S
C456       H454 1.032       .   S
C441       C442 1.381       .   A
C441       C446 1.381       .   A
C442       C443 1.379       .   A
C442       H441 1.032       .   S
C443       C444 1.381       .   A
C443       H442 1.032       .   S
C444       C445 1.381       .   A
C445       C446 1.379       .   A
C445       H443 1.032       .   S
C446       H444 1.032       .   S
C431       C432 1.381       .   A
C431       C436 1.381       .   A
C432       C433 1.379       .   A
C432       H431 1.032       .   S
C433       C434 1.381       .   A
C433       H432 1.032       .   S
C434       C435 1.381       .   A
C435       C436 1.379       .   A
C435       H433 1.032       .   S
C436       H434 1.032       .   S
C421       C422 1.381       .   A
C421       C426 1.381       .   A
C422       C423 1.379       .   A
C422       H421 1.032       .   S
C423       C424 1.381       .   A
C423       H422 1.032       .   S
C424       C425 1.381       .   A
C425       C426 1.379       .   A
C425       H423 1.032       .   S
C426       H424 1.032       .   S
C411       C412 1.381       .   A
C411       C416 1.381       .   A
C412       C413 1.379       .   A
C412       H411 1.032       .   S
C413       C414 1.381       .   A
C413       H412 1.032       .   S
C414       C415 1.381       .   A
C415       C416 1.379       .   A
C415       H413 1.032       .   S
C416       H414 1.032       .   S
C401       C402 1.381       .   A
C401       C406 1.381       .   A
C402       C403 1.379       .   A
C402       H401 1.032       .   S
C403       C404 1.381       .   A
C403       H402 1.032       .   S
C404       C405 1.381       .   A
C405       C406 1.379       .   A
C405       H403 1.032       .   S
C406       H404 1.032       .   S
C391       C392 1.381       .   A
C391       C396 1.381       .   A
C392       C393 1.379       .   A
C392       H391 1.032       .   S
C393       C394 1.381       .   A
C393       H392 1.032       .   S
C394       C395 1.381       .   A
C395       C396 1.379       .   A
C395       H393 1.032       .   S
C396       H394 1.032       .   S
C381       C382 1.381       .   A
C381       C386 1.381       .   A
C382       C383 1.379       .   A
C382       H381 1.032       .   S
C383       C384 1.381       .   A
C383       H382 1.032       .   S
C384       C385 1.381       .   A
C385       C386 1.379       .   A
C385       H383 1.032       .   S
C386       H384 1.032       .   S
C371       C372 1.381       .   A
C371       C376 1.381       .   A
C372       C373 1.379       .   A
C372       H371 1.032       .   S
C373       C374 1.381       .   A
C373       H372 1.032       .   S
C374       C375 1.381       .   A
C375       C376 1.379       .   A
C375       H373 1.032       .   S
C376       H374 1.032       .   S
C361       C362 1.381       .   A
C361       C366 1.381       .   A
C362       C363 1.379       .   A
C362       H361 1.032       .   S
C363       C364 1.381       .   A
C363       H362 1.032       .   S
C364       C365 1.381       .   A
C365       C366 1.379       .   A
C365       H363 1.032       .   S
C366       H364 1.032       .   S
C351       C352 1.381       .   A
C351       C356 1.381       .   A
C352       C353 1.379       .   A
C352       H351 1.032       .   S
C353       C354 1.381       .   A
C353       H352 1.032       .   S
C354       C355 1.381       .   A
C355       C356 1.379       .   A
C355       H353 1.032       .   S
C356       H354 1.032       .   S
C341       C342 1.381       .   A
C341       C346 1.381       .   A
C342       C343 1.379       .   A
C342       H341 1.032       .   S
C343       C344 1.381       .   A
C343       H342 1.032       .   S
C344       C345 1.381       .   A
C345       C346 1.379       .   A
C345       H343 1.032       .   S
C346       H344 1.032       .   S
C331       C332 1.381       .   A
C331       C336 1.381       .   A
C332       C333 1.379       .   A
C332       H331 1.032       .   S
C333       C334 1.381       .   A
C333       H332 1.032       .   S
C334       C335 1.381       .   A
C335       C336 1.379       .   A
C335       H333 1.032       .   S
C336       H334 1.032       .   S
C321       C322 1.381       .   A
C321       C326 1.381       .   A
C322       C323 1.379       .   A
C322       H321 1.032       .   S
C323       C324 1.381       .   A
C323       H322 1.032       .   S
C324       C325 1.381       .   A
C325       C326 1.379       .   A
C325       H323 1.032       .   S
C326       H324 1.032       .   S
C311       C312 1.381       .   A
C311       C316 1.381       .   A
C312       C313 1.379       .   A
C312       H311 1.032       .   S
C313       C314 1.381       .   A
C313       H312 1.032       .   S
C314       C315 1.381       .   A
C315       C316 1.379       .   A
C315       H313 1.032       .   S
C316       H314 1.032       .   S
C301       C302 1.381       .   A
C301       C306 1.381       .   A
C302       C303 1.379       .   A
C302       H301 1.032       .   S
C303       C304 1.381       .   A
C303       H302 1.032       .   S
C304       C305 1.381       .   A
C305       C306 1.379       .   A
C305       H303 1.032       .   S
C306       H304 1.032       .   S
C291       C292 1.381       .   A
C291       C296 1.381       .   A
C292       C293 1.379       .   A
C292       H291 1.032       .   S
C293       C294 1.381       .   A
C293       H292 1.032       .   S
C294       C295 1.381       .   A
C295       C296 1.379       .   A
C295       H293 1.032       .   S
C296       H294 1.032       .   S
C281       C282 1.381       .   A
C281       C286 1.381       .   A
C282       C283 1.379       .   A
C282       H281 1.032       .   S
C283       C284 1.381       .   A
C283       H282 1.032       .   S
C284       C285 1.381       .   A
C285       C286 1.379       .   A
C285       H283 1.032       .   S
C286       H284 1.032       .   S
C271       C272 1.381       .   A
C271       C276 1.381       .   A
C272       C273 1.379       .   A
C272       H271 1.032       .   S
C273       C274 1.381       .   A
C273       H272 1.032       .   S
C274       C275 1.381       .   A
C275       C276 1.379       .   A
C275       H273 1.032       .   S
C276       H274 1.032       .   S
C261       C262 1.381       .   A
C261       C266 1.381       .   A
C262       C263 1.379       .   A
C262       H261 1.032       .   S
C263       C264 1.381       .   A
C263       H262 1.032       .   S
C264       C265 1.381       .   A
C265       C266 1.379       .   A
C265       H263 1.032       .   S
C266       H264 1.032       .   S
C251       C252 1.381       .   A
C251       C256 1.381       .   A
C252       C253 1.379       .   A
C252       H251 1.032       .   S
C253       C254 1.381       .   A
C253       H252 1.032       .   S
C254       C255 1.381       .   A
C255       C256 1.379       .   A
C255       H253 1.032       .   S
C256       H254 1.032       .   S
C241       C242 1.381       .   A
C241       C246 1.381       .   A
C242       C243 1.379       .   A
C242       H241 1.032       .   S
C243       C244 1.381       .   A
C243       H242 1.032       .   S
C244       C245 1.381       .   A
C245       C246 1.379       .   A
C245       H243 1.032       .   S
C246       H244 1.032       .   S
