data_image0
_chemical_formula_structural       SHCH3FeH3CFeC2HSH2CH3SHC5H3CHC2H3CHC3HC2HNH2C3H2CH2CHSC2H2CHCFeSNC4FeH2C2H3NHC2HCHCH2C4S2HCHCH3SHCFeCHCHCFeHCH2FeSC2H2CH2C2HC3S2C2SHSH2NCNCH2CH2CH2CH3FeH3CH2CS2HCHCH3CSC2H3C2HC2H2S2CHCSH2CSCH2CHSH3C2HNCHCHCHC2H4C2H3CH3CH3NH2CHCHC2H2CSCNC2SHCNSHC2H5SCHC2HCHSCSH2SHNC2NH2CH5CSH3FeCHCH4CHSCSHCFeH2C3H2SHFeHSC3H3SHC3SNCH2CNSHSCHC2H2CHCH3FeHCH2C2HCHNH2CHC3HC2H2C2HCH2CH3CHFeHC2H3C2HC2HS2CH5CFeHC2SC4H2C2HCHC3H2C2FeHC3SHFeH2CH2CHCH2SH2FeHC3SC2H2CH3CH2C2H2C2HC2FeH2C3HC3S2HCH2CHCFeC2HSCH3SCSHCSH5SH2CHCHC4H2SCNH3CHSH2C3HCH3S3HCSCH2CSCHSHCHFeSC3FeHC4HCH3CH4SH4SC2FeCHC3FeHCHC2FeSHFeCH2SH2FeSCH2C2HCH4CH2SC3H2SC2FeC2HCFeH2CH2C2H2FeCNSFeC4HC2SCHNCSHNH2C3FeCH2C2HC4HCSHFeC2FeSCH2CH2CHCHNH3CH2C3H4CH2FeH2S2CSC2HCHC3NHSHCH2CH2CHFeHC2HCHSHC2H2CH2CHCH3SCFeHCH2C4HNHC2H3FeHC4HCHC2SH3CH2NCSFeSHCHCH2CSC3HC3HCNC2HCHC2HFeHC3NH2CH3CSCSH3SCHC2HC2FeC2HSHFeCFeCH2C4NHNCSHSCHSHCSH2FeH2FeHC2H4CH2C4H2CSH2SCSFeH2CHSCHCH2SC2SNH3C2SC2FeSH2C3H8CHSH2C2NHNH2CFeCHCHFeH3C2H2CSHFeCH3SHCHC3SFeSCH2CFeCSC3HC2H2C2H3CH2C2HCSCH2C2HC2HS2H3FeCSH2CH3SCH2CH4CHSCSHC3H3FeHCSHCH2CH4SC2H2CHSHC2H2CHCH2SC2SH2SH4CNCH4CH2SCNCHCSCFeCNCHC2H2CH3C2HCSCFeHC2H2C2H3FeHC2H2C2HCH2C2NC3HSH7CHC2H3CHCSCHCFeHFeH3SC4HSHSC4SCH2CH4CFeH2SHC2HNH2CFeSCHSCHS2H2FeC2FeCHFeCSHC4SH2CHNHCHCFeSCH5CS2H3CH2C2HC2H5SHCSHC2SH4SCHC2SH2CHFeH2FeHC3HCHCHSHCHCSHCNH2C2H7CHCH5C2FeSHC2HCHCFeHS2C4NHCSCH2C2HFeC2H2C3NHC2H4C2H2SH2CSC4SNC2SH3CSCHCHFeCSC3HSCH2CSCFeH3C3HNC2FeHCHSH2C3SH4C2H4SHC3SHC2NH2FeH2CFeC2HCH2C2H2S2C4H2CH5SHSHCH4C4FeH4CHFeHSH2CH2FeSH2FeCH2C2SH3S2HSHCFeC2H2CFeS2H2C3HFeCHCSC2NFeSC2HCH2FeHFe2CH2CHCHC3SC3HCSH2C2HCHCHNC2H4CH4CH3C5HCFeNSH2CH2SC2H4C6SH2CSH2FeHCH3CH3CH2C2H3SC2SNH2C2HFeCHCH3CS2C2H2C4HFeCHC2HCHFeH3SCH4CHCSH2CH3FeCSC2SFeHC2H2CFeHFeCHSHCSC3H2FeHC2SHCHSH3NHFeHSH3CH2SCS2HC3FeHFeCH8C3HCSCSCH2CHCHC2HCNC2NC2HSH2CS2H4CHCHFeHSC2NHC2HC2H2C4HC3HFeH6CH2C2H2CSH2CH5CHSHCHCHSH2SNCHC3HSH2CSCSCH2CHFeH2CH2C2H2CH2CHC2SH3FeHCSCSHCH5CHC3HCNHCHCH8SC3FeH2CHCFeHCH2SC5SH2CH2C2H2CFeCH2CFeH2S2H3C4HC2HCH4CSH2CN2CHC2H2SHC2HCFeCHSHC6H4CSCNCFeCHC4NHCHC2H3SHCH2CHCHC2H3CH2C3H3SNC4HC2H3SCH3C3H3CH2CHCFeHFeHC3HCHCH2C2H3NSHC2HC2SC2S2H3SCHCH3FeHC2HCHCFeSHSCHC4H2C2HSCH2CSCFeC2SFeNCH2CHC3H2SC3HCH3SHCHCHSHCSH2C2H2CHNHCHCH2FeCFeH3C3FeHCHC2H2CHCHCSC3HFeSCSHCH4C2H5CH2C2HC2H3CS2H2C2H4NH2CH2FeH2CH6CH2C3H2C2NHSH4C3H3C2SFeH3FeCHC2H2FeSFeHCH2CH2CH2SCSH2C2HCH3CH4C2FeCHS2FeSCH2CSHFeSHSFeC4SC2HFeC2HCH5FeC2HC2H4C2H4FeH5C4HCHCHC2HCH2CHSHC3S2HCSH4CHC2SCHFeCH2CSCHCHCH3CSH3CH2CNHNCSCHCSH2CHCHCSC4FeH2CNH2CSC2HCSHFeNCH2CHNC4H5CH3C2HCH2CHC2HC3H4S2H3CHFeC2HFeHSHCSC3H4CHS2CHC5NCHCHCH6CSCHCHCHCH3SH2SCH2CHCH3C4H3SH4NCHC2FeCH3CH4C3H3FeCHSCH2C2HSCNFeC2SCH2C2NCHC3HSCHSHCSHSC3FeCH2C2H2CH4FeHSCNH3C3HCHCHCH3SFeH2SHCH3FeH2CSCFeH2FeSH2CHSCHC2NCHCH2CH2
_chemical_formula_sum              "S288 H1296 C1080 Fe144 N72"
_cell_length_a       31.1429
_cell_length_b       30.7992
_cell_length_c       39.1598
_cell_angle_alpha    94.7973
_cell_angle_beta     88.6309
_cell_angle_gamma    80.9832

_space_group_name_H-M_alt    "P 1"
_space_group_IT_number       1

loop_
  _space_group_symop_operation_xyz
  'x, y, z'

loop_
  _atom_site_type_symbol
  _atom_site_label
  _atom_site_symmetry_multiplicity
  _atom_site_fract_x
  _atom_site_fract_y
  _atom_site_fract_z
  _atom_site_occupancy
  S   S1        1.0  0.51828  0.54222  0.01524  1.0000
  H   H1        1.0  0.44789  0.44033  0.03086  1.0000
  C   C1        1.0  0.42292  0.66037  0.49662  1.0000
  H   H2        1.0  0.55498  0.69228  0.31134  1.0000
  H   H3        1.0  0.66801  0.55934  0.35291  1.0000
  H   H4        1.0  0.57712  0.70746  0.02361  1.0000
  Fe  Fe1       1.0  0.56191  0.59369  0.01686  1.0000
  H   H5        1.0  0.67557  0.41466  0.08039  1.0000
  H   H6        1.0  0.30761  0.69332  0.08974  1.0000
  H   H7        1.0  0.71310  0.68984  0.47415  1.0000
  C   C2        1.0  0.42200  0.46574  0.02436  1.0000
  Fe  Fe2       1.0  0.50596  0.49034  0.20903  1.0000
  C   C3        1.0  0.78494  0.41174  0.48319  1.0000
  C   C4        1.0  0.36419  0.68762  0.44702  1.0000
  H   H8        1.0  0.79594  0.41274  0.26517  1.0000
  S   S2        1.0  0.56591  0.66028  0.43040  1.0000
  H   H9        1.0  0.35979  0.60090  0.41028  1.0000
  H   H10       1.0  0.39419  0.55436  0.35882  1.0000
  C   C5        1.0  0.56023  0.66645  0.32862  1.0000
  H   H11       1.0  0.68543  0.70550  0.40620  1.0000
  H   H12       1.0  0.56832  0.47445  0.33161  1.0000
  H   H13       1.0  0.48534  0.55688  0.08605  1.0000
  S   S3        1.0  0.61931  0.48478  0.24898  1.0000
  H   H14       1.0  0.32948  0.70328  0.13125  1.0000
  C   C6        1.0  0.57523  0.44858  0.34866  1.0000
  C   C7        1.0  0.34916  0.68031  0.47964  1.0000
  C   C8        1.0  0.76410  0.64684  0.13571  1.0000
  C   C9        1.0  0.46008  0.64838  0.19307  1.0000
  C   C10       1.0  0.37840  0.66652  0.50432  1.0000
  H   H15       1.0  0.38619  0.45026  0.24981  1.0000
  H   H16       1.0  0.38564  0.61294  0.19860  1.0000
  H   H17       1.0  0.55192  0.71185  0.37391  1.0000
  C   C11       1.0  0.45699  0.64381  0.25620  1.0000
  H   H18       1.0  0.57827  0.57446  0.39100  1.0000
  C   C12       1.0  0.64803  0.49619  0.12268  1.0000
  C   C13       1.0  0.35416  0.46611  0.24107  1.0000
  H   H19       1.0  0.38193  0.69283  0.25420  1.0000
  H   H20       1.0  0.70350  0.55437  0.07167  1.0000
  H   H21       1.0  0.43093  0.57915  0.21557  1.0000
  C   C14       1.0  0.43044  0.52221  0.15208  1.0000
  H   H22       1.0  0.59773  0.69204  0.21568  1.0000
  C   C15       1.0  0.66381  0.72054  0.38666  1.0000
  C   C16       1.0  0.47057  0.41505  0.39184  1.0000
  C   C17       1.0  0.39793  0.54264  0.38403  1.0000
  H   H23       1.0  0.53170  0.64372  0.10859  1.0000
  C   C18       1.0  0.38804  0.54030  0.14441  1.0000
  C   C19       1.0  0.43838  0.66746  0.46407  1.0000
  H   H24       1.0  0.77552  0.51758  0.03117  1.0000
  N   N1        1.0  0.73547  0.63932  0.16490  1.0000
  H   H25       1.0  0.31453  0.68570  0.48583  1.0000
  H   H26       1.0  0.36840  0.57330  0.46766  1.0000
  C   C20       1.0  0.38319  0.55308  0.44511  1.0000
  C   C21       1.0  0.46548  0.52807  0.13089  1.0000
  C   C22       1.0  0.66126  0.66654  0.19283  1.0000
  H   H27       1.0  0.74612  0.64890  0.11150  1.0000
  H   H28       1.0  0.43467  0.62125  0.38349  1.0000
  C   C23       1.0  0.74329  0.52320  0.23463  1.0000
  H   H29       1.0  0.66327  0.63747  0.20678  1.0000
  H   H30       1.0  0.67864  0.65401  0.33547  1.0000
  C   C24       1.0  0.57290  0.60006  0.37359  1.0000
  H   H31       1.0  0.63632  0.70154  0.38438  1.0000
  S   S4        1.0  0.60204  0.43702  0.44858  1.0000
  C   C25       1.0  0.41936  0.41179  0.43772  1.0000
  C   C26       1.0  0.67627  0.54187  0.08282  1.0000
  H   H32       1.0  0.36790  0.44836  0.17102  1.0000
  H   H33       1.0  0.47605  0.67108  0.26129  1.0000
  C   C27       1.0  0.56811  0.62225  0.31553  1.0000
  H   H34       1.0  0.69981  0.59488  0.13674  1.0000
  C   C28       1.0  0.64522  0.70887  0.48550  1.0000
  Fe  Fe3       1.0  0.56629  0.44539  0.25872  1.0000
  S   S5        1.0  0.62641  0.59287  0.04066  1.0000
  N   N2        1.0  0.33467  0.43517  0.21750  1.0000
  C   C29       1.0  0.40803  0.61064  0.22029  1.0000
  C   C30       1.0  0.50626  0.64145  0.19327  1.0000
  C   C31       1.0  0.36511  0.42095  0.18733  1.0000
  C   C32       1.0  0.59038  0.42548  0.40557  1.0000
  Fe  Fe4       1.0  0.56506  0.54187  0.25072  1.0000
  H   H35       1.0  0.75781  0.39529  0.18881  1.0000
  H   H36       1.0  0.47325  0.66246  0.45943  1.0000
  C   C33       1.0  0.46670  0.65328  0.13090  1.0000
  C   C34       1.0  0.76086  0.63968  0.19639  1.0000
  H   H37       1.0  0.36081  0.53606  0.16080  1.0000
  H   H38       1.0  0.40623  0.70931  0.35451  1.0000
  H   H39       1.0  0.75223  0.56924  0.14946  1.0000
  N   N3        1.0  0.42667  0.68907  0.40398  1.0000
  H   H40       1.0  0.70866  0.58242  0.18019  1.0000
  C   C35       1.0  0.59895  0.53983  0.08680  1.0000
  C   C36       1.0  0.45394  0.64842  0.38779  1.0000
  H   H41       1.0  0.74060  0.42763  0.11336  1.0000
  C   C37       1.0  0.72348  0.59472  0.15754  1.0000
  H   H42       1.0  0.73368  0.48218  0.18903  1.0000
  C   C38       1.0  0.35230  0.51151  0.03849  1.0000
  H   H43       1.0  0.50710  0.46446  0.44019  1.0000
  H   H44       1.0  0.44592  0.40884  0.37264  1.0000
  C   C39       1.0  0.70528  0.67334  0.34182  1.0000
  C   C40       1.0  0.57938  0.40427  0.33568  1.0000
  C   C41       1.0  0.74629  0.41606  0.04114  1.0000
  C   C42       1.0  0.42615  0.48354  0.41970  1.0000
  S   S6        1.0  0.50853  0.64991  0.03161  1.0000
  S   S7        1.0  0.57524  0.38937  0.29196  1.0000
  H   H45       1.0  0.47969  0.61191  0.25499  1.0000
  C   C43       1.0  0.76154  0.45673  0.04925  1.0000
  H   H46       1.0  0.40655  0.69943  0.05209  1.0000
  C   C44       1.0  0.69583  0.67306  0.17042  1.0000
  H   H47       1.0  0.49416  0.43369  0.38021  1.0000
  H   H48       1.0  0.76761  0.48849  0.32831  1.0000
  H   H49       1.0  0.69267  0.50628  0.31073  1.0000
  S   S8        1.0  0.51293  0.50374  0.26573  1.0000
  H   H50       1.0  0.52367  0.63714  0.21644  1.0000
  C   C45       1.0  0.69110  0.71387  0.15525  1.0000
  Fe  Fe5       1.0  0.46434  0.59958  0.02461  1.0000
  C   C46       1.0  0.68552  0.55297  0.37591  1.0000
  H   H51       1.0  0.32525  0.51955  0.05682  1.0000
  C   C47       1.0  0.42127  0.50066  0.38720  1.0000
  H   H52       1.0  0.35441  0.39385  0.17071  1.0000
  C   C48       1.0  0.40624  0.51103  0.44851  1.0000
  Fe  Fe6       1.0  0.56382  0.60504  0.46353  1.0000
  H   H53       1.0  0.53330  0.40042  0.05574  1.0000
  C   C49       1.0  0.53161  0.63969  0.16307  1.0000
  H   H54       1.0  0.40618  0.65837  0.15852  1.0000
  H   H55       1.0  0.48149  0.63634  0.40376  1.0000
  Fe  Fe7       1.0  0.58118  0.50700  0.46929  1.0000
  S   S9        1.0  0.43882  0.49350  0.18882  1.0000
  C   C50       1.0  0.37874  0.56877  0.41288  1.0000
  C   C51       1.0  0.77272  0.54491  0.25309  1.0000
  H   H56       1.0  0.74216  0.63131  0.21887  1.0000
  H   H57       1.0  0.58535  0.45308  0.05246  1.0000
  C   C52       1.0  0.75755  0.46062  0.34127  1.0000
  H   H58       1.0  0.37605  0.69237  0.20923  1.0000
  H   H59       1.0  0.49820  0.51390  0.13656  1.0000
  C   C53       1.0  0.55874  0.67754  0.36397  1.0000
  C   C54       1.0  0.32566  0.39772  0.23646  1.0000
  H   H60       1.0  0.61723  0.70264  0.05536  1.0000
  C   C55       1.0  0.56598  0.64454  0.38644  1.0000
  C   C56       1.0  0.68330  0.48017  0.32617  1.0000
  C   C57       1.0  0.54688  0.40605  0.03101  1.0000
  S   S10       1.0  0.55506  0.42854  0.20321  1.0000
  S   S11       1.0  0.40616  0.60283  0.05991  1.0000
  C   C58       1.0  0.39219  0.70303  0.37977  1.0000
  C   C59       1.0  0.45814  0.55202  0.10206  1.0000
  S   S12       1.0  0.62393  0.55877  0.47384  1.0000
  H   H61       1.0  0.50558  0.40984  0.45114  1.0000
  S   S13       1.0  0.75669  0.57236  0.29330  1.0000
  H   H62       1.0  0.37092  0.67750  0.37480  1.0000
  H   H63       1.0  0.74649  0.53889  0.46048  1.0000
  N   N4        1.0  0.44995  0.43896  0.42414  1.0000
  C   C60       1.0  0.38079  0.56502  0.11605  1.0000
  N   N5        1.0  0.43227  0.64833  0.22433  1.0000
  C   C61       1.0  0.44104  0.65415  0.16085  1.0000
  H   H64       1.0  0.38777  0.60822  0.24362  1.0000
  H   H65       1.0  0.57852  0.49335  0.39372  1.0000
  C   C62       1.0  0.75878  0.39626  0.10079  1.0000
  H   H66       1.0  0.78117  0.45250  0.36159  1.0000
  H   H67       1.0  0.48314  0.71501  0.42308  1.0000
  C   C63       1.0  0.63422  0.55560  0.07212  1.0000
  H   H68       1.0  0.71041  0.52448  0.24476  1.0000
  H   H69       1.0  0.73180  0.40276  0.45063  1.0000
  C   C64       1.0  0.31582  0.41270  0.38429  1.0000
  H   H70       1.0  0.77874  0.67730  0.14073  1.0000
  H   H71       1.0  0.40299  0.42672  0.46241  1.0000
  H   H72       1.0  0.33955  0.69916  0.42954  1.0000
  Fe  Fe8       1.0  0.60315  0.47345  0.19382  1.0000
  H   H73       1.0  0.77133  0.70907  0.50574  1.0000
  H   H74       1.0  0.71557  0.50265  0.11699  1.0000
  H   H75       1.0  0.35974  0.49597  0.22851  1.0000
  C   C65       1.0  0.79113  0.66266  0.02304  1.0000
  H   H76       1.0  0.64875  0.48996  0.33528  1.0000
  H   H77       1.0  0.72598  0.41951  0.38890  1.0000
  C   C66       1.0  0.68336  0.58852  0.40087  1.0000
  S   S14       1.0  0.32724  0.47280  0.33949  1.0000
  S   S15       1.0  0.52286  0.55209  0.45367  1.0000
  H   H78       1.0  0.33310  0.47726  0.26446  1.0000
  C   C67       1.0  0.70559  0.58363  0.43107  1.0000
  H   H79       1.0  0.79141  0.61527  0.19326  1.0000
  C   C68       1.0  0.57610  0.43574  0.02923  1.0000
  H   H80       1.0  0.78512  0.69220  0.04061  1.0000
  H   H81       1.0  0.43436  0.48199  0.36366  1.0000
  H   H82       1.0  0.57968  0.55461  0.32783  1.0000
  C   C69       1.0  0.58062  0.45925  0.38377  1.0000
  S   S16       1.0  0.57194  0.61040  0.27102  1.0000
  C   C70       1.0  0.51188  0.64564  0.13196  1.0000
  C   C71       1.0  0.38590  0.47871  0.04659  1.0000
  H   H83       1.0  0.77121  0.46649  0.07471  1.0000
  H   H84       1.0  0.36449  0.67880  0.09603  1.0000
  H   H85       1.0  0.56633  0.55084  0.07897  1.0000
  C   C72       1.0  0.40068  0.68993  0.22932  1.0000
  C   C73       1.0  0.70050  0.43383  0.37188  1.0000
  H   H86       1.0  0.34799  0.57954  0.11061  1.0000
  C   C74       1.0  0.31611  0.45720  0.38031  1.0000
  C   C75       1.0  0.70941  0.51084  0.38104  1.0000
  H   H87       1.0  0.66992  0.44319  0.38772  1.0000
  H   H88       1.0  0.69594  0.40616  0.35279  1.0000
  S   S17       1.0  0.55311  0.53407  0.19461  1.0000
  S   S18       1.0  0.31540  0.60308  0.33615  1.0000
  C   C76       1.0  0.71051  0.44542  0.49609  1.0000
  H   H89       1.0  0.76099  0.43102  0.32251  1.0000
  C   C77       1.0  0.33565  0.70412  0.10325  1.0000
  S   S19       1.0  0.65726  0.45861  0.15386  1.0000
  H   H90       1.0  0.75108  0.47626  0.41752  1.0000
  H   H91       1.0  0.38375  0.46315  0.07027  1.0000
  C   C78       1.0  0.76439  0.48642  0.02438  1.0000
  S   S20       1.0  0.30846  0.40451  0.02818  1.0000
  C   C79       1.0  0.75645  0.49920  0.20317  1.0000
  H   H92       1.0  0.76977  0.67294  0.20311  1.0000
  H   H93       1.0  0.79226  0.61969  0.13065  1.0000
  C   C80       1.0  0.73156  0.50701  0.41220  1.0000
  H   H94       1.0  0.56679  0.63329  0.16383  1.0000
  S   S21       1.0  0.80627  0.56455  0.37990  1.0000
  H   H95       1.0  0.72501  0.65685  0.36182  1.0000
  H   H96       1.0  0.45154  0.65707  0.10653  1.0000
  H   H97       1.0  0.46854  0.65403  0.36256  1.0000
  C   C81       1.0  0.68785  0.69289  0.49402  1.0000
  C   C82       1.0  0.62351  0.69784  0.19827  1.0000
  H   H98       1.0  0.68465  0.45005  0.30806  1.0000
  N   N6        1.0  0.71230  0.47227  0.35538  1.0000
  C   C83       1.0  0.48495  0.44233  0.44881  1.0000
  H   H99       1.0  0.39903  0.40969  0.19491  1.0000
  C   C84       1.0  0.57376  0.58885  0.33796  1.0000
  H   H100      1.0  0.43511  0.64465  0.27920  1.0000
  C   C85       1.0  0.60588  0.51007  0.11210  1.0000
  H   H101      1.0  0.40801  0.50009  0.47403  1.0000
  C   C86       1.0  0.40945  0.68108  0.43811  1.0000
  C   C87       1.0  0.41583  0.57076  0.09475  1.0000
  H   H102      1.0  0.57869  0.49741  0.12308  1.0000
  H   H103      1.0  0.47225  0.45505  0.47509  1.0000
  H   H104      1.0  0.76423  0.63345  0.48567  1.0000
  H   H105      1.0  0.66357  0.61983  0.39704  1.0000
  C   C88       1.0  0.72953  0.54290  0.43683  1.0000
  C   C89       1.0  0.74150  0.41841  0.47439  1.0000
  H   H106      1.0  0.79395  0.39900  0.09861  1.0000
  H   H107      1.0  0.39343  0.40763  0.41932  1.0000
  H   H108      1.0  0.70309  0.61117  0.45042  1.0000
  C   C90       1.0  0.68316  0.51219  0.10809  1.0000
  H   H109      1.0  0.67698  0.45150  0.48852  1.0000
  H   H110      1.0  0.68453  0.41455  0.21624  1.0000
  H   H111      1.0  0.72704  0.67002  0.31852  1.0000
  C   C91       1.0  0.79870  0.49778  0.18978  1.0000
  H   H112      1.0  0.31205  0.60134  0.04993  1.0000
  H   H113      1.0  0.41756  0.71911  0.22905  1.0000
  H   H114      1.0  0.63787  0.71729  0.45975  1.0000
  N   N7        1.0  0.68743  0.72003  0.35316  1.0000
  H   H115      1.0  0.73001  0.42807  0.95570  1.0000
  H   H116      1.0  0.48681  0.59691  0.58051  1.0000
  C   C92       1.0  0.76833  0.66052  0.99267  1.0000
  H   H117      1.0  0.73772  0.60034  0.51293  1.0000
  C   C93       1.0  0.62895  0.61108  0.60523  1.0000
  H   H118      1.0  0.37055  0.41880  0.91465  1.0000
  C   C94       1.0  0.34487  0.60440  0.87671  1.0000
  C   C95       1.0  0.63372  0.40750  0.60781  1.0000
  H   H119      1.0  0.39407  0.53057  0.96063  1.0000
  H   H120      1.0  0.76888  0.69111  0.88226  1.0000
  C   C96       1.0  0.72516  0.69803  0.78840  1.0000
  S   S22       1.0  0.74024  0.52148  0.78037  1.0000
  C   C97       1.0  0.39089  0.51772  0.98515  1.0000
  N   N8        1.0  0.66278  0.43807  0.81959  1.0000
  C   C98       1.0  0.46987  0.44358  0.67153  1.0000
  C   C99       1.0  0.65620  0.47397  0.84776  1.0000
  S   S23       1.0  0.64937  0.57913  0.56739  1.0000
  H   H121      1.0  0.49839  0.58763  0.82587  1.0000
  C   C100      1.0  0.45450  0.69317  0.86378  1.0000
  N   N9        1.0  0.31921  0.56816  0.99887  1.0000
  S   S24       1.0  0.77834  0.50825  0.87235  1.0000
  H   H122      1.0  0.51128  0.57483  0.88680  1.0000
  C   C101      1.0  0.50671  0.50564  0.87945  1.0000
  C   C102      1.0  0.79734  0.43092  0.51430  1.0000
  H   H123      1.0  0.49622  0.65854  0.89927  1.0000
  H   H124      1.0  0.65455  0.42562  0.76513  1.0000
  H   H125      1.0  0.61445  0.46806  0.99617  1.0000
  H   H126      1.0  0.46072  0.64050  0.63522  1.0000
  H   H127      1.0  0.66643  0.65186  0.68010  1.0000
  S   S25       1.0  0.75129  0.62241  0.93004  1.0000
  C   C103      1.0  0.60540  0.69856  0.83420  1.0000
  H   H128      1.0  0.69697  0.48553  0.54287  1.0000
  C   C104      1.0  0.64763  0.63631  0.80016  1.0000
  C   C105      1.0  0.38138  0.44179  0.77437  1.0000
  H   H129      1.0  0.31348  0.70151  0.74526  1.0000
  C   C106      1.0  0.79711  0.54959  0.73561  1.0000
  H   H130      1.0  0.55367  0.43169  0.55279  1.0000
  S   S26       1.0  0.79686  0.59906  0.83852  1.0000
  C   C107      1.0  0.32116  0.68413  0.91957  1.0000
  S   S27       1.0  0.51235  0.49584  0.92254  1.0000
  H   H131      1.0  0.62680  0.53589  0.64842  1.0000
  H   H132      1.0  0.65900  0.43535  0.65404  1.0000
  S   S28       1.0  0.56051  0.60107  0.96056  1.0000
  H   H133      1.0  0.43570  0.55123  0.65958  1.0000
  N   N10       1.0  0.35829  0.56358  0.85368  1.0000
  C   C108      1.0  0.55157  0.39066  0.96822  1.0000
  C   C109      1.0  0.73571  0.55991  0.68488  1.0000
  N   N11       1.0  0.74318  0.66475  0.53617  1.0000
  H   H134      1.0  0.31835  0.60863  0.74724  1.0000
  H   H135      1.0  0.46566  0.72054  0.63534  1.0000
  C   C110      1.0  0.78635  0.42131  0.69786  1.0000
  H   H136      1.0  0.60482  0.58031  0.86888  1.0000
  H   H137      1.0  0.71668  0.39669  0.79078  1.0000
  H   H138      1.0  0.35207  0.59301  0.95687  1.0000
  H   H139      1.0  0.72978  0.44627  0.81212  1.0000
  H   H140      1.0  0.80195  0.41412  0.59073  1.0000
  C   C111      1.0  0.62487  0.54884  0.87182  1.0000
  S   S29       1.0  0.58142  0.68314  0.70897  1.0000
  H   H141      1.0  0.41099  0.61762  0.88483  1.0000
  H   H142      1.0  0.35322  0.44843  0.69206  1.0000
  H   H143      1.0  0.49187  0.41539  0.65773  1.0000
  Fe  Fe9       1.0  0.47280  0.59810  0.75429  1.0000
  C   C112      1.0  0.57326  0.51905  0.61910  1.0000
  H   H144      1.0  0.43833  0.39880  0.51295  1.0000
  C   C113      1.0  0.63891  0.40244  0.82874  1.0000
  H   H145      1.0  0.65507  0.61688  0.77569  1.0000
  H   H146      1.0  0.53464  0.65648  0.64929  1.0000
  H   H147      1.0  0.78172  0.71336  0.92395  1.0000
  H   H148      1.0  0.64269  0.56782  0.92312  1.0000
  C   C114      1.0  0.38168  0.57407  0.82279  1.0000
  H   H149      1.0  0.65616  0.42174  0.59243  1.0000
  S   S30       1.0  0.56246  0.51430  0.52501  1.0000
  C   C115      1.0  0.56911  0.64682  0.64381  1.0000
  S   S31       1.0  0.47937  0.52823  0.76812  1.0000
  H   H150      1.0  0.48814  0.45076  0.80351  1.0000
  C   C116      1.0  0.75557  0.53889  0.74120  1.0000
  Fe  Fe10      1.0  0.42570  0.65828  0.70494  1.0000
  H   H151      1.0  0.41754  0.46475  0.62218  1.0000
  H   H152      1.0  0.37045  0.52139  0.89470  1.0000
  C   C117      1.0  0.49923  0.55500  0.83409  1.0000
  C   C118      1.0  0.37664  0.62856  0.89056  1.0000
  C   C119      1.0  0.44983  0.47573  0.61948  1.0000
  H   H153      1.0  0.72756  0.62535  0.57608  1.0000
  H   H154      1.0  0.71178  0.56361  0.66549  1.0000
  S   S32       1.0  0.45399  0.71668  0.72569  1.0000
  H   H155      1.0  0.79293  0.60942  0.51964  1.0000
  Fe  Fe11      1.0  0.43993  0.69369  0.77697  1.0000
  H   H156      1.0  0.75563  0.49931  0.97164  1.0000
  S   S33       1.0  0.44012  0.55564  0.52736  1.0000
  C   C120      1.0  0.67073  0.62463  0.82888  1.0000
  C   C121      1.0  0.67008  0.50089  0.90669  1.0000
  C   C122      1.0  0.32361  0.56648  0.70036  1.0000
  H   H157      1.0  0.69421  0.43609  0.88454  1.0000
  H   H158      1.0  0.44553  0.64957  0.51592  1.0000
  H   H159      1.0  0.59340  0.43110  0.94354  1.0000
  S   S34       1.0  0.45397  0.60862  0.96897  1.0000
  H   H160      1.0  0.47100  0.44927  0.60308  1.0000
  C   C123      1.0  0.66151  0.64983  0.86035  1.0000
  C   C124      1.0  0.57747  0.51579  0.68014  1.0000
  C   C125      1.0  0.49225  0.52008  0.81065  1.0000
  S   S35       1.0  0.49852  0.72132  0.95795  1.0000
  N   N12       1.0  0.61901  0.71318  0.89783  1.0000
  C   C126      1.0  0.49343  0.47789  0.82153  1.0000
  H   H161      1.0  0.68021  0.63920  0.88193  1.0000
  H   H162      1.0  0.57484  0.67124  0.91368  1.0000
  C   C127      1.0  0.36480  0.66777  0.91164  1.0000
  N   N13       1.0  0.77953  0.47648  0.57103  1.0000
  S   S36       1.0  0.37447  0.66649  0.66608  1.0000
  H   H163      1.0  0.49989  0.43821  0.86417  1.0000
  S   S37       1.0  0.40665  0.63878  0.75601  1.0000
  C   C128      1.0  0.64699  0.45260  0.78619  1.0000
  H   H164      1.0  0.39210  0.54420  0.80466  1.0000
  C   C129      1.0  0.61516  0.67322  0.80282  1.0000
  C   C130      1.0  0.66281  0.69005  0.55269  1.0000
  H   H165      1.0  0.59522  0.70307  0.94826  1.0000
  H   H166      1.0  0.35481  0.40345  0.81070  1.0000
  C   C131      1.0  0.51289  0.49650  0.65114  1.0000
  H   H167      1.0  0.41153  0.58812  0.82905  1.0000
  C   C132      1.0  0.39329  0.63557  0.62773  1.0000
  H   H168      1.0  0.59453  0.52080  0.70361  1.0000
  H   H169      1.0  0.71978  0.51894  0.58961  1.0000
  H   H170      1.0  0.51602  0.50407  0.59588  1.0000
  Fe  Fe12      1.0  0.50708  0.56318  0.51008  1.0000
  H   H171      1.0  0.40890  0.71371  0.57535  1.0000
  C   C133      1.0  0.72244  0.46441  0.52745  1.0000
  H   H172      1.0  0.42094  0.70540  0.99128  1.0000
  H   H173      1.0  0.56127  0.61594  0.59325  1.0000
  C   C134      1.0  0.32130  0.54213  0.84167  1.0000
  C   C135      1.0  0.38006  0.45446  0.74105  1.0000
  H   H174      1.0  0.32928  0.62471  0.61318  1.0000
  C   C136      1.0  0.70982  0.41967  0.81445  1.0000
  H   H175      1.0  0.76405  0.63894  0.76430  1.0000
  N   N14       1.0  0.46886  0.48417  0.65340  1.0000
  H   H176      1.0  0.36648  0.66053  0.52942  1.0000
  H   H177      1.0  0.69278  0.61194  0.62472  1.0000
  C   C137      1.0  0.36362  0.61904  0.60602  1.0000
  H   H178      1.0  0.39836  0.49980  0.85494  1.0000
  C   C138      1.0  0.42274  0.58612  0.56613  1.0000
  C   C139      1.0  0.64336  0.64480  0.66109  1.0000
  C   C140      1.0  0.75297  0.47628  0.99079  1.0000
  H   H179      1.0  0.44359  0.50612  0.60559  1.0000
  C   C141      1.0  0.73161  0.67907  0.72737  1.0000
  C   C142      1.0  0.43907  0.52039  0.67293  1.0000
  H   H180      1.0  0.77366  0.54087  0.55295  1.0000
  H   H181      1.0  0.52395  0.49650  0.70599  1.0000
  C   C143      1.0  0.70294  0.71739  0.72207  1.0000
  C   C144      1.0  0.76611  0.45628  0.53813  1.0000
  H   H182      1.0  0.40061  0.47759  0.73350  1.0000
  C   C145      1.0  0.33699  0.60389  0.98269  1.0000
  H   H183      1.0  0.40600  0.51176  0.67599  1.0000
  H   H184      1.0  0.45848  0.66567  0.84441  1.0000
  C   C146      1.0  0.53693  0.50178  0.68118  1.0000
  H   H185      1.0  0.55624  0.40825  0.89948  1.0000
  H   H186      1.0  0.60356  0.41501  0.83348  1.0000
  H   H187      1.0  0.68404  0.70120  0.91740  1.0000
  C   C147      1.0  0.34129  0.42442  0.93093  1.0000
  H   H188      1.0  0.41730  0.54311  0.88025  1.0000
  Fe  Fe13      1.0  0.51164  0.55501  0.95998  1.0000
  H   H189      1.0  0.35376  0.57626  0.69202  1.0000
  C   C148      1.0  0.34362  0.41477  0.96525  1.0000
  C   C149      1.0  0.65829  0.62191  0.62968  1.0000
  H   H190      1.0  0.73397  0.69038  0.81406  1.0000
  H   H191      1.0  0.40335  0.45444  0.79229  1.0000
  H   H192      1.0  0.38965  0.68587  0.92160  1.0000
  C   C150      1.0  0.32505  0.40718  0.72690  1.0000
  C   C151      1.0  0.58420  0.62424  0.61200  1.0000
  H   H193      1.0  0.61318  0.52343  0.82170  1.0000
  C   C152      1.0  0.50044  0.47073  0.85586  1.0000
  C   C153      1.0  0.74732  0.65154  0.57167  1.0000
  H   H194      1.0  0.33222  0.51085  0.82521  1.0000
  S   S38       1.0  0.32998  0.51354  0.64025  1.0000
  S   S39       1.0  0.78714  0.59682  0.64224  1.0000
  C   C154      1.0  0.77137  0.69861  0.53217  1.0000
  H   H195      1.0  0.33110  0.69869  0.80156  1.0000
  H   H196      1.0  0.35548  0.58060  0.55884  1.0000
  H   H197      1.0  0.40537  0.41044  0.57157  1.0000
  H   H198      1.0  0.73720  0.68002  0.59114  1.0000
  H   H199      1.0  0.45018  0.52796  0.69914  1.0000
  C   C155      1.0  0.35249  0.43743  0.71748  1.0000
  Fe  Fe14      1.0  0.78910  0.53014  0.82011  1.0000
  H   H200      1.0  0.75404  0.50046  0.62234  1.0000
  C   C156      1.0  0.62846  0.68755  0.86404  1.0000
  C   C157      1.0  0.62997  0.51560  0.84474  1.0000
  S   S40       1.0  0.74524  0.39061  0.64223  1.0000
  C   C158      1.0  0.45249  0.60310  0.58759  1.0000
  C   C159      1.0  0.77716  0.62304  0.96932  1.0000
  C   C160      1.0  0.47560  0.68906  0.89489  1.0000
  C   C161      1.0  0.74273  0.48995  0.59662  1.0000
  H   H201      1.0  0.58751  0.52647  0.59524  1.0000
  H   H202      1.0  0.61101  0.46259  0.78692  1.0000
  C   C162      1.0  0.79813  0.51614  0.56399  1.0000
  C   C163      1.0  0.53227  0.50583  0.61989  1.0000
  H   H203      1.0  0.59425  0.71144  0.56325  1.0000
  C   C164      1.0  0.59257  0.44402  0.99745  1.0000
  H   H204      1.0  0.62960  0.65616  0.92726  1.0000
  C   C165      1.0  0.50644  0.54780  0.86858  1.0000
  C   C166      1.0  0.55735  0.39562  0.54568  1.0000
  C   C167      1.0  0.69790  0.68238  0.52787  1.0000
  H   H205      1.0  0.48718  0.70202  0.59258  1.0000
  H   H206      1.0  0.66724  0.68441  0.57928  1.0000
  C   C168      1.0  0.32637  0.39608  0.76141  1.0000
  C   C169      1.0  0.37844  0.59383  0.57544  1.0000
  Fe  Fe15      1.0  0.51615  0.66894  0.72580  1.0000
  H   H207      1.0  0.43706  0.43370  0.67326  1.0000
  C   C170      1.0  0.43775  0.62754  0.61860  1.0000
  C   C171      1.0  0.42438  0.48498  0.99360  1.0000
  C   C172      1.0  0.38738  0.53079  0.87172  1.0000
  S   S41       1.0  0.50530  0.65159  0.77951  1.0000
  H   H208      1.0  0.72450  0.46224  0.60003  1.0000
  Fe  Fe16      1.0  0.50373  0.65365  0.97516  1.0000
  H   H209      1.0  0.30963  0.53161  0.95101  1.0000
  H   H210      1.0  0.45240  0.47448  0.97626  1.0000
  C   C173      1.0  0.76009  0.62521  0.51253  1.0000
  H   H211      1.0  0.72279  0.40050  0.83580  1.0000
  H   H212      1.0  0.48014  0.44765  0.69841  1.0000
  C   C174      1.0  0.77676  0.57166  0.67942  1.0000
  H   H213      1.0  0.78147  0.63843  0.57727  1.0000
  C   C175      1.0  0.72516  0.54345  0.71563  1.0000
  H   H214      1.0  0.74467  0.68837  0.98693  1.0000
  H   H215      1.0  0.36050  0.59841  0.80862  1.0000
  S   S42       1.0  0.48894  0.61181  0.70062  1.0000
  H   H216      1.0  0.69312  0.53503  0.71982  1.0000
  H   H217      1.0  0.37464  0.40199  0.97546  1.0000
  Fe  Fe17      1.0  0.59935  0.57101  0.52837  1.0000
  H   H218      1.0  0.59726  0.68213  0.78035  1.0000
  C   C176      1.0  0.60419  0.68455  0.92278  1.0000
  C   C177      1.0  0.59562  0.52440  0.64913  1.0000
  C   C178      1.0  0.58019  0.42233  0.96728  1.0000
  S   S43       1.0  0.54194  0.62146  0.51872  1.0000
  C   C179      1.0  0.59883  0.65675  0.66847  1.0000
  C   C180      1.0  0.64559  0.54176  0.90246  1.0000
  H   H219      1.0  0.63171  0.42513  0.53828  1.0000
  H   H220      1.0  0.61146  0.40327  0.69290  1.0000
  C   C181      1.0  0.67506  0.46729  0.87994  1.0000
  H   H221      1.0  0.68556  0.49537  0.93076  1.0000
  H   H222      1.0  0.69581  0.59567  0.82675  1.0000
  H   H223      1.0  0.66287  0.48051  0.77857  1.0000
  C   C182      1.0  0.63584  0.41555  0.64338  1.0000
  H   H224      1.0  0.55324  0.39050  0.51746  1.0000
  H   H225      1.0  0.77797  0.45374  0.68887  1.0000
  C   C183      1.0  0.73837  0.43647  0.98193  1.0000
  C   C184      1.0  0.74231  0.66910  0.76043  1.0000
  H   H226      1.0  0.74524  0.65679  0.70554  1.0000
  H   H227      1.0  0.48360  0.41431  0.92851  1.0000
  C   C185      1.0  0.35434  0.41292  0.78460  1.0000
  C   C186      1.0  0.62035  0.70596  0.54383  1.0000
  H   H228      1.0  0.36163  0.61691  0.99906  1.0000
  C   C187      1.0  0.78006  0.71993  0.89638  1.0000
  C   C188      1.0  0.60900  0.39763  0.66536  1.0000
  Fe  Fe18      1.0  0.79181  0.57545  0.89073  1.0000
  H   H229      1.0  0.31123  0.63227  0.97892  1.0000
  H   H230      1.0  0.31202  0.71477  0.93565  1.0000
  C   C189      1.0  0.35440  0.53314  0.00791  1.0000
  C   C190      1.0  0.73463  0.40704  0.00674  1.0000
  C   C191      1.0  0.61157  0.71516  0.51027  1.0000
  H   H231      1.0  0.80575  0.68643  0.53797  1.0000
  C   C192      1.0  0.35704  0.86850  0.49904  1.0000
  C   C193      1.0  0.60179  0.72495  0.03656  1.0000
  C   C194      1.0  0.61363  0.79383  0.07030  1.0000
  S   S44       1.0  0.67866  0.94783  0.29490  1.0000
  S   S45       1.0  0.35848  0.99445  0.19065  1.0000
  H   H232      1.0  0.47574  0.91132  0.27323  1.0000
  C   C195      1.0  0.33428  0.91330  0.26234  1.0000
  H   H233      1.0  0.52582  0.72220  0.25534  1.0000
  H   H234      1.0  0.44035  0.00963  0.01022  1.0000
  C   C196      1.0  0.65989  0.73950  0.32625  1.0000
  H   H235      1.0  0.30770  0.81506  0.10403  1.0000
  C   C197      1.0  0.65335  0.74514  0.16115  1.0000
  Fe  Fe19      1.0  0.74379  0.90712  0.29795  1.0000
  C   C198      1.0  0.80112  0.99443  0.20579  1.0000
  C   C199      1.0  0.34768  0.74873  0.05686  1.0000
  H   H236      1.0  0.65071  0.77636  0.14986  1.0000
  S   S46       1.0  0.75742  0.89873  0.24111  1.0000
  C   C200      1.0  0.69996  0.99236  0.09771  1.0000
  H   H237      1.0  0.42392  0.97187  0.25224  1.0000
  H   H238      1.0  0.53660  0.96891  0.43167  1.0000
  H   H239      1.0  0.57099  0.00050  0.13221  1.0000
  S   S47       1.0  0.39785  0.95909  0.09878  1.0000
  C   C201      1.0  0.58263  0.98432  0.50823  1.0000
  S   S48       1.0  0.47199  0.78279  0.15073  1.0000
  H   H240      1.0  0.41729  0.83312  0.20602  1.0000
  C   C202      1.0  0.47205  0.78122  0.19532  1.0000
  S   S49       1.0  0.45266  0.96497  0.39035  1.0000
  H   H241      1.0  0.34327  0.04107  0.35492  1.0000
  H   H242      1.0  0.34667  0.02126  0.44928  1.0000
  H   H243      1.0  0.56436  0.74264  0.10038  1.0000
  H   H244      1.0  0.67282  0.74482  0.05904  1.0000
  H   H245      1.0  0.58916  0.79110  0.25380  1.0000
  S   S50       1.0  0.46362  0.91055  0.15392  1.0000
  H   H246      1.0  0.52092  0.04308  0.48907  1.0000
  H   H247      1.0  0.55609  0.78904  0.31125  1.0000
  C   C203      1.0  0.47002  0.77291  0.26614  1.0000
  H   H248      1.0  0.52497  0.86316  0.36387  1.0000
  C   C204      1.0  0.43442  0.02248  0.50062  1.0000
  H   H249      1.0  0.46591  0.73309  0.38287  1.0000
  C   C205      1.0  0.44177  0.03210  0.44026  1.0000
  C   C206      1.0  0.31886  0.77615  0.03711  1.0000
  C   C207      1.0  0.43792  0.04984  0.47431  1.0000
  C   C208      1.0  0.54466  0.95238  0.22036  1.0000
  H   H250      1.0  0.59896  0.75972  0.35707  1.0000
  H   H251      1.0  0.61744  0.89499  0.11342  1.0000
  S   S51       1.0  0.32575  0.88361  0.05010  1.0000
  C   C209      1.0  0.78019  0.78284  0.17704  1.0000
  N   N15       1.0  0.34209  0.74858  0.09452  1.0000
  H   H252      1.0  0.53975  0.82599  0.03769  1.0000
  H   H253      1.0  0.71152  0.78073  0.36609  1.0000
  H   H254      1.0  0.57907  0.94673  0.21365  1.0000
  C   C210      1.0  0.61526  0.75771  0.33225  1.0000
  H   H255      1.0  0.69568  0.86451  0.11304  1.0000
  S   S52       1.0  0.44820  0.85741  0.07934  1.0000
  H   H256      1.0  0.78030  0.85910  0.11875  1.0000
  H   H257      1.0  0.76529  0.97882  0.49277  1.0000
  C   C211      1.0  0.56372  0.98367  0.15529  1.0000
  C   C212      1.0  0.59008  0.77503  0.30603  1.0000
  C   C213      1.0  0.54978  0.04793  0.19588  1.0000
  H   H258      1.0  0.53625  0.77600  0.01262  1.0000
  C   C214      1.0  0.31771  0.00595  0.44941  1.0000
  H   H259      1.0  0.47369  0.92277  0.02241  1.0000
  H   H260      1.0  0.71448  0.03031  0.45944  1.0000
  H   H261      1.0  0.37414  0.90787  0.21588  1.0000
  S   S53       1.0  0.44158  0.83615  0.39475  1.0000
  S   S54       1.0  0.66580  0.99425  0.21133  1.0000
  S   S55       1.0  0.71768  0.84354  0.30051  1.0000
  H   H262      1.0  0.54664  0.97578  0.34735  1.0000
  C   C215      1.0  0.53017  0.92553  0.24378  1.0000
  S   S56       1.0  0.69091  0.89810  0.48641  1.0000
  C   C216      1.0  0.78985  0.82909  0.13103  1.0000
  H   H263      1.0  0.59551  0.97549  0.16726  1.0000
  H   H264      1.0  0.43219  0.92589  0.45207  1.0000
  C   C217      1.0  0.55938  0.79439  0.02680  1.0000
  S   S57       1.0  0.79127  0.93459  0.33219  1.0000
  C   C218      1.0  0.50209  0.74648  0.24471  1.0000
  H   H265      1.0  0.52621  0.72852  0.19267  1.0000
  S   S58       1.0  0.71069  0.99305  0.05377  1.0000
  H   H266      1.0  0.39021  0.79092  0.10232  1.0000
  C   C219      1.0  0.53092  0.99170  0.32530  1.0000
  H   H267      1.0  0.66595  0.84577  0.42160  1.0000
  Fe  Fe20      1.0  0.74947  0.85202  0.50016  1.0000
  S   S59       1.0  0.35416  0.81368  0.35446  1.0000
  C   C220      1.0  0.45383  0.72445  0.40808  1.0000
  C   C221      1.0  0.62599  0.96855  0.41955  1.0000
  C   C222      1.0  0.59305  0.86775  0.35941  1.0000
  Fe  Fe21      1.0  0.72524  0.83859  0.24308  1.0000
  H   H268      1.0  0.37410  0.88222  0.47919  1.0000
  C   C223      1.0  0.66182  0.02762  0.14967  1.0000
  C   C224      1.0  0.76712  0.82128  0.16074  1.0000
  C   C225      1.0  0.65891  0.77710  0.07075  1.0000
  C   C226      1.0  0.61734  0.99129  0.45275  1.0000
  H   H269      1.0  0.36477  0.01939  0.39275  1.0000
  C   C227      1.0  0.76798  0.87348  0.41646  1.0000
  H   H270      1.0  0.50442  0.02952  0.04141  1.0000
  H   H271      1.0  0.65073  0.75480  0.39747  1.0000
  H   H272      1.0  0.60852  0.92020  0.04465  1.0000
  C   C228      1.0  0.61946  0.73695  0.18226  1.0000
  H   H273      1.0  0.43410  0.78633  0.47955  1.0000
  H   H274      1.0  0.78476  0.02045  0.25806  1.0000
  H   H275      1.0  0.73966  0.84507  0.17114  1.0000
  H   H276      1.0  0.37773  0.76419  0.13963  1.0000
  S   S60       1.0  0.40918  0.88760  0.32700  1.0000
  H   H277      1.0  0.72845  0.98839  0.40235  1.0000
  H   H278      1.0  0.33565  0.98684  0.36416  1.0000
  H   H279      1.0  0.52961  0.83756  0.42217  1.0000
  H   H280      1.0  0.57826  0.03565  0.21094  1.0000
  S   S61       1.0  0.59976  0.82269  0.46689  1.0000
  C   C229      1.0  0.31232  0.97897  0.47566  1.0000
  C   C230      1.0  0.55581  0.85909  0.37636  1.0000
  Fe  Fe22      1.0  0.65321  0.88425  0.29182  1.0000
  C   C231      1.0  0.38389  0.72200  0.03898  1.0000
  H   H281      1.0  0.38006  0.02166  0.04152  1.0000
  C   C232      1.0  0.68092  0.99307  0.16797  1.0000
  C   C233      1.0  0.71982  0.95788  0.11602  1.0000
  C   C234      1.0  0.30752  0.00087  0.24869  1.0000
  Fe  Fe23      1.0  0.42062  0.90557  0.38185  1.0000
  H   H282      1.0  0.47649  0.00459  0.14641  1.0000
  C   C235      1.0  0.69772  0.98939  0.41629  1.0000
  H   H283      1.0  0.41443  0.82459  0.26846  1.0000
  C   C236      1.0  0.58372  0.91327  0.02700  1.0000
  C   C237      1.0  0.35060  0.92921  0.23291  1.0000
  Fe  Fe24      1.0  0.37086  0.83691  0.40761  1.0000
  S   S62       1.0  0.75368  0.86597  0.03849  1.0000
  H   H284      1.0  0.58663  0.04336  0.27291  1.0000
  Fe  Fe25      1.0  0.65455  0.84311  0.49673  1.0000
  C   C238      1.0  0.49453  0.03046  0.15768  1.0000
  H   H285      1.0  0.54013  0.04589  0.44570  1.0000
  H   H286      1.0  0.72482  0.93130  0.16546  1.0000
  S   S63       1.0  0.36972  0.87747  0.13967  1.0000
  H   H287      1.0  0.51865  0.96147  0.47376  1.0000
  H   H288      1.0  0.63993  0.05492  0.16280  1.0000
  Fe  Fe26      1.0  0.76144  0.93651  0.03506  1.0000
  S   S64       1.0  0.58888  0.88458  0.31801  1.0000
  C   C239      1.0  0.63294  0.86262  0.37553  1.0000
  H   H289      1.0  0.57872  0.72775  0.50339  1.0000
  H   H290      1.0  0.52447  0.74204  0.06789  1.0000
  C   C240      1.0  0.33733  0.97314  0.22627  1.0000
  C   C241      1.0  0.33637  0.02083  0.37605  1.0000
  H   H291      1.0  0.53018  0.79244  0.09168  1.0000
  C   C242      1.0  0.66572  0.96759  0.40183  1.0000
  H   H292      1.0  0.56649  0.92704  0.45573  1.0000
  H   H293      1.0  0.40667  0.88846  0.01341  1.0000
  H   H294      1.0  0.77438  0.01581  0.19543  1.0000
  H   H295      1.0  0.74524  0.85306  0.42488  1.0000
  C   C243      1.0  0.45767  0.96636  0.24317  1.0000
  H   H296      1.0  0.67167  0.94996  0.37658  1.0000
  H   H297      1.0  0.34473  0.87948  0.26770  1.0000
  S   S65       1.0  0.34398  0.80279  0.44981  1.0000
  C   C244      1.0  0.55044  0.03858  0.47186  1.0000
  C   C245      1.0  0.54891  0.76111  0.07941  1.0000
  C   C246      1.0  0.44110  0.80916  0.21680  1.0000
  H   H298      1.0  0.55285  0.89946  0.25352  1.0000
  H   H299      1.0  0.74256  0.93125  0.10299  1.0000
  S   S66       1.0  0.65826  0.87379  0.23453  1.0000
  C   C247      1.0  0.63531  0.84933  0.40894  1.0000
  C   C248      1.0  0.53972  0.92362  0.03728  1.0000
  Fe  Fe27      1.0  0.37957  0.89257  0.08534  1.0000
  C   C249      1.0  0.51526  0.98520  0.20573  1.0000
  C   C250      1.0  0.38171  0.75985  0.11114  1.0000
  H   H300      1.0  0.71648  0.72290  0.13933  1.0000
  C   C251      1.0  0.79385  0.91583  0.37306  1.0000
  Fe  Fe28      1.0  0.68949  0.93461  0.23825  1.0000
  H   H301      1.0  0.59057  0.76163  0.18695  1.0000
  H   H302      1.0  0.60268  0.95103  0.40670  1.0000
  C   C252      1.0  0.59955  0.83671  0.08682  1.0000
  H   H303      1.0  0.66165  0.86958  0.36249  1.0000
  H   H304      1.0  0.74615  0.74263  0.33617  1.0000
  C   C253      1.0  0.76353  0.89076  0.38450  1.0000
  C   C254      1.0  0.60872  0.77626  0.27356  1.0000
  H   H305      1.0  0.66734  0.76119  0.24187  1.0000
  H   H306      1.0  0.51540  0.03990  0.38312  1.0000
  Fe  Fe29      1.0  0.34165  0.88528  0.34621  1.0000
  C   C255      1.0  0.65258  0.75948  0.26697  1.0000
  N   N16       1.0  0.57540  0.99352  0.47201  1.0000
  S   S67       1.0  0.35175  0.90830  0.40048  1.0000
  Fe  Fe30      1.0  0.39362  0.94145  0.15288  1.0000
  C   C256      1.0  0.62891  0.86173  0.10200  1.0000
  C   C257      1.0  0.72396  0.74503  0.35915  1.0000
  C   C258      1.0  0.67084  0.02692  0.11450  1.0000
  C   C259      1.0  0.55843  0.84457  0.40922  1.0000
  H   H307      1.0  0.37139  0.73438  0.38995  1.0000
  C   C260      1.0  0.43976  0.80462  0.25222  1.0000
  C   C261      1.0  0.67779  0.74096  0.29273  1.0000
  S   S68       1.0  0.75380  0.77357  0.21505  1.0000
  C   C262      1.0  0.68799  0.80238  0.08624  1.0000
  H   H308      1.0  0.44705  0.01777  0.21027  1.0000
  N   N17       1.0  0.53033  0.01132  0.17903  1.0000
  C   C263      1.0  0.60009  0.04908  0.29765  1.0000
  S   S69       1.0  0.71403  0.79497  0.50522  1.0000
  H   H309      1.0  0.55278  0.95217  0.14620  1.0000
  N   N18       1.0  0.58183  0.76871  0.05350  1.0000
  H   H310      1.0  0.72251  0.78945  0.08589  1.0000
  H   H311      1.0  0.56569  0.85174  0.08756  1.0000
  C   C264      1.0  0.50771  0.91476  0.01444  1.0000
  C   C265      1.0  0.65025  0.01416  0.46632  1.0000
  C   C266      1.0  0.59800  0.84000  0.42559  1.0000
  Fe  Fe31      1.0  0.42350  0.81800  0.34091  1.0000
  C   C267      1.0  0.50256  0.75016  0.20934  1.0000
  H   H312      1.0  0.64551  0.03336  0.49096  1.0000
  H   H313      1.0  0.65575  0.05328  0.10016  1.0000
  C   C268      1.0  0.68986  0.01290  0.44837  1.0000
  C   C269      1.0  0.67302  0.84466  0.10166  1.0000
  H   H314      1.0  0.54977  0.97581  0.30186  1.0000
  C   C270      1.0  0.33880  0.83028  0.49122  1.0000
  C   C271      1.0  0.70993  0.95798  0.15126  1.0000
  C   C272      1.0  0.48672  0.93230  0.25503  1.0000
  C   C273      1.0  0.35344  0.01995  0.02453  1.0000
  H   H315      1.0  0.43479  0.75475  0.42164  1.0000
  C   C274      1.0  0.44083  0.98738  0.43235  1.0000
  S   S70       1.0  0.46601  0.76292  0.30948  1.0000
  H   H316      1.0  0.33705  0.97369  0.49457  1.0000
  Fe  Fe32      1.0  0.44044  0.84809  0.13510  1.0000
  C   C275      1.0  0.43037  0.97819  0.49264  1.0000
  C   C276      1.0  0.43316  0.96062  0.45828  1.0000
  Fe  Fe33      1.0  0.46581  0.92259  0.09843  1.0000
  S   S71       1.0  0.52519  0.94628  0.07904  1.0000
  C   C277      1.0  0.47151  0.99261  0.21891  1.0000
  H   H317      1.0  0.45069  0.03426  0.08986  1.0000
  H   H318      1.0  0.50696  0.04666  0.13596  1.0000
  C   C278      1.0  0.31590  0.00728  0.03803  1.0000
  H   H319      1.0  0.50425  0.81472  0.47804  1.0000
  H   H320      1.0  0.49751  0.98309  0.32426  1.0000
  C   C279      1.0  0.54833  0.96135  0.45746  1.0000
  H   H321      1.0  0.73699  0.88435  0.36861  1.0000
  C   C280      1.0  0.57579  0.04850  0.32874  1.0000
  H   H322      1.0  0.44653  0.05291  0.42012  1.0000
  N   N19       1.0  0.53026  0.03999  0.32872  1.0000
  H   H323      1.0  0.74411  0.73256  0.38046  1.0000
  H   H324      1.0  0.71164  0.72844  0.28623  1.0000
  H   H325      1.0  0.31508  0.99866  0.06415  1.0000
  C   C281      1.0  0.80362  0.88000  0.43625  1.0000
  H   H326      1.0  0.41067  0.73407  0.10524  1.0000
  H   H327      1.0  0.62653  0.72827  0.01636  1.0000
  C   C282      1.0  0.49205  0.80414  0.50162  1.0000
  C   C283      1.0  0.45284  0.78780  0.50244  1.0000
  C   C284      1.0  0.59835  0.05301  0.35962  1.0000
  H   H328      1.0  0.58333  0.05050  0.38429  1.0000
  H   H329      1.0  0.51724  0.04126  0.27464  1.0000
  H   H330      1.0  0.38899  0.04104  0.82380  1.0000
  H   H331      1.0  0.51877  0.79857  0.58436  1.0000
  C   C285      1.0  0.48161  0.03981  0.79533  1.0000
  H   H332      1.0  0.49158  0.97122  0.77769  1.0000
  H   H333      1.0  0.61657  0.82233  0.70686  1.0000
  Fe  Fe34      1.0  0.47722  0.92551  0.62663  1.0000
  H   H334      1.0  0.41128  0.88716  0.73064  1.0000
  H   H335      1.0  0.64803  0.93663  0.72822  1.0000
  S   S72       1.0  0.49670  0.81646  0.78275  1.0000
  S   S73       1.0  0.47406  0.85531  0.87816  1.0000
  C   C286      1.0  0.36471  0.75396  0.98596  1.0000
  S   S74       1.0  0.73824  0.81863  0.94690  1.0000
  C   C287      1.0  0.72441  0.02429  0.66248  1.0000
  C   C288      1.0  0.57755  0.99442  0.95322  1.0000
  H   H336      1.0  0.31817  0.89954  0.72082  1.0000
  C   C289      1.0  0.74170  0.78938  0.63354  1.0000
  H   H337      1.0  0.35737  0.05276  0.77243  1.0000
  C   C290      1.0  0.68962  0.04562  0.61044  1.0000
  C   C291      1.0  0.78286  0.97104  0.51643  1.0000
  C   C292      1.0  0.47661  0.00379  0.77249  1.0000
  N   N20       1.0  0.31977  0.05479  0.83674  1.0000
  H   H338      1.0  0.78853  0.00753  0.93930  1.0000
  S   S75       1.0  0.53168  0.87155  0.63479  1.0000
  H   H339      1.0  0.42090  0.79628  0.64624  1.0000
  C   C293      1.0  0.32411  0.86302  0.84595  1.0000
  H   H340      1.0  0.50751  0.74555  0.61741  1.0000
  H   H341      1.0  0.76395  0.81536  0.79780  1.0000
  C   C294      1.0  0.51979  0.89640  0.98098  1.0000
  H   H342      1.0  0.65979  0.02260  0.72543  1.0000
  H   H343      1.0  0.54570  0.82079  0.53071  1.0000
  C   C295      1.0  0.30816  0.03108  0.80467  1.0000
  H   H344      1.0  0.73489  0.03378  0.92975  1.0000
  Fe  Fe35      1.0  0.38243  0.93449  0.61164  1.0000
  H   H345      1.0  0.70639  0.82574  0.74058  1.0000
  C   C296      1.0  0.35379  0.88860  0.53282  1.0000
  C   C297      1.0  0.60894  0.93661  0.63533  1.0000
  H   H346      1.0  0.31697  0.03865  0.94460  1.0000
  C   C298      1.0  0.47075  0.72496  0.91982  1.0000
  H   H347      1.0  0.46526  0.02337  0.97239  1.0000
  S   S76       1.0  0.68286  0.92042  0.81816  1.0000
  H   H348      1.0  0.42122  0.90746  0.95419  1.0000
  C   C299      1.0  0.77013  0.03110  0.92274  1.0000
  C   C300      1.0  0.65256  0.96056  0.94313  1.0000
  H   H349      1.0  0.52672  0.02039  0.70260  1.0000
  H   H350      1.0  0.40979  0.82970  0.61079  1.0000
  C   C301      1.0  0.31659  0.81286  0.51702  1.0000
  H   H351      1.0  0.56524  0.97566  0.75322  1.0000
  H   H352      1.0  0.55294  0.74326  0.88926  1.0000
  C   C302      1.0  0.33241  0.87050  0.55878  1.0000
  H   H353      1.0  0.61732  0.98924  0.76535  1.0000
  C   C303      1.0  0.60696  0.97463  0.69314  1.0000
  H   H354      1.0  0.77840  0.88183  0.91192  1.0000
  H   H355      1.0  0.73089  0.85859  0.62606  1.0000
  H   H356      1.0  0.62443  0.76357  0.69998  1.0000
  S   S77       1.0  0.57896  0.86562  0.92863  1.0000
  C   C304      1.0  0.55236  0.04118  0.70803  1.0000
  Fe  Fe36      1.0  0.52790  0.89212  0.89340  1.0000
  H   H357      1.0  0.46343  0.81935  0.62672  1.0000
  C   C305      1.0  0.32764  0.77881  0.00226  1.0000
  H   H358      1.0  0.66856  0.79352  0.69156  1.0000
  H   H359      1.0  0.36131  0.78666  0.74690  1.0000
  C   C306      1.0  0.47752  0.73174  0.61100  1.0000
  C   C307      1.0  0.77761  0.84393  0.66463  1.0000
  C   C308      1.0  0.78488  0.78546  0.80350  1.0000
  C   C309      1.0  0.80615  0.75680  0.77688  1.0000
  H   H360      1.0  0.67216  0.87318  0.68706  1.0000
  N   N21       1.0  0.65401  0.78837  0.74536  1.0000
  H   H361      1.0  0.59651  0.76254  0.76002  1.0000
  C   C310      1.0  0.67191  0.86500  0.86703  1.0000
  C   C311      1.0  0.46020  0.77693  0.56361  1.0000
  H   H362      1.0  0.39107  0.02092  0.92449  1.0000
  H   H363      1.0  0.37598  0.76762  0.58517  1.0000
  H   H364      1.0  0.68506  0.75855  0.80585  1.0000
  Fe  Fe37      1.0  0.77470  0.85818  0.98304  1.0000
  H   H365      1.0  0.42717  0.95701  0.51281  1.0000
  C   C312      1.0  0.79350  0.76724  0.67650  1.0000
  C   C313      1.0  0.50770  0.83257  0.74207  1.0000
  C   C314      1.0  0.62836  0.04133  0.71797  1.0000
  C   C315      1.0  0.52519  0.85695  0.67649  1.0000
  H   H366      1.0  0.55178  0.02248  0.94860  1.0000
  C   C316      1.0  0.59579  0.89323  0.99404  1.0000
  H   H367      1.0  0.40654  0.80414  0.76833  1.0000
  C   C317      1.0  0.45329  0.00999  0.74269  1.0000
  C   C318      1.0  0.58465  0.75251  0.89721  1.0000
  S   S78       1.0  0.37378  0.00807  0.61282  1.0000
  H   H368      1.0  0.54254  0.78725  0.66204  1.0000
  H   H369      1.0  0.64199  0.86042  0.85476  1.0000
  H   H370      1.0  0.35767  0.86000  0.69676  1.0000
  C   C319      1.0  0.42137  0.76763  0.88376  1.0000
  H   H371      1.0  0.64560  0.87102  0.62828  1.0000
  H   H372      1.0  0.55187  0.98129  0.52234  1.0000
  N   N22       1.0  0.80428  0.00801  0.53053  1.0000
  C   C320      1.0  0.43491  0.01348  0.98270  1.0000
  S   S79       1.0  0.77649  0.92987  0.97874  1.0000
  Fe  Fe38      1.0  0.49097  0.87081  0.82515  1.0000
  S   S80       1.0  0.48493  0.95785  0.90331  1.0000
  H   H373      1.0  0.58432  0.01784  0.89069  1.0000
  C   C321      1.0  0.79014  0.77561  0.83745  1.0000
  H   H374      1.0  0.44918  0.98191  0.72532  1.0000
  C   C322      1.0  0.38835  0.90663  0.96309  1.0000
  H   H375      1.0  0.62988  0.88472  0.98627  1.0000
  H   H376      1.0  0.43203  0.98041  0.97025  1.0000
  C   C323      1.0  0.51141  0.88941  0.70335  1.0000
  S   S81       1.0  0.41744  0.93239  0.66097  1.0000
  C   C324      1.0  0.31832  0.03018  0.97069  1.0000
  C   C325      1.0  0.33106  0.03379  0.77333  1.0000
  C   C326      1.0  0.35384  0.91775  0.94163  1.0000
  H   H377      1.0  0.57100  0.03019  0.77077  1.0000
  C   C327      1.0  0.42780  0.73271  0.85808  1.0000
  C   C328      1.0  0.33546  0.86509  0.72000  1.0000
  C   C329      1.0  0.61292  0.99444  0.89808  1.0000
  H   H378      1.0  0.64245  0.99977  0.88345  1.0000
  C   C330      1.0  0.31306  0.83313  0.55061  1.0000
  N   N23       1.0  0.35952  0.85712  0.75175  1.0000
  C   C331      1.0  0.68449  0.84220  0.89551  1.0000
  C   C332      1.0  0.52188  0.80031  0.71526  1.0000
  H   H379      1.0  0.59537  0.01144  0.52312  1.0000
  C   C333      1.0  0.34971  0.85584  0.81559  1.0000
  H   H380      1.0  0.75878  0.96306  0.53545  1.0000
  C   C334      1.0  0.72407  0.97991  0.65180  1.0000
  C   C335      1.0  0.43695  0.77428  0.53285  1.0000
  H   H381      1.0  0.61958  0.79204  0.79481  1.0000
  Fe  Fe39      1.0  0.41629  0.00499  0.65812  1.0000
  H   H382      1.0  0.76029  0.72864  0.54979  1.0000
  C   C336      1.0  0.43405  0.80403  0.62120  1.0000
  C   C337      1.0  0.69680  0.73675  0.78340  1.0000
  C   C338      1.0  0.56378  0.88559  0.97088  1.0000
  N   N24       1.0  0.61921  0.99841  0.93571  1.0000
  H   H383      1.0  0.41491  0.87988  0.77494  1.0000
  H   H384      1.0  0.65417  0.85860  0.75224  1.0000
  C   C339      1.0  0.39134  0.88822  0.75476  1.0000
  H   H385      1.0  0.57784  0.77071  0.92309  1.0000
  H   H386      1.0  0.39296  0.73370  0.61862  1.0000
  H   H387      1.0  0.33907  0.85765  0.87031  1.0000
  C   C340      1.0  0.74842  0.87757  0.89976  1.0000
  S   S82       1.0  0.47907  0.99800  0.62792  1.0000
  C   C341      1.0  0.61370  0.79103  0.76698  1.0000
  S   S83       1.0  0.74459  0.04002  0.70207  1.0000
  H   H388      1.0  0.38427  0.84485  0.81771  1.0000
  H   H389      1.0  0.75430  0.74894  0.89504  1.0000
  H   H390      1.0  0.64456  0.92852  0.93175  1.0000
  S   S84       1.0  0.54843  0.90270  0.83991  1.0000
  C   C342      1.0  0.35607  0.03131  0.99025  1.0000
  H   H391      1.0  0.40443  0.80554  0.72331  1.0000
  C   C343      1.0  0.70680  0.96841  0.62019  1.0000
  C   C344      1.0  0.59528  0.97372  0.65826  1.0000
  H   H392      1.0  0.67411  0.74582  0.89046  1.0000
  C   C345      1.0  0.73620  0.89999  0.87091  1.0000
  C   C346      1.0  0.64054  0.79198  0.70938  1.0000
  Fe  Fe40      1.0  0.43680  0.99609  0.58251  1.0000
  C   C347      1.0  0.63561  0.93747  0.70279  1.0000
  C   C348      1.0  0.33743  0.89426  0.00784  1.0000
  H   H393      1.0  0.36912  0.00252  0.84978  1.0000
  S   S85       1.0  0.44424  0.93417  0.82833  1.0000
  H   H394      1.0  0.58046  0.99444  0.98154  1.0000
  Fe  Fe41      1.0  0.50025  0.96501  0.84818  1.0000
  C   C349      1.0  0.40370  0.74396  0.59360  1.0000
  Fe  Fe42      1.0  0.70255  0.82164  0.56036  1.0000
  C   C350      1.0  0.67547  0.82683  0.75579  1.0000
  H   H395      1.0  0.49522  0.89005  0.96305  1.0000
  H   H396      1.0  0.65514  0.95657  0.97097  1.0000
  C   C351      1.0  0.50324  0.87713  0.73630  1.0000
  C   C352      1.0  0.72249  0.84861  0.91203  1.0000
  C   C353      1.0  0.51543  0.80745  0.53132  1.0000
  C   C354      1.0  0.49982  0.79424  0.56190  1.0000
  N   N25       1.0  0.59341  0.01396  0.71765  1.0000
  H   H397      1.0  0.50735  0.92391  0.69868  1.0000
  N   N26       1.0  0.44392  0.76420  0.59660  1.0000
  C   C355      1.0  0.39229  0.72490  0.00410  1.0000
  S   S86       1.0  0.51021  0.03109  0.83267  1.0000
  H   H398      1.0  0.59060  0.82169  0.76377  1.0000
  S   S87       1.0  0.36281  0.93759  0.90179  1.0000
  C   C356      1.0  0.74846  0.83306  0.63992  1.0000
  H   H399      1.0  0.59420  0.77669  0.88001  1.0000
  S   S88       1.0  0.64027  0.86593  0.55214  1.0000
  H   H400      1.0  0.66387  0.82088  0.90552  1.0000
  C   C357      1.0  0.63209  0.04094  0.94863  1.0000
  S   S89       1.0  0.66900  0.98786  0.55966  1.0000
  H   H401      1.0  0.68326  0.82836  0.78339  1.0000
  H   H402      1.0  0.56579  0.96350  0.94397  1.0000
  Fe  Fe43      1.0  0.43249  0.92195  0.88291  1.0000
  H   H403      1.0  0.52630  0.76589  0.71991  1.0000
  H   H404      1.0  0.37204  0.75753  0.95928  1.0000
  Fe  Fe44      1.0  0.74232  0.93433  0.79100  1.0000
  H   H405      1.0  0.75617  0.92243  0.86149  1.0000
  C   C358      1.0  0.32002  0.01275  0.74250  1.0000
  C   C359      1.0  0.31139  0.91491  0.95261  1.0000
  H   H406      1.0  0.36754  0.91827  0.53864  1.0000
  H   H407      1.0  0.57943  0.72637  0.83434  1.0000
  H   H408      1.0  0.65238  0.75224  0.93381  1.0000
  H   H409      1.0  0.59873  0.93621  0.60904  1.0000
  C   C360      1.0  0.33128  0.86304  0.78333  1.0000
  H   H410      1.0  0.60627  0.96098  0.88880  1.0000
  H   H411      1.0  0.40052  0.79810  0.87954  1.0000
  C   C361      1.0  0.38010  0.89573  0.99649  1.0000
  C   C362      1.0  0.64969  0.90083  0.67946  1.0000
  C   C363      1.0  0.80017  0.81104  0.68287  1.0000
  C   C364      1.0  0.63552  0.89996  0.64604  1.0000
  H   H412      1.0  0.78341  0.87764  0.66890  1.0000
  H   H413      1.0  0.40607  0.76256  0.53154  1.0000
  C   C365      1.0  0.76383  0.75651  0.65210  1.0000
  S   S90       1.0  0.76263  0.00076  0.79069  1.0000
  H   H414      1.0  0.64934  0.02087  0.99951  1.0000
  H   H415      1.0  0.43970  0.79190  0.93364  1.0000
  S   S91       1.0  0.32957  0.89394  0.60155  1.0000
  C   C366      1.0  0.65910  0.72867  0.91037  1.0000
  S   S92       1.0  0.74457  0.87388  0.55606  1.0000
  Fe  Fe45      1.0  0.76901  0.98504  0.73376  1.0000
  H   H416      1.0  0.33752  0.01585  0.71883  1.0000
  H   H417      1.0  0.37482  0.92282  0.76120  1.0000
  C   C367      1.0  0.53122  0.81242  0.68259  1.0000
  H   H418      1.0  0.77557  0.01556  0.89604  1.0000
  S   S93       1.0  0.44241  0.92234  0.57749  1.0000
  C   C368      1.0  0.36531  0.03794  0.84481  1.0000
  H   H419      1.0  0.77202  0.79834  0.85705  1.0000
  C   C369      1.0  0.43514  0.05253  0.73562  1.0000
  H   H420      1.0  0.31154  0.84221  0.71581  1.0000
  H   H421      1.0  0.75878  0.72259  0.64709  1.0000
  S   S94       1.0  0.44042  0.04339  0.54276  1.0000
  C   C370      1.0  0.38375  0.81145  0.74733  1.0000
  C   C371      1.0  0.44362  0.76414  0.91430  1.0000
  S   S95       1.0  0.40276  0.73919  0.81889  1.0000
  N   N27       1.0  0.39581  0.04604  0.97697  1.0000
  H   H422      1.0  0.49263  0.90184  0.75711  1.0000
  H   H423      1.0  0.57574  0.00137  0.64800  1.0000
  H   H424      1.0  0.73726  0.95444  0.66764  1.0000
  C   C372      1.0  0.58646  0.00152  0.75306  1.0000
  C   C373      1.0  0.68410  0.74721  0.75005  1.0000
  S   S96       1.0  0.74262  0.92167  0.73415  1.0000
  C   C374      1.0  0.68941  0.00130  0.59963  1.0000
  C   C375      1.0  0.69789  0.89367  0.85462  1.0000
  Fe  Fe46      1.0  0.68313  0.91597  0.54292  1.0000
  S   S97       1.0  0.70632  0.77545  0.60203  1.0000
  H   H425      1.0  0.68522  0.96396  0.93261  1.0000
  H   H426      1.0  0.70631  0.93422  0.61204  1.0000
  C   C376      1.0  0.64677  0.04700  0.98252  1.0000
  C   C377      1.0  0.39545  0.05198  0.93971  1.0000
  C   C378      1.0  0.77053  0.04802  0.53628  1.0000
  H   H427      1.0  0.74310  0.04222  0.55309  1.0000
  H   H428      1.0  0.78539  0.04244  0.59948  1.0000
  H   H429      1.0  0.63414  0.05213  0.69203  1.0000
  H   H430      1.0  0.80122  0.76406  0.75061  1.0000
  H   H431      1.0  0.69577  0.72254  0.69572  1.0000
  H   H432      1.0  0.60565  0.95317  0.50991  1.0000
  H   H433      1.0  0.58316  0.80272  0.00767  1.0000
  H   H434      1.0  0.64598  0.31266  0.28906  1.0000
  C   C379      1.0  0.62858  0.15249  0.26550  1.0000
  H   H435      1.0  0.41749  0.30563  0.47582  1.0000
  S   S98       1.0  0.74301  0.23572  0.10730  1.0000
  H   H436      1.0  0.40086  0.08736  0.02354  1.0000
  H   H437      1.0  0.47886  0.17045  0.04025  1.0000
  C   C380      1.0  0.74971  0.12734  0.18259  1.0000
  C   C381      1.0  0.43566  0.31641  0.11281  1.0000
  N   N28       1.0  0.68591  0.27103  0.24954  1.0000
  H   H438      1.0  0.56148  0.06867  0.17680  1.0000
  N   N29       1.0  0.36012  0.28232  0.45611  1.0000
  H   H439      1.0  0.38461  0.35143  0.21938  1.0000
  H   H440      1.0  0.69962  0.22567  0.28870  1.0000
  C   C382      1.0  0.64140  0.06079  0.35935  1.0000
  Fe  Fe47      1.0  0.52882  0.26044  0.46180  1.0000
  C   C383      1.0  0.67911  0.23748  0.22160  1.0000
  H   H441      1.0  0.66020  0.32095  0.43518  1.0000
  C   C384      1.0  0.57792  0.14832  0.07974  1.0000
  H   H442      1.0  0.69328  0.33788  0.38074  1.0000
  Fe  Fe48      1.0  0.76546  0.16301  0.10523  1.0000
  H   H443      1.0  0.65754  0.06496  0.38326  1.0000
  H   H444      1.0  0.50876  0.09387  0.36705  1.0000
  H   H445      1.0  0.61818  0.30129  0.25004  1.0000
  C   C385      1.0  0.35342  0.24953  0.10061  1.0000
  C   C386      1.0  0.38007  0.23689  0.46189  1.0000
  H   H446      1.0  0.35748  0.15202  0.39453  1.0000
  H   H447      1.0  0.47181  0.25050  0.10522  1.0000
  C   C387      1.0  0.33374  0.27952  0.39524  1.0000
  S   S99       1.0  0.47987  0.19116  0.15625  1.0000
  H   H448      1.0  0.33200  0.09212  0.21893  1.0000
  Fe  Fe49      1.0  0.57858  0.17291  0.47693  1.0000
  C   C388      1.0  0.42838  0.18839  0.32272  1.0000
  H   H449      1.0  0.69361  0.13008  0.39524  1.0000
  H   H450      1.0  0.34653  0.22691  0.03343  1.0000
  H   H451      1.0  0.57498  0.15953  0.05350  1.0000
  S   S100      1.0  0.79271  0.13021  0.29279  1.0000
  H   H452      1.0  0.65111  0.36070  0.24481  1.0000
  C   C389      1.0  0.61530  0.18444  0.32412  1.0000
  H   H453      1.0  0.42864  0.17557  0.09098  1.0000
  C   C390      1.0  0.58767  0.37086  0.35777  1.0000
  C   C391      1.0  0.57016  0.24306  0.13782  1.0000
  C   C392      1.0  0.64952  0.16812  0.08469  1.0000
  S   S101      1.0  0.56705  0.15258  0.21775  1.0000
  Fe  Fe50      1.0  0.49761  0.17981  0.21014  1.0000
  S   S102      1.0  0.69675  0.29063  0.49638  1.0000
  C   C393      1.0  0.54901  0.31152  0.11184  1.0000
  H   H454      1.0  0.66783  0.09089  0.02195  1.0000
  H   H455      1.0  0.59047  0.33658  0.34790  1.0000
  C   C394      1.0  0.56397  0.29056  0.07991  1.0000
  Fe  Fe51      1.0  0.40594  0.20630  0.23807  1.0000
  C   C395      1.0  0.38158  0.31381  0.47793  1.0000
  S   S103      1.0  0.73196  0.12495  0.14061  1.0000
  C   C396      1.0  0.55543  0.18406  0.28556  1.0000
  C   C397      1.0  0.31464  0.30342  0.06650  1.0000
  C   C398      1.0  0.69512  0.31832  0.43220  1.0000
  H   H456      1.0  0.38356  0.24611  0.08427  1.0000
  C   C399      1.0  0.49457  0.09966  0.03742  1.0000
  C   C400      1.0  0.50627  0.05945  0.29977  1.0000
  H   H457      1.0  0.75596  0.37099  0.11911  1.0000
  H   H458      1.0  0.54445  0.15194  0.09135  1.0000
  C   C401      1.0  0.47284  0.14080  0.05116  1.0000
  C   C402      1.0  0.50533  0.05869  0.36086  1.0000
  H   H459      1.0  0.79976  0.34091  0.04849  1.0000
  H   H460      1.0  0.62955  0.26013  0.27922  1.0000
  H   H461      1.0  0.40108  0.38260  0.11176  1.0000
  C   C403      1.0  0.35440  0.35683  0.23428  1.0000
  H   H462      1.0  0.53886  0.30399  0.16527  1.0000
  H   H463      1.0  0.69745  0.22412  0.41756  1.0000
  C   C404      1.0  0.77642  0.13007  0.25040  1.0000
  C   C405      1.0  0.79575  0.15317  0.22653  1.0000
  H   H464      1.0  0.68926  0.35931  0.09228  1.0000
  C   C406      1.0  0.78242  0.11300  0.38606  1.0000
  S   S104      1.0  0.50824  0.20244  0.48472  1.0000
  C   C407      1.0  0.48732  0.06138  0.05187  1.0000
  H   H465      1.0  0.65083  0.13587  0.24522  1.0000
  H   H466      1.0  0.59966  0.35537  0.40950  1.0000
  C   C408      1.0  0.36569  0.28807  0.41915  1.0000
  C   C409      1.0  0.75919  0.32336  0.39723  1.0000
  H   H467      1.0  0.32498  0.08668  0.42597  1.0000
  C   C410      1.0  0.30736  0.32609  0.27247  1.0000
  C   C411      1.0  0.31371  0.28921  0.46812  1.0000
  H   H468      1.0  0.48928  0.38220  0.39637  1.0000
  S   S105      1.0  0.63581  0.19938  0.36382  1.0000
  S   S106      1.0  0.78259  0.33403  0.35821  1.0000
  H   H469      1.0  0.62752  0.11846  0.13097  1.0000
  H   H470      1.0  0.72443  0.27434  0.29443  1.0000
  H   H471      1.0  0.79750  0.16913  0.17386  1.0000
  Fe  Fe52      1.0  0.50243  0.17679  0.43017  1.0000
  C   C412      1.0  0.41065  0.30361  0.37054  1.0000
  S   S107      1.0  0.40139  0.10904  0.12983  1.0000
  H   H472      1.0  0.31325  0.11417  0.03066  1.0000
  H   H473      1.0  0.54847  0.21080  0.33834  1.0000
  C   C413      1.0  0.55181  0.28776  0.14066  1.0000
  H   H474      1.0  0.65771  0.25249  0.20192  1.0000
  H   H475      1.0  0.52599  0.06991  0.21373  1.0000
  H   H476      1.0  0.75796  0.11845  0.36704  1.0000
  S   S108      1.0  0.51689  0.23749  0.40765  1.0000
  C   C414      1.0  0.68355  0.35009  0.23375  1.0000
  H   H477      1.0  0.31468  0.27800  0.34273  1.0000
  H   H478      1.0  0.32223  0.19192  0.05918  1.0000
  C   C415      1.0  0.58450  0.16353  0.25919  1.0000
  H   H479      1.0  0.34233  0.30269  0.04776  1.0000
  H   H480      1.0  0.72852  0.08838  0.25884  1.0000
  H   H481      1.0  0.56128  0.30885  0.05738  1.0000
  H   H482      1.0  0.56968  0.06430  0.48148  1.0000
  C   C416      1.0  0.44433  0.14368  0.07974  1.0000
  H   H483      1.0  0.69719  0.06867  0.32817  1.0000
  S   S109      1.0  0.50060  0.32996  0.47959  1.0000
  C   C417      1.0  0.41847  0.35210  0.06084  1.0000
  S   S110      1.0  0.75523  0.14985  0.04912  1.0000
  H   H484      1.0  0.63073  0.17062  0.15237  1.0000
  C   C418      1.0  0.69710  0.13789  0.42315  1.0000
  C   C419      1.0  0.64317  0.28720  0.26765  1.0000
  C   C420      1.0  0.34488  0.32153  0.25169  1.0000
  H   H485      1.0  0.63160  0.37980  0.50699  1.0000
  H   H486      1.0  0.59116  0.11238  0.07647  1.0000
  H   H487      1.0  0.75068  0.32538  0.03134  1.0000
  Fe  Fe53      1.0  0.58627  0.20433  0.40673  1.0000
  H   H488      1.0  0.35575  0.27570  0.12158  1.0000
  C   C421      1.0  0.78559  0.30916  0.42390  1.0000
  S   S111      1.0  0.35872  0.21003  0.28244  1.0000
  H   H489      1.0  0.36490  0.21201  0.44606  1.0000
  C   C422      1.0  0.37766  0.29734  0.34817  1.0000
  H   H490      1.0  0.73408  0.15044  0.48395  1.0000
  H   H491      1.0  0.67847  0.15523  0.30238  1.0000
  C   C423      1.0  0.42169  0.16175  0.37893  1.0000
  H   H492      1.0  0.44068  0.08419  0.48008  1.0000
  H   H493      1.0  0.66366  0.21063  0.23142  1.0000
  H   H494      1.0  0.66540  0.15772  0.43239  1.0000
  H   H495      1.0  0.67044  0.18834  0.09949  1.0000
  S   S112      1.0  0.37934  0.22096  0.18694  1.0000
  C   C424      1.0  0.32283  0.12779  0.22787  1.0000
  C   C425      1.0  0.73031  0.10473  0.20659  1.0000
  H   H496      1.0  0.41537  0.23060  0.45451  1.0000
  H   H497      1.0  0.43242  0.30204  0.42129  1.0000
  C   C426      1.0  0.57081  0.19420  0.31819  1.0000
  H   H498      1.0  0.37326  0.31353  0.50572  1.0000
  S   S113      1.0  0.59994  0.23347  0.45895  1.0000
  H   H499      1.0  0.66633  0.13322  0.08319  1.0000
  C   C427      1.0  0.64413  0.16350  0.29777  1.0000
  C   C428      1.0  0.45662  0.27873  0.09299  1.0000
  H   H500      1.0  0.74536  0.22999  0.26250  1.0000
  H   H501      1.0  0.47080  0.05801  0.30192  1.0000
  C   C429      1.0  0.74384  0.37085  0.20200  1.0000
  H   H502      1.0  0.71012  0.22127  0.20829  1.0000
  C   C430      1.0  0.43600  0.10527  0.09355  1.0000
  H   H503      1.0  0.68019  0.36854  0.04843  1.0000
  H   H504      1.0  0.76665  0.26342  0.21751  1.0000
  S   S114      1.0  0.57071  0.14118  0.42449  1.0000
  C   C431      1.0  0.40505  0.29870  0.40547  1.0000
  C   C432      1.0  0.61058  0.15306  0.13448  1.0000
  S   S115      1.0  0.43060  0.31807  0.15761  1.0000
  H   H505      1.0  0.57097  0.22666  0.16120  1.0000
  H   H506      1.0  0.79846  0.31990  0.18994  1.0000
  S   S116      1.0  0.46114  0.24454  0.23336  1.0000
  H   H507      1.0  0.70096  0.10670  0.43589  1.0000
  H   H508      1.0  0.75552  0.22097  0.41508  1.0000
  H   H509      1.0  0.40298  0.38020  0.04842  1.0000
  H   H510      1.0  0.37155  0.34824  0.47121  1.0000
  C   C433      1.0  0.43880  0.31433  0.04105  1.0000
  N   N30       1.0  0.73376  0.16238  0.43035  1.0000
  C   C434      1.0  0.72132  0.30443  0.45892  1.0000
  H   H511      1.0  0.69753  0.19817  0.47449  1.0000
  H   H512      1.0  0.35367  0.21783  0.11247  1.0000
  H   H513      1.0  0.37642  0.23033  0.48911  1.0000
  H   H514      1.0  0.72831  0.19275  0.38237  1.0000
  C   C435      1.0  0.58181  0.24578  0.07669  1.0000
  H   H515      1.0  0.31745  0.11032  0.49802  1.0000
  H   H516      1.0  0.32806  0.13140  0.25586  1.0000
  S   S117      1.0  0.44421  0.14554  0.41731  1.0000
  C   C436      1.0  0.41715  0.35328  0.09665  1.0000
  N   N31       1.0  0.31426  0.25992  0.08029  1.0000
  C   C437      1.0  0.77562  0.13385  0.41993  1.0000
  H   H517      1.0  0.64881  0.17803  0.05808  1.0000
  C   C438      1.0  0.76483  0.33995  0.05452  1.0000
  S   S118      1.0  0.67824  0.25672  0.02803  1.0000
  C   C439      1.0  0.71518  0.24953  0.27475  1.0000
  Fe  Fe54      1.0  0.73829  0.22312  0.05063  1.0000
  C   C440      1.0  0.64323  0.05644  0.29768  1.0000
  N   N32       1.0  0.60561  0.17342  0.10146  1.0000
  C   C441      1.0  0.33938  0.28515  0.36049  1.0000
  H   H518      1.0  0.36692  0.29047  0.24927  1.0000
  C   C442      1.0  0.58604  0.22071  0.10559  1.0000
  C   C443      1.0  0.76663  0.30026  0.45496  1.0000
  H   H519      1.0  0.31878  0.32993  0.08664  1.0000
  H   H520      1.0  0.59246  0.23095  0.05128  1.0000
  C   C444      1.0  0.31773  0.22590  0.05063  1.0000
  H   H521      1.0  0.34631  0.14567  0.21537  1.0000
  H   H522      1.0  0.48171  0.17480  0.35637  1.0000
  H   H523      1.0  0.52130  0.19255  0.28073  1.0000
  C   C445      1.0  0.72861  0.20164  0.41049  1.0000
  C   C446      1.0  0.35829  0.17584  0.34436  1.0000
  H   H524      1.0  0.32373  0.17700  0.34131  1.0000
  C   C447      1.0  0.44733  0.17495  0.35306  1.0000
  S   S119      1.0  0.44442  0.14071  0.21949  1.0000
  C   C448      1.0  0.76666  0.32833  0.20266  1.0000
  Fe  Fe55      1.0  0.42265  0.15860  0.16778  1.0000
  H   H525      1.0  0.47471  0.24879  0.04179  1.0000
  C   C449      1.0  0.71392  0.32807  0.40148  1.0000
  C   C450      1.0  0.78246  0.15168  0.19247  1.0000
  H   H526      1.0  0.57853  0.15209  0.14715  1.0000
  H   H527      1.0  0.70491  0.08597  0.19904  1.0000
  C   C451      1.0  0.45831  0.27774  0.05706  1.0000
  C   C452      1.0  0.70583  0.30618  0.23461  1.0000
  H   H528      1.0  0.44796  0.19928  0.30298  1.0000
  H   H529      1.0  0.53414  0.34596  0.11423  1.0000
  H   H530      1.0  0.76347  0.31619  0.07424  1.0000
  Fe  Fe56      1.0  0.43850  0.25269  0.17989  1.0000
  H   H531      1.0  0.38246  0.30005  0.32097  1.0000
  C   C453      1.0  0.38373  0.18947  0.31864  1.0000
  C   C454      1.0  0.37734  0.16167  0.37435  1.0000
  H   H532      1.0  0.44122  0.31101  0.36055  1.0000
  H   H533      1.0  0.50998  0.09478  0.29882  1.0000
  C   C455      1.0  0.74372  0.10601  0.24040  1.0000
  C   C456      1.0  0.74809  0.29633  0.21858  1.0000
  H   H534      1.0  0.75402  0.20060  0.47410  1.0000
  C   C457      1.0  0.73007  0.17826  0.46736  1.0000
  H   H535      1.0  0.78717  0.28937  0.47546  1.0000
  H   H536      1.0  0.43632  0.37845  0.44230  1.0000
  C   C458      1.0  0.69460  0.38159  0.07212  1.0000
  C   C459      1.0  0.70249  0.38168  0.21758  1.0000
  N   N33       1.0  0.74139  0.38434  0.06686  1.0000
  C   C460      1.0  0.59309  0.38147  0.39263  1.0000
  C   C461      1.0  0.66376  0.06275  0.32845  1.0000
  C   C462      1.0  0.45693  0.06406  0.07923  1.0000
  H   H537      1.0  0.46992  0.05718  0.35918  1.0000
  S   S120      1.0  0.80621  0.23355  0.03852  1.0000
  H   H538      1.0  0.31007  0.28704  0.49625  1.0000
  H   H539      1.0  0.32270  0.38846  0.36239  1.0000
  H   H540      1.0  0.47094  0.05673  0.17215  1.0000
  H   H541      1.0  0.66093  0.05695  0.27354  1.0000
  H   H542      1.0  0.69176  0.20646  0.90855  1.0000
  H   H543      1.0  0.72257  0.37698  0.99877  1.0000
  H   H544      1.0  0.55226  0.35366  0.88221  1.0000
  C   C463      1.0  0.56936  0.29462  0.79196  1.0000
  H   H545      1.0  0.44604  0.19752  0.84451  1.0000
  C   C464      1.0  0.48818  0.30470  0.54421  1.0000
  C   C465      1.0  0.57598  0.36475  0.61641  1.0000
  H   H546      1.0  0.73192  0.15749  0.94614  1.0000
  H   H547      1.0  0.70950  0.09126  0.64888  1.0000
  H   H548      1.0  0.55785  0.16297  0.72111  1.0000
  C   C466      1.0  0.75861  0.10586  0.90551  1.0000
  H   H549      1.0  0.37268  0.11502  0.99010  1.0000
  C   C467      1.0  0.32876  0.29444  0.96265  1.0000
  S   S121      1.0  0.41954  0.36138  0.62969  1.0000
  C   C468      1.0  0.65945  0.22232  0.73046  1.0000
  H   H550      1.0  0.34081  0.10995  0.81366  1.0000
  C   C469      1.0  0.73381  0.14671  0.91913  1.0000
  Fe  Fe57      1.0  0.74319  0.28431  0.53877  1.0000
  H   H551      1.0  0.53895  0.06717  0.72863  1.0000
  Fe  Fe58      1.0  0.79108  0.23392  0.80107  1.0000
  H   H552      1.0  0.77794  0.06616  0.85711  1.0000
  H   H553      1.0  0.63395  0.30623  0.55453  1.0000
  H   H554      1.0  0.59822  0.36257  0.90649  1.0000
  S   S122      1.0  0.51115  0.14041  0.91264  1.0000
  C   C470      1.0  0.56256  0.37310  0.90503  1.0000
  C   C471      1.0  0.70775  0.05704  0.64153  1.0000
  C   C472      1.0  0.37787  0.19579  0.85366  1.0000
  C   C473      1.0  0.41811  0.14603  0.60008  1.0000
  H   H555      1.0  0.60710  0.07027  0.56355  1.0000
  S   S123      1.0  0.46814  0.24527  0.91218  1.0000
  H   H556      1.0  0.67837  0.23371  0.70941  1.0000
  S   S124      1.0  0.52854  0.09573  0.00084  1.0000
  C   C474      1.0  0.78316  0.34297  0.69223  1.0000
  C   C475      1.0  0.41334  0.20803  0.83647  1.0000
  C   C476      1.0  0.54789  0.31770  0.94082  1.0000
  C   C477      1.0  0.61987  0.18645  0.68791  1.0000
  S   S125      1.0  0.38632  0.16347  0.88831  1.0000
  C   C478      1.0  0.60300  0.32477  0.54605  1.0000
  H   H557      1.0  0.60212  0.31727  0.51771  1.0000
  H   H558      1.0  0.52997  0.38362  0.55859  1.0000
  C   C479      1.0  0.65116  0.12375  0.97648  1.0000
  H   H559      1.0  0.65236  0.36605  0.94510  1.0000
  H   H560      1.0  0.62043  0.07107  0.73646  1.0000
  H   H561      1.0  0.62757  0.14310  0.83224  1.0000
  H   H562      1.0  0.33581  0.38434  0.65747  1.0000
  C   C480      1.0  0.40669  0.23283  0.80813  1.0000
  Fe  Fe59      1.0  0.50678  0.15238  0.96990  1.0000
  H   H563      1.0  0.78431  0.07680  0.54809  1.0000
  H   H564      1.0  0.32294  0.27835  0.98617  1.0000
  S   S126      1.0  0.53629  0.21416  0.97234  1.0000
  H   H565      1.0  0.42574  0.16375  0.62458  1.0000
  C   C481      1.0  0.62692  0.07850  0.92939  1.0000
  C   C482      1.0  0.77398  0.21270  0.71080  1.0000
  H   H566      1.0  0.36935  0.07913  0.93378  1.0000
  N   N34       1.0  0.53895  0.36575  0.93697  1.0000
  H   H567      1.0  0.75002  0.23481  0.97814  1.0000
  H   H568      1.0  0.76763  0.27034  0.92616  1.0000
  C   C483      1.0  0.69050  0.27998  0.99057  1.0000
  Fe  Fe60      1.0  0.50730  0.29758  0.72479  1.0000
  S   S127      1.0  0.41783  0.25238  0.67165  1.0000
  C   C484      1.0  0.60386  0.38140  0.59319  1.0000
  H   H569      1.0  0.43095  0.09998  0.98730  1.0000
  S   S128      1.0  0.72075  0.34524  0.89481  1.0000
  C   C485      1.0  0.36585  0.20899  0.58703  1.0000
  H   H570      1.0  0.60913  0.15536  0.67730  1.0000
  S   S129      1.0  0.40397  0.06059  0.69945  1.0000
  S   S130      1.0  0.51606  0.28083  0.66794  1.0000
  H   H571      1.0  0.76313  0.24441  0.72493  1.0000
  H   H572      1.0  0.63124  0.14759  0.92839  1.0000
  Fe  Fe61      1.0  0.44446  0.18072  0.91559  1.0000
  C   C486      1.0  0.63631  0.11917  0.94329  1.0000
  C   C487      1.0  0.56606  0.17949  0.56645  1.0000
  Fe  Fe62      1.0  0.41724  0.27257  0.72798  1.0000
  C   C488      1.0  0.30848  0.30789  0.90541  1.0000
  H   H573      1.0  0.51649  0.24051  0.84793  1.0000
  Fe  Fe63      1.0  0.46768  0.24842  0.96935  1.0000
  C   C489      1.0  0.44708  0.37428  0.53083  1.0000
  S   S131      1.0  0.80322  0.23375  0.53701  1.0000
  H   H574      1.0  0.64218  0.37522  0.80787  1.0000
  C   C490      1.0  0.75900  0.09606  0.86939  1.0000
  C   C491      1.0  0.61766  0.26613  0.83548  1.0000
  C   C492      1.0  0.32877  0.28422  0.60512  1.0000
  C   C493      1.0  0.77813  0.20947  0.67486  1.0000
  S   S132      1.0  0.61591  0.13091  0.51341  1.0000
  H   H575      1.0  0.44797  0.12224  0.59137  1.0000
  H   H576      1.0  0.51732  0.14289  0.76906  1.0000
  C   C494      1.0  0.44108  0.35041  0.58780  1.0000
  H   H577      1.0  0.34465  0.17106  0.66414  1.0000
  N   N35       1.0  0.78440  0.07492  0.92708  1.0000
  H   H578      1.0  0.68123  0.21963  0.75251  1.0000
  C   C495      1.0  0.53529  0.27783  0.80755  1.0000
  H   H579      1.0  0.35308  0.12907  0.73539  1.0000
  C   C496      1.0  0.55096  0.14703  0.77212  1.0000
  Fe  Fe64      1.0  0.48676  0.22103  0.67796  1.0000
  S   S133      1.0  0.35606  0.27145  0.75902  1.0000
  C   C497      1.0  0.58386  0.24849  0.85063  1.0000
  H   H580      1.0  0.50325  0.28279  0.79716  1.0000
  H   H581      1.0  0.37646  0.17320  0.52405  1.0000
  H   H582      1.0  0.55162  0.34563  0.60727  1.0000
  H   H583      1.0  0.51163  0.27553  0.53670  1.0000
  H   H584      1.0  0.70373  0.13983  0.73321  1.0000
  C   C498      1.0  0.36620  0.25516  0.59311  1.0000
  S   S134      1.0  0.72254  0.27660  0.59294  1.0000
  S   S135      1.0  0.79582  0.16360  0.61174  1.0000
  H   H585      1.0  0.52746  0.30807  0.96160  1.0000
  H   H586      1.0  0.67253  0.11368  0.70279  1.0000
  H   H587      1.0  0.37296  0.12652  0.54770  1.0000
  C   C499      1.0  0.61821  0.16688  0.74822  1.0000
  H   H588      1.0  0.36081  0.27741  0.95137  1.0000
  H   H589      1.0  0.73718  0.11726  0.82070  1.0000
  C   C500      1.0  0.57462  0.15931  0.74471  1.0000
  C   C501      1.0  0.72848  0.26328  0.97086  1.0000
  H   H590      1.0  0.69391  0.18731  0.84609  1.0000
  C   C502      1.0  0.73825  0.28310  0.94126  1.0000
  C   C503      1.0  0.36463  0.24552  0.79699  1.0000
  H   H591      1.0  0.66987  0.16517  0.78507  1.0000
  H   H592      1.0  0.63715  0.30112  0.79394  1.0000
  H   H593      1.0  0.33253  0.32905  0.97070  1.0000
  H   H594      1.0  0.77084  0.23870  0.66129  1.0000
  H   H595      1.0  0.43507  0.22181  0.54538  1.0000
  S   S136      1.0  0.43789  0.18759  0.97278  1.0000
  H   H596      1.0  0.32115  0.12174  0.85686  1.0000
  C   C504      1.0  0.57010  0.14087  0.80347  1.0000
  S   S137      1.0  0.43878  0.31343  0.99636  1.0000
  H   H597      1.0  0.59081  0.21260  0.69242  1.0000
  C   C505      1.0  0.47078  0.31217  0.57796  1.0000
  C   C506      1.0  0.46351  0.08238  0.78832  1.0000
  S   S138      1.0  0.79278  0.23124  0.85776  1.0000
  H   H598      1.0  0.63369  0.33016  0.99663  1.0000
  H   H599      1.0  0.79182  0.12181  0.96972  1.0000
  H   H600      1.0  0.42346  0.13266  0.52859  1.0000
  H   H601      1.0  0.56598  0.20761  0.55165  1.0000
  S   S139      1.0  0.76427  0.30589  0.80337  1.0000
  C   C507      1.0  0.79523  0.13355  0.70982  1.0000
  H   H602      1.0  0.33108  0.18131  0.75638  1.0000
  C   C508      1.0  0.32043  0.15073  0.67252  1.0000
  C   C509      1.0  0.54258  0.25459  0.83676  1.0000
  S   S140      1.0  0.51481  0.15230  0.65702  1.0000
  H   H603      1.0  0.45385  0.21611  0.58854  1.0000
  H   H604      1.0  0.39288  0.12558  0.60583  1.0000
  C   C510      1.0  0.78033  0.08965  0.96428  1.0000
  H   H605      1.0  0.36741  0.17887  0.72045  1.0000
  Fe  Fe65      1.0  0.53468  0.20580  0.91492  1.0000
  H   H606      1.0  0.67685  0.07118  0.59437  1.0000
  H   H607      1.0  0.47158  0.37241  0.95443  1.0000
  Fe  Fe66      1.0  0.44673  0.31361  0.66645  1.0000
  H   H608      1.0  0.56671  0.07839  0.61935  1.0000
  C   C511      1.0  0.57912  0.37234  0.65194  1.0000
  C   C512      1.0  0.31607  0.10256  0.83235  1.0000
  C   C513      1.0  0.40022  0.08898  0.99533  1.0000
  H   H609      1.0  0.52709  0.21641  0.60858  1.0000
  C   C514      1.0  0.47678  0.33618  0.52085  1.0000
  H   H610      1.0  0.32999  0.31928  0.60944  1.0000
  C   C515      1.0  0.71016  0.31974  0.93167  1.0000
  H   H611      1.0  0.32336  0.15943  0.58982  1.0000
  S   S141      1.0  0.48345  0.23482  0.73494  1.0000
  H   H612      1.0  0.74628  0.09254  0.97442  1.0000
  C   C516      1.0  0.61045  0.28904  0.80618  1.0000
  H   H613      1.0  0.33299  0.32436  0.69919  1.0000
  C   C517      1.0  0.67291  0.33687  0.95190  1.0000
  S   S142      1.0  0.77750  0.34098  0.55271  1.0000
  H   H614      1.0  0.63149  0.24879  0.73795  1.0000
  C   C518      1.0  0.44257  0.19842  0.56539  1.0000
  N   N36       1.0  0.40454  0.17714  0.57391  1.0000
  H   H615      1.0  0.64959  0.26176  0.84622  1.0000
  H   H616      1.0  0.80097  0.10398  0.72324  1.0000
  C   C519      1.0  0.58947  0.10211  0.57319  1.0000
  C   C520      1.0  0.32595  0.19406  0.59384  1.0000
  H   H617      1.0  0.65787  0.15554  0.98719  1.0000
  H   H618      1.0  0.31374  0.34285  0.90887  1.0000
  H   H619      1.0  0.70336  0.15463  0.69020  1.0000
  H   H620      1.0  0.61447  0.07769  0.90389  1.0000
  H   H621      1.0  0.46684  0.11031  0.80623  1.0000
  H   H622      1.0  0.57585  0.31058  0.55714  1.0000
  H   H623      1.0  0.33983  0.28788  0.89532  1.0000
  C   C521      1.0  0.34027  0.16362  0.73087  1.0000
  H   H624      1.0  0.39499  0.26980  0.58902  1.0000
  C   C522      1.0  0.68250  0.14574  0.71116  1.0000
  H   H625      1.0  0.48070  0.35980  0.90930  1.0000
  H   H626      1.0  0.66746  0.37315  0.54165  1.0000
  H   H627      1.0  0.33741  0.11603  0.67076  1.0000
  H   H628      1.0  0.54097  0.29797  0.91707  1.0000
  H   H629      1.0  0.48051  0.28861  0.59636  1.0000
  C   C523      1.0  0.63680  0.16016  0.78051  1.0000
  C   C524      1.0  0.33561  0.20962  0.84318  1.0000
  Fe  Fe67      1.0  0.77272  0.30461  0.86002  1.0000
  S   S143      1.0  0.44069  0.33672  0.72231  1.0000
  H   H630      1.0  0.47100  0.17357  0.55531  1.0000
  C   C525      1.0  0.44032  0.08878  0.75842  1.0000
  C   C526      1.0  0.71055  0.17539  0.89777  1.0000
  H   H631      1.0  0.64031  0.19667  0.66721  1.0000
  C   C527      1.0  0.79986  0.13042  0.67403  1.0000
  H   H632      1.0  0.80064  0.06601  0.97979  1.0000
  C   C528      1.0  0.71150  0.16459  0.86249  1.0000
  Fe  Fe68      1.0  0.76305  0.32914  0.60690  1.0000
  H   H633      1.0  0.55837  0.35860  0.66934  1.0000
  S   S144      1.0  0.76955  0.17645  0.77207  1.0000
  S   S145      1.0  0.59432  0.21824  0.88638  1.0000
  C   C529      1.0  0.58884  0.13820  0.55376  1.0000
  C   C530      1.0  0.61305  0.14716  0.80758  1.0000
  C   C531      1.0  0.56667  0.10680  0.60486  1.0000
  C   C532      1.0  0.32897  0.23489  0.81511  1.0000
  N   N37       1.0  0.60005  0.37285  0.55566  1.0000
  H   H634      1.0  0.31734  0.22503  0.92023  1.0000
  C   C533      1.0  0.79072  0.16822  0.65651  1.0000
  S   S146      1.0  0.56153  0.32128  0.75409  1.0000
  C   C534      1.0  0.65666  0.08759  0.99597  1.0000
  H   H635      1.0  0.77192  0.31489  0.67904  1.0000
  H   H636      1.0  0.58264  0.30674  0.94633  1.0000
  C   C535      1.0  0.66267  0.31673  0.98107  1.0000
  C   C536      1.0  0.78168  0.17448  0.72814  1.0000
  H   H637      1.0  0.30790  0.20129  0.85686  1.0000
  Fe  Fe69      1.0  0.78616  0.23054  0.59247  1.0000
  C   C537      1.0  0.73575  0.12507  0.84830  1.0000
  C   C538      1.0  0.42873  0.38104  0.56410  1.0000
  H   H638      1.0  0.42673  0.12189  0.75303  1.0000
  H   H639      1.0  0.43417  0.24211  0.79504  1.0000
  C   C539      1.0  0.39378  0.15154  0.54229  1.0000
  C   C540      1.0  0.54387  0.14791  0.61763  1.0000
  C   C541      1.0  0.54416  0.18449  0.59870  1.0000
  N   N38       1.0  0.64416  0.18016  0.71982  1.0000
  H   H640      1.0  0.55145  0.13174  0.82476  1.0000
  C   C542      1.0  0.77284  0.38468  0.68026  1.0000
  C   C543      1.0  0.49172  0.37860  0.93209  1.0000
  H   H641      1.0  0.55691  0.05938  0.68515  1.0000
  H   H642      1.0  0.51154  0.36152  0.00382  1.0000
  H   H643      1.0  0.42650  0.06138  0.93028  1.0000
  H   H644      1.0  0.75555  0.05783  0.51202  1.0000
  C   C544      1.0  0.53465  0.38388  0.00105  1.0000
  C   C545      1.0  0.63427  0.38862  0.53504  1.0000
  H   H645      1.0  0.65139  0.38753  0.85224  1.0000
  H   H646      1.0  0.37575  0.05671  0.86783  1.0000
  S   S147      1.0  0.30042  0.65371  0.24856  1.0000
  H   H647      1.0  0.22528  0.46366  0.39606  1.0000
  H   H648      1.0  0.92795  0.56276  0.20197  1.0000
  C   C546      1.0  0.95397  0.57005  0.21806  1.0000
  S   S148      1.0  0.15669  0.50778  0.11657  1.0000
  C   C547      1.0  0.24224  0.61484  0.45280  1.0000
  C   C548      1.0  0.07621  0.60053  0.10413  1.0000
  C   C549      1.0  0.09740  0.68335  0.49663  1.0000
  C   C550      1.0  0.22693  0.60117  0.48350  1.0000
  S   S149      1.0  0.26291  0.47204  0.11376  1.0000
  N   N39       1.0  0.86559  0.40105  0.27046  1.0000
  C   C551      1.0  0.12167  0.68079  0.27543  1.0000
  C   C552      1.0  0.30638  0.48853  0.40864  1.0000
  S   S150      1.0  0.88032  0.53784  0.31724  1.0000
  H   H649      1.0  0.05576  0.44246  0.13871  1.0000
  H   H650      1.0  0.85499  0.56187  0.01262  1.0000
  H   H651      1.0  0.03426  0.64610  0.46924  1.0000
  C   C553      1.0  0.93130  0.43558  0.28981  1.0000
  S   S151      1.0  0.21558  0.64847  0.31984  1.0000
  C   C554      1.0  0.84640  0.68097  0.46322  1.0000
  H   H652      1.0  0.90531  0.68800  0.26382  1.0000
  C   C555      1.0  0.94925  0.45393  0.22278  1.0000
  H   H653      1.0  0.80919  0.39113  0.46601  1.0000
  Fe  Fe70      1.0  0.25305  0.62878  0.36557  1.0000
  C   C556      1.0  0.97562  0.46581  0.24905  1.0000
  S   S152      1.0  0.13522  0.55954  0.30345  1.0000
  C   C557      1.0  0.10132  0.60002  0.04513  1.0000
  C   C558      1.0  0.05965  0.41657  0.40498  1.0000
  C   C559      1.0  0.97831  0.59632  0.27325  1.0000
  H   H654      1.0  0.03130  0.42954  0.09924  1.0000
  S   S153      1.0  0.80909  0.67985  0.43066  1.0000
  C   C560      1.0  0.03330  0.45191  0.39217  1.0000
  H   H655      1.0  0.91125  0.59392  0.26204  1.0000
  H   H656      1.0  0.25045  0.54969  0.16283  1.0000
  C   C561      1.0  0.26013  0.65593  0.15182  1.0000
  S   S154      1.0  0.93765  0.46075  0.12147  1.0000
  C   C562      1.0  0.92230  0.42217  0.48297  1.0000
  Fe  Fe71      1.0  0.90486  0.60022  0.33491  1.0000
  H   H657      1.0  0.10466  0.67652  0.35499  1.0000
  H   H658      1.0  0.04756  0.59339  0.27698  1.0000
  H   H659      1.0  0.11011  0.64937  0.27409  1.0000
  C   C563      1.0  0.07438  0.67433  0.34080  1.0000
  C   C564      1.0  0.13100  0.68182  0.15931  1.0000
  C   C565      1.0  0.09724  0.47522  0.36769  1.0000
  H   H660      1.0  0.25606  0.59059  0.43244  1.0000
  N   N40       1.0  0.17296  0.43392  0.37434  1.0000
  C   C566      1.0  0.03661  0.64479  0.49747  1.0000
  C   C567      1.0  0.20808  0.67754  0.50632  1.0000
  Fe  Fe72      1.0  0.93621  0.47587  0.06660  1.0000
  H   H661      1.0  0.17081  0.42318  0.31930  1.0000
  C   C568      1.0  0.89666  0.64188  0.50070  1.0000
  H   H662      1.0  0.27186  0.56655  0.03990  1.0000
  S   S155      1.0  0.86474  0.50222  0.06846  1.0000
  H   H663      1.0  0.18267  0.45844  0.42629  1.0000
  H   H664      1.0  0.29322  0.71671  0.30648  1.0000
  C   C569      1.0  0.12505  0.43887  0.37958  1.0000
  C   C570      1.0  0.14476  0.52280  0.26629  1.0000
  C   C571      1.0  0.03073  0.57005  0.22655  1.0000
  S   S156      1.0  0.25702  0.54978  0.28372  1.0000
  H   H665      1.0  0.12728  0.61615  0.19809  1.0000
  H   H666      1.0  0.26712  0.43297  0.26453  1.0000
  H   H667      1.0  0.89822  0.53265  0.50489  1.0000
  H   H668      1.0  0.10998  0.49999  0.35424  1.0000
  C   C572      1.0  0.81508  0.54340  0.23980  1.0000
  C   C573      1.0  0.13167  0.48134  0.26584  1.0000
  H   H669      1.0  0.15051  0.67010  0.09540  1.0000
  H   H670      1.0  0.98651  0.46734  0.30295  1.0000
  H   H671      1.0  0.13053  0.69308  0.18705  1.0000
  H   H672      1.0  0.82571  0.43117  0.23166  1.0000
  S   S157      1.0  0.23002  0.59958  0.10448  1.0000
  H   H673      1.0  0.86318  0.61024  0.46071  1.0000
  C   C574      1.0  0.82240  0.62710  0.03032  1.0000
  C   C575      1.0  0.91378  0.43281  0.22979  1.0000
  C   C576      1.0  0.02133  0.58760  0.26046  1.0000
  S   S158      1.0  0.96713  0.61837  0.31565  1.0000
  H   H674      1.0  0.99702  0.70178  0.31457  1.0000
  C   C577      1.0  0.86864  0.64137  0.47330  1.0000
  C   C578      1.0  0.29774  0.47501  0.44123  1.0000
  N   N41       1.0  0.98392  0.71573  0.06075  1.0000
  H   H675      1.0  0.91659  0.70166  0.32439  1.0000
  H   H676      1.0  0.00269  0.48278  0.24355  1.0000
  Fe  Fe73      1.0  0.81421  0.57875  0.32531  1.0000
  H   H677      1.0  0.30640  0.52306  0.40559  1.0000
  H   H678      1.0  0.83782  0.56048  0.25383  1.0000
  C   C579      1.0  0.25088  0.61333  0.14424  1.0000
  Fe  Fe74      1.0  0.86835  0.49390  0.12458  1.0000
  C   C580      1.0  0.18951  0.46537  0.39943  1.0000
  C   C581      1.0  0.85295  0.72121  0.47999  1.0000
  H   H679      1.0  0.04359  0.68880  0.15363  1.0000
  C   C582      1.0  0.29179  0.58939  0.02917  1.0000
  H   H680      1.0  0.27191  0.47748  0.22513  1.0000
  H   H681      1.0  0.17484  0.65518  0.23917  1.0000
  C   C583      1.0  0.23983  0.65987  0.44881  1.0000
  C   C584      1.0  0.07554  0.58488  0.06964  1.0000
  H   H682      1.0  0.25433  0.67981  0.13311  1.0000
  H   H683      1.0  0.27605  0.43599  0.18947  1.0000
  S   S159      1.0  0.97222  0.42421  0.02849  1.0000
  S   S160      1.0  0.95720  0.54186  0.07582  1.0000
  C   C585      1.0  0.88147  0.72173  0.50711  1.0000
  C   C586      1.0  0.16988  0.45932  0.21077  1.0000
  C   C587      1.0  0.22623  0.71919  0.05013  1.0000
  C   C588      1.0  0.96663  0.45676  0.28247  1.0000
  H   H684      1.0  0.05780  0.61323  0.50168  1.0000
  H   H685      1.0  0.85359  0.42533  0.32382  1.0000
  C   C589      1.0  0.02617  0.70528  0.29876  1.0000
  H   H686      1.0  0.89412  0.42453  0.20851  1.0000
  H   H687      1.0  0.93222  0.39138  0.49426  1.0000
  H   H688      1.0  0.03164  0.50921  0.36407  1.0000
  H   H689      1.0  0.11261  0.47339  0.28721  1.0000
  H   H690      1.0  0.28249  0.70124  0.18969  1.0000
  S   S161      1.0  0.25514  0.67840  0.41002  1.0000
  H   H691      1.0  0.08888  0.43118  0.10023  1.0000
  S   S162      1.0  0.89641  0.46085  0.38858  1.0000
  H   H692      1.0  0.91358  0.61118  0.50861  1.0000
  C   C590      1.0  0.10483  0.41011  0.39909  1.0000
  H   H693      1.0  0.95070  0.62494  0.14532  1.0000
  H   H694      1.0  0.10424  0.39011  0.16496  1.0000
  H   H695      1.0  0.97032  0.63596  0.08695  1.0000
  H   H696      1.0  0.17877  0.56527  0.23837  1.0000
  C   C591      1.0  0.30621  0.39944  0.41647  1.0000
  C   C592      1.0  0.15839  0.68383  0.25499  1.0000
  C   C593      1.0  0.90354  0.42315  0.26362  1.0000
  C   C594      1.0  0.82805  0.51989  0.20808  1.0000
  Fe  Fe75      1.0  0.20157  0.44746  0.12868  1.0000
  H   H697      1.0  0.01428  0.64986  0.04246  1.0000
  H   H698      1.0  0.95687  0.66255  0.03443  1.0000
  H   H699      1.0  0.30085  0.48471  0.18738  1.0000
  H   H700      1.0  0.86109  0.51792  0.19829  1.0000
  C   C595      1.0  0.85914  0.39370  0.30715  1.0000
  H   H701      1.0  0.17609  0.47899  0.33470  1.0000
  Fe  Fe76      1.0  0.28957  0.53908  0.33310  1.0000
  H   H702      1.0  0.05701  0.58637  0.12220  1.0000
  S   S163      1.0  0.09386  0.47088  0.03799  1.0000
  H   H703      1.0  0.05534  0.44423  0.47829  1.0000
  H   H704      1.0  0.19958  0.50964  0.18881  1.0000
  C   C596      1.0  0.13893  0.40944  0.49515  1.0000
  H   H705      1.0  0.04040  0.63499  0.16762  1.0000
  H   H706      1.0  0.24111  0.69039  0.06205  1.0000
  Fe  Fe77      1.0  0.88584  0.56745  0.08285  1.0000
  S   S164      1.0  0.21250  0.50137  0.04393  1.0000
  H   H707      1.0  0.12967  0.43616  0.47934  1.0000
  H   H708      1.0  0.16584  0.67123  0.15117  1.0000
  Fe  Fe78      1.0  0.15653  0.47271  0.06421  1.0000
  C   C597      1.0  0.18547  0.44369  0.33921  1.0000
  H   H709      1.0  0.11811  0.71121  0.14584  1.0000
  H   H710      1.0  0.11999  0.65254  0.50035  1.0000
  C   C598      1.0  0.27597  0.66799  0.18379  1.0000
  C   C599      1.0  0.06101  0.42104  0.11410  1.0000
  S   S165      1.0  0.81479  0.46723  0.15071  1.0000
  H   H711      1.0  0.88542  0.53193  0.44266  1.0000
  H   H712      1.0  0.93939  0.68728  0.19038  1.0000
  H   H713      1.0  0.92566  0.43055  0.31639  1.0000
  S   S166      1.0  0.18897  0.41811  0.17778  1.0000
  S   S167      1.0  0.88376  0.56137  0.13935  1.0000
  H   H714      1.0  0.95604  0.46186  0.19694  1.0000
  S   S168      1.0  0.83912  0.64242  0.33719  1.0000
  H   H715      1.0  0.04779  0.67178  0.35966  1.0000
  C   C600      1.0  0.94812  0.69278  0.16431  1.0000
  Fe  Fe79      1.0  0.83626  0.62510  0.39139  1.0000
  C   C601      1.0  0.91614  0.46210  0.50367  1.0000
  C   C602      1.0  0.99707  0.56152  0.20526  1.0000
  H   H716      1.0  0.13625  0.41676  0.23882  1.0000
  H   H717      1.0  0.22805  0.56639  0.48638  1.0000
  C   C603      1.0  0.12734  0.63141  0.05502  1.0000
  Fe  Fe80      1.0  0.21741  0.52993  0.09768  1.0000
  S   S169      1.0  0.01001  0.53950  0.16304  1.0000
  S   S170      1.0  0.22972  0.56357  0.36607  1.0000
  H   H718      1.0  0.09500  0.68621  0.46856  1.0000
  H   H719      1.0  0.07940  0.64232  0.32474  1.0000
  C   C604      1.0  0.28208  0.63749  0.20838  1.0000
  C   C605      1.0  0.89592  0.50136  0.45380  1.0000
  C   C606      1.0  0.94457  0.58733  0.25216  1.0000
  H   H720      1.0  0.89400  0.70405  0.38203  1.0000
  Fe  Fe81      1.0  0.19898  0.58017  0.31683  1.0000
  C   C607      1.0  0.16878  0.53318  0.23825  1.0000
  H   H721      1.0  0.27919  0.57060  0.21914  1.0000
  C   C608      1.0  0.05209  0.48120  0.37358  1.0000
  S   S171      1.0  0.28997  0.41070  0.48521  1.0000
  C   C609      1.0  0.91586  0.42185  0.44766  1.0000
  C   C610      1.0  0.18065  0.50170  0.21023  1.0000
  N   N42       1.0  0.10503  0.64575  0.15233  1.0000
  Fe  Fe82      1.0  0.27626  0.61691  0.29007  1.0000
  S   S172      1.0  0.85347  0.63227  0.06674  1.0000
  C   C611      1.0  0.25745  0.58263  0.16866  1.0000
  C   C612      1.0  0.12821  0.64725  0.08950  1.0000
  H   H722      1.0  0.03384  0.67496  0.28089  1.0000
  C   C613      1.0  0.90283  0.46147  0.43300  1.0000
  H   H723      1.0  0.06153  0.67476  0.19496  1.0000
  H   H724      1.0  0.10632  0.57958  0.16728  1.0000
  Fe  Fe83      1.0  0.87472  0.52905  0.37312  1.0000
  H   H725      1.0  0.05592  0.55976  0.06210  1.0000
  Fe  Fe84      1.0  0.95326  0.52903  0.13113  1.0000
  Fe  Fe85      1.0  0.25273  0.44109  0.06128  1.0000
  C   C614      1.0  0.06071  0.66161  0.16763  1.0000
  H   H726      1.0  0.99828  0.45691  0.39700  1.0000
  H   H727      1.0  0.14817  0.64263  0.03614  1.0000
  C   C615      1.0  0.82526  0.42791  0.25970  1.0000
  H   H728      1.0  0.82056  0.46180  0.27297  1.0000
  C   C616      1.0  0.14503  0.44931  0.23847  1.0000
  H   H729      1.0  0.06421  0.56238  0.21707  1.0000
  C   C617      1.0  0.12516  0.60746  0.17011  1.0000
  C   C618      1.0  0.96618  0.66457  0.10527  1.0000
  C   C619      1.0  0.90290  0.50174  0.48910  1.0000
  S   S173      1.0  0.19623  0.40995  0.07775  1.0000
  C   C620      1.0  0.04143  0.43072  0.50067  1.0000
  C   C621      1.0  0.95455  0.65773  0.13890  1.0000
  C   C622      1.0  0.27317  0.59469  0.20073  1.0000
  H   H730      1.0  0.04502  0.39403  0.41983  1.0000
  C   C623      1.0  0.98799  0.67615  0.03574  1.0000
  S   S174      1.0  0.90442  0.58846  0.39035  1.0000
  H   H731      1.0  0.15873  0.59481  0.15949  1.0000
  H   H732      1.0  0.22145  0.43725  0.33443  1.0000
  C   C624      1.0  0.10281  0.63198  0.11528  1.0000
  C   C625      1.0  0.10097  0.71724  0.29775  1.0000
  H   H733      1.0  0.17454  0.50008  0.39654  1.0000
  C   C626      1.0  0.22407  0.69102  0.47591  1.0000
  H   H734      1.0  0.10174  0.58670  0.01857  1.0000
  C   C627      1.0  0.97173  0.70715  0.09609  1.0000
  H   H735      1.0  0.92088  0.39085  0.43178  1.0000
  N   N43       1.0  0.06326  0.71269  0.32024  1.0000
  C   C628      1.0  0.28894  0.40208  0.25951  1.0000
  C   C629      1.0  0.29407  0.45918  0.20440  1.0000
  H   H736      1.0  0.99652  0.39048  0.33864  1.0000
  H   H737      1.0  0.05191  0.70891  0.07181  1.0000
  H   H738      1.0  0.26784  0.61808  0.02285  1.0000
  H   H739      1.0  0.00857  0.45041  0.50643  1.0000
  C   C630      1.0  0.88670  0.71684  0.27811  1.0000
  H   H740      1.0  0.29150  0.49908  0.46326  1.0000
  H   H741      1.0  0.99612  0.68402  0.00934  1.0000
  H   H742      1.0  0.00313  0.64382  0.50762  1.0000
  H   H743      1.0  0.06110  0.39388  0.05086  1.0000
  C   C631      1.0  0.29808  0.43021  0.44513  1.0000
  H   H744      1.0  0.03685  0.39636  0.49252  1.0000
  H   H745      1.0  0.20117  0.39058  0.46811  1.0000
  H   H746      1.0  0.11331  0.71121  0.50682  1.0000
  C   C632      1.0  0.95331  0.40827  0.67321  1.0000
  C   C633      1.0  0.98040  0.58321  0.72153  1.0000
  C   C634      1.0  0.30106  0.43969  0.91736  1.0000
  C   C635      1.0  0.83048  0.58916  0.00738  1.0000
  C   C636      1.0  0.91965  0.58376  0.76169  1.0000
  H   H747      1.0  0.00135  0.49191  0.73688  1.0000
  C   C637      1.0  0.14309  0.43020  0.65299  1.0000
  Fe  Fe86      1.0  0.85763  0.58871  0.62647  1.0000
  N   N44       1.0  0.19634  0.66627  0.66409  1.0000
  S   S175      1.0  0.29867  0.44706  0.87353  1.0000
  H   H748      1.0  0.84560  0.65737  0.87419  1.0000
  H   H749      1.0  0.01093  0.51831  0.81205  1.0000
  C   C638      1.0  0.30409  0.53673  0.67936  1.0000
  H   H750      1.0  0.06504  0.40801  0.94612  1.0000
  H   H751      1.0  0.26429  0.57321  0.96610  1.0000
  S   S176      1.0  0.16784  0.45772  0.85723  1.0000
  C   C639      1.0  0.05028  0.53177  0.95571  1.0000
  C   C640      1.0  0.08837  0.53165  0.93603  1.0000
  H   H752      1.0  0.18026  0.71547  0.70717  1.0000
  H   H753      1.0  0.01925  0.54661  0.94695  1.0000
  H   H754      1.0  0.09300  0.49088  0.51704  1.0000
  H   H755      1.0  0.25511  0.67427  0.91306  1.0000
  C   C641      1.0  0.22196  0.71627  0.81643  1.0000
  C   C642      1.0  0.24962  0.40953  0.71347  1.0000
  C   C643      1.0  0.01363  0.44624  0.69195  1.0000
  C   C644      1.0  0.16760  0.63595  0.67570  1.0000
  C   C645      1.0  0.29092  0.54821  0.97434  1.0000
  C   C646      1.0  0.81194  0.41577  0.72663  1.0000
  S   S177      1.0  0.13127  0.42061  0.76809  1.0000
  H   H756      1.0  0.05265  0.47167  0.80394  1.0000
  H   H757      1.0  0.24210  0.40642  0.74080  1.0000
  C   C647      1.0  0.11799  0.58213  0.66470  1.0000
  S   S178      1.0  0.00412  0.57195  0.68019  1.0000
  H   H758      1.0  0.03182  0.62236  0.55808  1.0000
  H   H759      1.0  0.30021  0.67820  0.83355  1.0000
  Fe  Fe87      1.0  0.16487  0.46679  0.80105  1.0000
  H   H760      1.0  0.25358  0.61799  0.66684  1.0000
  C   C648      1.0  0.89704  0.67880  0.97842  1.0000
  H   H761      1.0  0.88793  0.69107  0.87705  1.0000
  H   H762      1.0  0.01346  0.45893  0.91806  1.0000
  H   H763      1.0  0.10057  0.56301  0.64687  1.0000
  C   C649      1.0  0.13532  0.42555  0.72400  1.0000
  H   H764      1.0  0.91176  0.60815  0.97053  1.0000
  H   H765      1.0  0.03790  0.60291  0.74343  1.0000
  H   H766      1.0  0.16793  0.67757  0.61507  1.0000
  C   C650      1.0  0.04456  0.41992  0.56055  1.0000
  H   H767      1.0  0.25933  0.69883  0.00110  1.0000
  H   H768      1.0  0.27397  0.60646  0.87592  1.0000
  C   C651      1.0  0.15539  0.46347  0.67551  1.0000
  C   C652      1.0  0.26577  0.43669  0.97275  1.0000
  H   H769      1.0  0.87456  0.48879  0.94360  1.0000
  H   H770      1.0  0.07367  0.40314  0.81935  1.0000
  H   H771      1.0  0.03864  0.62500  0.61980  1.0000
  S   S179      1.0  0.97456  0.56585  0.58603  1.0000
  C   C653      1.0  0.19991  0.66661  0.62622  1.0000
  C   C654      1.0  0.12837  0.51153  0.94719  1.0000
  S   S180      1.0  0.19382  0.48697  0.53424  1.0000
  N   N45       1.0  0.29469  0.38923  0.70296  1.0000
  H   H772      1.0  0.90934  0.48957  0.99994  1.0000
  H   H773      1.0  0.23632  0.43934  0.98830  1.0000
  C   C655      1.0  0.03283  0.49291  0.82479  1.0000
  C   C656      1.0  0.17934  0.71185  0.67871  1.0000
  H   H774      1.0  0.06893  0.68515  0.65102  1.0000
  Fe  Fe88      1.0  0.23427  0.47707  0.85363  1.0000
  C   C657      1.0  0.90772  0.71866  0.96954  1.0000
  H   H775      1.0  0.82072  0.54580  0.75531  1.0000
  C   C658      1.0  0.91239  0.42672  0.92390  1.0000
  H   H776      1.0  0.87115  0.67873  0.99735  1.0000
  H   H777      1.0  0.81430  0.55786  0.95914  1.0000
  H   H778      1.0  0.04460  0.63391  0.93749  1.0000
  C   C659      1.0  0.03708  0.43667  0.90174  1.0000
  S   S181      1.0  0.93389  0.68233  0.55427  1.0000
  S   S182      1.0  0.20977  0.54945  0.86495  1.0000
  C   C660      1.0  0.14393  0.61128  0.65275  1.0000
  C   C661      1.0  0.09218  0.49277  0.99823  1.0000
  H   H779      1.0  0.86005  0.67824  0.82169  1.0000
  H   H780      1.0  0.03547  0.72056  0.87546  1.0000
  C   C662      1.0  0.12664  0.39500  0.66597  1.0000
  C   C663      1.0  0.99692  0.41599  0.66937  1.0000
  C   C664      1.0  0.95111  0.42725  0.98769  1.0000
  C   C665      1.0  0.07915  0.69510  0.77103  1.0000
  H   H781      1.0  0.17867  0.64887  0.73029  1.0000
  Fe  Fe89      1.0  0.28224  0.50098  0.60013  1.0000
  C   C666      1.0  0.07084  0.40542  0.84699  1.0000
  H   H782      1.0  0.01361  0.44308  0.56623  1.0000
  C   C667      1.0  0.03863  0.43690  0.86537  1.0000
  C   C668      1.0  0.96626  0.67950  0.92992  1.0000
  H   H783      1.0  0.02250  0.51127  0.00151  1.0000
  C   C669      1.0  0.30207  0.39796  0.66673  1.0000
  H   H784      1.0  0.95591  0.52273  0.85488  1.0000
  Fe  Fe90      1.0  0.19776  0.46707  0.58794  1.0000
  H   H785      1.0  0.27550  0.52261  0.98618  1.0000
  H   H786      1.0  0.15785  0.51126  0.93196  1.0000
  H   H787      1.0  0.89566  0.42598  0.70795  1.0000
  S   S183      1.0  0.86069  0.50446  0.81630  1.0000
  C   C670      1.0  0.85494  0.68779  0.88701  1.0000
  H   H788      1.0  0.83732  0.42139  0.99896  1.0000
  H   H789      1.0  0.15985  0.48723  0.72868  1.0000
  H   H790      1.0  0.22192  0.68941  0.61818  1.0000
  H   H791      1.0  0.03590  0.64632  0.85995  1.0000
  C   C671      1.0  0.04565  0.64942  0.57012  1.0000
  H   H792      1.0  0.29616  0.43379  0.66322  1.0000
  C   C672      1.0  0.07717  0.47786  0.53882  1.0000
  S   S184      1.0  0.88803  0.42443  0.88413  1.0000
  H   H793      1.0  0.17194  0.40482  0.93782  1.0000
  H   H794      1.0  0.99551  0.70865  0.81042  1.0000
  C   C673      1.0  0.12322  0.39249  0.70136  1.0000
  H   H795      1.0  0.82675  0.50780  0.54567  1.0000
  H   H796      1.0  0.97229  0.60778  0.92985  1.0000
  H   H797      1.0  0.24402  0.44544  0.71047  1.0000
  Fe  Fe91      1.0  0.85100  0.48872  0.87054  1.0000
  C   C674      1.0  0.96444  0.39257  0.96254  1.0000
  S   S185      1.0  0.90504  0.63494  0.63884  1.0000
  C   C675      1.0  0.90000  0.46229  0.94863  1.0000
  C   C676      1.0  0.26341  0.44689  0.93847  1.0000
  S   S186      1.0  0.23391  0.47839  0.79648  1.0000
  Fe  Fe92      1.0  0.20599  0.54962  0.80783  1.0000
  H   H798      1.0  0.95680  0.46368  0.81101  1.0000
  C   C677      1.0  0.06495  0.70855  0.73937  1.0000
  C   C678      1.0  0.98156  0.44182  0.82439  1.0000
  H   H799      1.0  0.16778  0.49092  0.66555  1.0000
  H   H800      1.0  0.24868  0.50315  0.67370  1.0000
  C   C679      1.0  0.00615  0.64722  0.87666  1.0000
  Fe  Fe93      1.0  0.92330  0.62480  0.58281  1.0000
  H   H801      1.0  0.00704  0.61267  0.88283  1.0000
  Fe  Fe94      1.0  0.86752  0.57141  0.84015  1.0000
  C   C680      1.0  0.94475  0.39211  0.93088  1.0000
  H   H802      1.0  0.21243  0.69207  0.79641  1.0000
  S   S187      1.0  0.21285  0.53154  0.61040  1.0000
  H   H803      1.0  0.04648  0.45289  0.68789  1.0000
  C   C681      1.0  0.11455  0.57699  0.69956  1.0000
  S   S188      1.0  0.90368  0.52727  0.63447  1.0000
  C   C682      1.0  0.92850  0.43082  0.70217  1.0000
  C   C683      1.0  0.90258  0.68202  0.51789  1.0000
  C   C684      1.0  0.98817  0.46836  0.71964  1.0000
  H   H804      1.0  0.00624  0.61609  0.80239  1.0000
  H   H805      1.0  0.06332  0.42110  0.58435  1.0000
  Fe  Fe95      1.0  0.26488  0.45947  0.52987  1.0000
  H   H806      1.0  0.16117  0.47706  0.98718  1.0000
  C   C685      1.0  0.16235  0.63076  0.71116  1.0000
  C   C686      1.0  0.93753  0.57686  0.72807  1.0000
  S   S189      1.0  0.26716  0.43428  0.58210  1.0000
  H   H807      1.0  0.21370  0.53488  0.72966  1.0000
  C   C687      1.0  0.13635  0.60156  0.72278  1.0000
  H   H808      1.0  0.88671  0.57840  0.76679  1.0000
  S   S190      1.0  0.18467  0.61660  0.54650  1.0000
  H   H809      1.0  0.84476  0.43903  0.57262  1.0000
  H   H810      1.0  0.04628  0.50077  0.54565  1.0000
  H   H811      1.0  0.19480  0.70187  0.52696  1.0000
  N   N46       1.0  0.06935  0.43187  0.53077  1.0000
  H   H812      1.0  0.29916  0.56366  0.82607  1.0000
  Fe  Fe96      1.0  0.95285  0.57293  0.64139  1.0000
  H   H813      1.0  0.09861  0.48004  0.56103  1.0000
  S   S191      1.0  0.86354  0.55405  0.89416  1.0000
  H   H814      1.0  0.92585  0.47799  0.74635  1.0000
  H   H815      1.0  0.22317  0.70047  0.84104  1.0000
  H   H816      1.0  0.83162  0.42515  0.51940  1.0000
  C   C688      1.0  0.05209  0.51169  0.98650  1.0000
  H   H817      1.0  0.95656  0.48327  0.88558  1.0000
  H   H818      1.0  0.96390  0.42073  0.83961  1.0000
  S   S192      1.0  0.23781  0.59858  0.78100  1.0000
  C   C689      1.0  0.05887  0.68282  0.55120  1.0000
  S   S193      1.0  0.14671  0.43175  0.60848  1.0000
  S   S194      1.0  0.92628  0.46140  0.54747  1.0000
  H   H819      1.0  0.99621  0.52071  0.88673  1.0000
  C   C690      1.0  0.26369  0.57376  0.74234  1.0000
  C   C691      1.0  0.28911  0.66114  0.90674  1.0000
  C   C692      1.0  0.91939  0.46253  0.98062  1.0000
  Fe  Fe97      1.0  0.92025  0.52669  0.57845  1.0000
  H   H820      1.0  0.97754  0.65636  0.86100  1.0000
  Fe  Fe98      1.0  0.14334  0.53042  0.86301  1.0000
  C   C693      1.0  0.06628  0.68464  0.62343  1.0000
  H   H821      1.0  0.07408  0.66319  0.77851  1.0000
  H   H822      1.0  0.04898  0.68696  0.72247  1.0000
  H   H823      1.0  0.00175  0.41991  0.80416  1.0000
  H   H824      1.0  0.13343  0.59786  0.74996  1.0000
  H   H825      1.0  0.94026  0.41625  0.60728  1.0000
  H   H826      1.0  0.87219  0.41480  0.64881  1.0000
  H   H827      1.0  0.24257  0.65603  0.70437  1.0000
  H   H828      1.0  0.83948  0.57512  0.70052  1.0000
  C   C694      1.0  0.81317  0.44596  0.58734  1.0000
  C   C695      1.0  0.26420  0.52572  0.68987  1.0000
  C   C696      1.0  0.13031  0.49247  0.97853  1.0000
  H   H829      1.0  0.94489  0.69375  0.76491  1.0000
  C   C697      1.0  0.94443  0.59794  0.78847  1.0000
  S   S195      1.0  0.92302  0.60710  0.83052  1.0000
  C   C698      1.0  0.20891  0.63266  0.50990  1.0000
  S   S196      1.0  0.11145  0.70760  0.83425  1.0000
  C   C699      1.0  0.15085  0.46146  0.71115  1.0000
  H   H830      1.0  0.82284  0.44400  0.74007  1.0000
  H   H831      1.0  0.14530  0.61336  0.62534  1.0000
  C   C700      1.0  0.24443  0.54358  0.72161  1.0000
  H   H832      1.0  0.26442  0.67320  0.66610  1.0000
  C   C701      1.0  0.07596  0.71721  0.57018  1.0000
  H   H833      1.0  0.07487  0.66331  0.91071  1.0000
  C   C702      1.0  0.04451  0.66639  0.92705  1.0000
  C   C703      1.0  0.94575  0.46054  0.72484  1.0000
  H   H834      1.0  0.91861  0.56556  0.70734  1.0000
  C   C704      1.0  0.98690  0.60518  0.78179  1.0000
  N   N47       1.0  0.00523  0.67913  0.90733  1.0000
  C   C705      1.0  0.29838  0.69073  0.80778  1.0000
  C   C706      1.0  0.95445  0.63940  0.93969  1.0000
  N   N48       1.0  0.00814  0.46752  0.84667  1.0000
  C   C707      1.0  0.00497  0.59748  0.74840  1.0000
  C   C708      1.0  0.92012  0.63920  0.96335  1.0000
  H   H835      1.0  0.14482  0.72172  0.67199  1.0000
  S   S197      1.0  0.87084  0.58515  0.56979  1.0000
  H   H836      1.0  0.05556  0.51016  0.84028  1.0000
  H   H837      1.0  0.85748  0.68167  0.91452  1.0000
  C   C709      1.0  0.97798  0.49992  0.86966  1.0000
  S   S198      1.0  0.13663  0.53841  0.80696  1.0000
  S   S199      1.0  0.08554  0.55734  0.89782  1.0000
  H   H838      1.0  0.04662  0.69110  0.94915  1.0000
  H   H839      1.0  0.84925  0.69592  0.76320  1.0000
  H   H840      1.0  0.82084  0.45997  0.61320  1.0000
  H   H841      1.0  0.09476  0.55391  0.70850  1.0000
  C   C710      1.0  0.04928  0.65057  0.60571  1.0000
  H   H842      1.0  0.21369  0.63331  0.61383  1.0000
  C   C711      1.0  0.24099  0.65299  0.67599  1.0000
  H   H843      1.0  0.23222  0.45827  0.92801  1.0000
  Fe  Fe99      1.0  0.21583  0.54868  0.55626  1.0000
  H   H844      1.0  0.80909  0.53208  0.58800  1.0000
  S   S200      1.0  0.28705  0.52339  0.54723  1.0000
  C   C712      1.0  0.94163  0.71929  0.94562  1.0000
  C   C713      1.0  0.80782  0.56582  0.70455  1.0000
  N   N49       1.0  0.05435  0.68330  0.51362  1.0000
  H   H845      1.0  0.29190  0.66317  0.78960  1.0000
  C   C714      1.0  0.06663  0.40717  0.91834  1.0000
  C   C715      1.0  0.30054  0.62189  0.88557  1.0000
  H   H846      1.0  0.01869  0.39865  0.64903  1.0000
  C   C716      1.0  0.30322  0.58530  0.73158  1.0000
  C   C717      1.0  0.83902  0.70856  0.81804  1.0000
  H   H847      1.0  0.22530  0.39398  0.69828  1.0000
  H   H848      1.0  0.30239  0.53325  0.86365  1.0000
  C   C718      1.0  0.80791  0.58718  0.97683  1.0000
  C   C719      1.0  0.83309  0.71840  0.78409  1.0000
  C   C720      1.0  0.07963  0.71791  0.60573  1.0000
  C   C721      1.0  0.11130  0.40219  0.52279  1.0000
  H   H849      1.0  0.14454  0.38915  0.99462  1.0000
  C   C722      1.0  0.30576  0.42035  0.98613  1.0000
  C   C723      1.0  0.99192  0.00671  0.05104  1.0000
  C   C724      1.0  0.24939  0.99148  0.42620  1.0000
  H   H850      1.0  0.02134  0.74721  0.36207  1.0000
  Fe  Fe100     1.0  0.06203  0.93377  0.40168  1.0000
  H   H851      1.0  0.85151  0.73901  0.23445  1.0000
  H   H852      1.0  0.02419  0.76493  0.07532  1.0000
  H   H853      1.0  0.85923  0.98693  0.49462  1.0000
  H   H854      1.0  0.88359  0.03523  0.17391  1.0000
  H   H855      1.0  0.10348  0.78750  0.31186  1.0000
  H   H856      1.0  0.30141  0.78056  0.13792  1.0000
  C   C725      1.0  0.01848  0.83623  0.27096  1.0000
  H   H857      1.0  0.29738  0.03476  0.24367  1.0000
  H   H858      1.0  0.17568  0.05108  0.28752  1.0000
  C   C726      1.0  0.96527  0.74203  0.12271  1.0000
  C   C727      1.0  0.83871  0.76029  0.13432  1.0000
  H   H859      1.0  0.25569  0.00712  0.11019  1.0000
  H   H860      1.0  0.27486  0.91740  0.16968  1.0000
  C   C728      1.0  0.95064  0.99067  0.28258  1.0000
  S   S201      1.0  0.28516  0.92251  0.32228  1.0000
  H   H861      1.0  0.89131  0.84840  0.20968  1.0000
  H   H862      1.0  0.96009  0.99449  0.05172  1.0000
  C   C729      1.0  0.83635  0.01704  0.50442  1.0000
  H   H863      1.0  0.21630  0.89763  0.37382  1.0000
  H   H864      1.0  0.07530  0.75998  0.36141  1.0000
  H   H865      1.0  0.22351  0.89960  0.16224  1.0000
  H   H866      1.0  0.82041  0.02987  0.48134  1.0000
  H   H867      1.0  0.26747  0.00637  0.29479  1.0000
  C   C730      1.0  0.30418  0.94115  0.28464  1.0000
  H   H868      1.0  0.24036  0.91015  0.07532  1.0000
  S   S202      1.0  0.81329  0.85281  0.47334  1.0000
  H   H869      1.0  0.17749  0.04502  0.22486  1.0000
  C   C731      1.0  0.27092  0.77592  0.28249  1.0000
  H   H870      1.0  0.28575  0.76294  0.25765  1.0000
  C   C732      1.0  0.04858  0.75217  0.34467  1.0000
  H   H871      1.0  0.08175  0.86042  0.07288  1.0000
  S   S203      1.0  0.01437  0.91680  0.11320  1.0000
  H   H872      1.0  0.08766  0.97890  0.10303  1.0000
  H   H873      1.0  0.19177  0.97567  0.18425  1.0000
  S   S204      1.0  0.06102  0.79301  0.44969  1.0000
  N   N50       1.0  0.29469  0.03919  0.39490  1.0000
  C   C733      1.0  0.86885  0.76217  0.33278  1.0000
  H   H874      1.0  0.14970  0.85161  0.40509  1.0000
  C   C734      1.0  0.13249  0.93927  0.06599  1.0000
  C   C735      1.0  0.85651  0.74536  0.26157  1.0000
  C   C736      1.0  0.20767  0.92654  0.08193  1.0000
  H   H875      1.0  0.89266  0.82277  0.40473  1.0000
  S   S205      1.0  0.96102  0.88922  0.43624  1.0000
  H   H876      1.0  0.81826  0.74234  0.38350  1.0000
  H   H877      1.0  0.96908  0.77526  0.11773  1.0000
  C   C737      1.0  0.82764  0.92492  0.39404  1.0000
  S   S206      1.0  0.92916  0.89968  0.34165  1.0000
  C   C738      1.0  0.13621  0.78643  0.48486  1.0000
  S   S207      1.0  0.05686  0.88242  0.19938  1.0000
  C   C739      1.0  0.13371  0.94747  0.34065  1.0000
  H   H878      1.0  0.01932  0.72487  0.47837  1.0000
  H   H879      1.0  0.94895  0.76186  0.17614  1.0000
  C   C740      1.0  0.15339  0.97212  0.12024  1.0000
  H   H880      1.0  0.96262  0.02628  0.15738  1.0000
  Fe  Fe101     1.0  0.82504  0.85586  0.04788  1.0000
  H   H881      1.0  0.18417  0.89967  0.03467  1.0000
  H   H882      1.0  0.98529  0.04142  0.06284  1.0000
  C   C741      1.0  0.15444  0.76014  0.27624  1.0000
  H   H883      1.0  0.89209  0.91553  0.24514  1.0000
  H   H884      1.0  0.03753  0.73687  0.03411  1.0000
  C   C742      1.0  0.95404  0.86641  0.30617  1.0000
  C   C743      1.0  0.11789  0.75748  0.29692  1.0000
  H   H885      1.0  0.06151  0.02264  0.29195  1.0000
  H   H886      1.0  0.03610  0.78167  0.33104  1.0000
  C   C744      1.0  0.11490  0.04862  0.03947  1.0000
  H   H887      1.0  0.82572  0.72232  0.17594  1.0000
  H   H888      1.0  0.85095  0.94458  0.38526  1.0000
  C   C745      1.0  0.83296  0.90639  0.42540  1.0000
  H   H889      1.0  0.89148  0.93504  0.12973  1.0000
  C   C746      1.0  0.27593  0.95796  0.47707  1.0000
  C   C747      1.0  0.81555  0.75209  0.16351  1.0000
  S   S208      1.0  0.04401  0.86986  0.38013  1.0000
  H   H890      1.0  0.15476  0.81424  0.06864  1.0000
  H   H891      1.0  0.91767  0.73947  0.04933  1.0000
  H   H892      1.0  0.85237  0.89711  0.13018  1.0000
  Fe  Fe102     1.0  0.13864  0.79932  0.14036  1.0000
  H   H893      1.0  0.07055  0.02309  0.43763  1.0000
  C   C748      1.0  0.01141  0.83177  0.01316  1.0000
  S   S209      1.0  0.83101  0.92752  0.05013  1.0000
  C   C749      1.0  0.10734  0.92456  0.31972  1.0000
  S   S210      1.0  0.12350  0.95648  0.38524  1.0000
  H   H894      1.0  0.08043  0.81332  0.01863  1.0000
  C   C750      1.0  0.15528  0.92735  0.27048  1.0000
  H   H895      1.0  0.94797  0.78221  0.06345  1.0000
  H   H896      1.0  0.21047  0.86836  0.32105  1.0000
  H   H897      1.0  0.15050  0.76314  0.46390  1.0000
  H   H898      1.0  0.20840  0.96277  0.27997  1.0000
  H   H899      1.0  0.90844  0.87684  0.12165  1.0000
  C   C751      1.0  0.01316  0.88572  0.07402  1.0000
  H   H900      1.0  0.00743  0.95682  0.25391  1.0000
  C   C752      1.0  0.95055  0.80946  0.26017  1.0000
  C   C753      1.0  0.99812  0.86526  0.29804  1.0000
  C   C754      1.0  0.30449  0.78079  0.10956  1.0000
  H   H901      1.0  0.27326  0.77296  0.09948  1.0000
  C   C755      1.0  0.05146  0.85986  0.06004  1.0000
  N   N51       1.0  0.87384  0.77123  0.37010  1.0000
  H   H902      1.0  0.89960  0.82841  0.16522  1.0000
  C   C756      1.0  0.89302  0.72511  0.31315  1.0000
  H   H903      1.0  0.21506  0.94989  0.45464  1.0000
  C   C757      1.0  0.24756  0.81855  0.28700  1.0000
  H   H904      1.0  0.94629  0.93445  0.17676  1.0000
  H   H905      1.0  0.26136  0.74448  0.36242  1.0000
  H   H906      1.0  0.86645  0.73666  0.12418  1.0000
  H   H907      1.0  0.96033  0.87664  0.16381  1.0000
  H   H908      1.0  0.21640  0.88584  0.41730  1.0000
  H   H909      1.0  0.86030  0.91184  0.44081  1.0000
  H   H910      1.0  0.86769  0.84178  0.36715  1.0000
  H   H911      1.0  0.99696  0.00095  0.20557  1.0000
  S   S211      1.0  0.99485  0.97224  0.40024  1.0000
  C   C758      1.0  0.02469  0.72370  0.50630  1.0000
  C   C759      1.0  0.93692  0.04329  0.22637  1.0000
  C   C760      1.0  0.83290  0.78248  0.27991  1.0000
  Fe  Fe103     1.0  0.97601  0.90692  0.38328  1.0000
  H   H912      1.0  0.89563  0.84155  0.29241  1.0000
  H   H913      1.0  0.09851  0.89548  0.26875  1.0000
  C   C761      1.0  0.88556  0.90251  0.13760  1.0000
  H   H914      1.0  0.93817  0.73438  0.37423  1.0000
  C   C762      1.0  0.22549  0.80049  0.41004  1.0000
  Fe  Fe104     1.0  0.98562  0.95196  0.45332  1.0000
  H   H915      1.0  0.07867  0.91482  0.33049  1.0000
  C   C763      1.0  0.23631  0.72376  0.01572  1.0000
  H   H916      1.0  0.82181  0.96271  0.15698  1.0000
  H   H917      1.0  0.90661  0.74480  0.41365  1.0000
  S   S212      1.0  0.17219  0.91224  0.22752  1.0000
  C   C764      1.0  0.28707  0.01203  0.42326  1.0000
  C   C765      1.0  0.95039  0.74975  0.04825  1.0000
  C   C766      1.0  0.82881  0.96346  0.18389  1.0000
  C   C767      1.0  0.88211  0.85564  0.18325  1.0000
  C   C768      1.0  0.88974  0.81390  0.37681  1.0000
  S   S213      1.0  0.06675  0.80226  0.13642  1.0000
  H   H918      1.0  0.94427  0.90485  0.06825  1.0000
  H   H919      1.0  0.01627  0.88731  0.31225  1.0000
  C   C769      1.0  0.86329  0.93414  0.19694  1.0000
  H   H920      1.0  0.20379  0.72535  0.24011  1.0000
  H   H921      1.0  0.29337  0.98294  0.13992  1.0000
  C   C770      1.0  0.83112  0.77383  0.38825  1.0000
  C   C771      1.0  0.86774  0.93753  0.23304  1.0000
  H   H922      1.0  0.84339  0.96986  0.28217  1.0000
  H   H923      1.0  0.01393  0.98633  0.06754  1.0000
  C   C772      1.0  0.17500  0.72328  0.25569  1.0000
  Fe  Fe105     1.0  0.06573  0.80851  0.19351  1.0000
  C   C773      1.0  0.24980  0.91446  0.15011  1.0000
  H   H924      1.0  0.90296  0.85587  0.50130  1.0000
  H   H925      1.0  0.83328  0.78057  0.41650  1.0000
  C   C774      1.0  0.24399  0.96519  0.45296  1.0000
  Fe  Fe106     1.0  0.06388  0.87569  0.14230  1.0000
  H   H926      1.0  0.16665  0.79119  0.27590  1.0000
  H   H927      1.0  0.25671  0.00828  0.35757  1.0000
  S   S214      1.0  0.94970  0.00203  0.49338  1.0000
  S   S215      1.0  0.85845  0.81010  0.08398  1.0000
  H   H928      1.0  0.93216  0.78787  0.24557  1.0000
  H   H929      1.0  0.15426  0.85962  0.36066  1.0000
  H   H930      1.0  0.28980  0.79696  0.04802  1.0000
  C   C775      1.0  0.11837  0.91399  0.28468  1.0000
  C   C776      1.0  0.95352  0.73480  0.15622  1.0000
  C   C777      1.0  0.83881  0.79089  0.31496  1.0000
  C   C778      1.0  0.83984  0.96855  0.25461  1.0000
  H   H931      1.0  0.10755  0.93365  0.04807  1.0000
  C   C779      1.0  0.23306  0.81000  0.34789  1.0000
  C   C780      1.0  0.99477  0.80802  0.25234  1.0000
  H   H932      1.0  0.94742  0.89432  0.20766  1.0000
  C   C781      1.0  0.18025  0.95207  0.29107  1.0000
  H   H933      1.0  0.25035  0.99682  0.02899  1.0000
  H   H934      1.0  0.12922  0.05214  0.46375  1.0000
  H   H935      1.0  0.21256  0.76880  0.40625  1.0000
  H   H936      1.0  0.21180  0.81637  0.43540  1.0000
  C   C782      1.0  0.19707  0.75194  0.06926  1.0000
  S   S216      1.0  0.02063  0.77109  0.21926  1.0000
  H   H937      1.0  0.84671  0.85425  0.18165  1.0000
  H   H938      1.0  0.95614  0.97095  0.30421  1.0000
  C   C783      1.0  0.09265  0.80595  0.48419  1.0000
  N   N52       1.0  0.21371  0.82908  0.38181  1.0000
  N   N53       1.0  0.89173  0.89926  0.17489  1.0000
  C   C784      1.0  0.29067  0.98482  0.27765  1.0000
  H   H939      1.0  0.26524  0.89071  0.12876  1.0000
  C   C785      1.0  0.90832  0.05052  0.25584  1.0000
  C   C786      1.0  0.27512  0.74988  0.31002  1.0000
  H   H940      1.0  0.27261  0.93589  0.49681  1.0000
  H   H941      1.0  0.22377  0.99478  0.40795  1.0000
  S   S217      1.0  0.13789  0.79921  0.19742  1.0000
  H   H942      1.0  0.05271  0.83516  0.26485  1.0000
  C   C787      1.0  0.97262  0.00819  0.22624  1.0000
  C   C788      1.0  0.82611  0.79888  0.11822  1.0000
  H   H943      1.0  0.82030  0.82075  0.32780  1.0000
  C   C789      1.0  0.26817  0.97577  0.12146  1.0000
  Fe  Fe107     1.0  0.03129  0.85883  0.43457  1.0000
  C   C790      1.0  0.16565  0.83663  0.38016  1.0000
  H   H944      1.0  0.15326  0.80517  0.37341  1.0000
  S   S218      1.0  0.05500  0.91997  0.45644  1.0000
  H   H945      1.0  0.01685  0.73312  0.28286  1.0000
  C   C791      1.0  0.25650  0.76639  0.34226  1.0000
  C   C792      1.0  0.21698  0.98834  0.16900  1.0000
  C   C793      1.0  0.91532  0.02467  0.28349  1.0000
  C   C794      1.0  0.93825  0.90134  0.18119  1.0000
  C   C795      1.0  0.92999  0.83946  0.28664  1.0000
  C   C796      1.0  0.97922  0.98247  0.25405  1.0000
  H   H946      1.0  0.09599  0.03659  0.34714  1.0000
  H   H947      1.0  0.94257  0.85633  0.01465  1.0000
  H   H948      1.0  0.24436  0.83929  0.26577  1.0000
  H   H949      1.0  0.92210  0.81313  0.36392  1.0000
  C   C797      1.0  0.80672  0.99704  0.24105  1.0000
  S   S219      1.0  0.13634  0.87207  0.14013  1.0000
  C   C798      1.0  0.19769  0.95280  0.11352  1.0000
  N   N54       1.0  0.01049  0.00404  0.01547  1.0000
  C   C799      1.0  0.97396  0.88485  0.05753  1.0000
  Fe  Fe108     1.0  0.12971  0.87262  0.19726  1.0000
  C   C800      1.0  0.17703  0.78875  0.05382  1.0000
  H   H950      1.0  0.24389  0.99224  0.18675  1.0000
  C   C801      1.0  0.90464  0.73699  0.38545  1.0000
  C   C802      1.0  0.22835  0.83513  0.31902  1.0000
  C   C803      1.0  0.12142  0.96507  0.09681  1.0000
  C   C804      1.0  0.16977  0.96183  0.32613  1.0000
  N   N55       1.0  0.23227  0.95797  0.13822  1.0000
  H   H951      1.0  0.26460  0.86821  0.39027  1.0000
  C   C805      1.0  0.17558  0.92015  0.05851  1.0000
  H   H952      1.0  0.14233  0.99177  0.14385  1.0000
  C   C806      1.0  0.97298  0.85726  0.02732  1.0000
  C   C807      1.0  0.05073  0.83337  0.02932  1.0000
  H   H953      1.0  0.26145  0.79300  0.41242  1.0000
  H   H954      1.0  0.20340  0.02173  0.16171  1.0000
  H   H955      1.0  0.83530  0.75193  0.47264  1.0000
  S   S220      1.0  0.18807  0.74699  0.11284  1.0000
  H   H956      1.0  0.04717  0.04625  0.40060  1.0000
  C   C808      1.0  0.22844  0.87194  0.39116  1.0000
  H   H957      1.0  0.18994  0.98008  0.34198  1.0000
  H   H958      1.0  0.28549  0.95223  0.10080  1.0000
  C   C809      1.0  0.02622  0.73218  0.06057  1.0000
  H   H959      1.0  0.22370  0.72563  0.47299  1.0000
  C   C810      1.0  0.07333  0.03706  0.04218  1.0000
  H   H960      1.0  0.95768  0.75630  0.02142  1.0000
  C   C811      1.0  0.26006  0.04164  0.36943  1.0000
  C   C812      1.0  0.18639  0.79282  0.01914  1.0000
  H   H961      1.0  0.80653  0.80047  0.38001  1.0000
  H   H962      1.0  0.03801  0.93508  0.01278  1.0000
  H   H963      1.0  0.81014  0.80516  0.26681  1.0000
  C   C813      1.0  0.07489  0.05277  0.29730  1.0000
  H   H964      1.0  0.89321  0.03108  0.30580  1.0000
  H   H965      1.0  0.05681  0.04413  0.06704  1.0000
  C   C814      1.0  0.06687  0.05301  0.42323  1.0000
  C   C815      1.0  0.05401  0.01760  0.01341  1.0000
  C   C816      1.0  0.27945  0.00649  0.01826  1.0000
  H   H966      1.0  0.97633  0.73524  0.60735  1.0000
  H   H967      1.0  0.19482  0.74439  0.81958  1.0000
  H   H968      1.0  0.24135  0.03198  0.61878  1.0000
  S   S221      1.0  0.80971  0.89777  0.79608  1.0000
  N   N56       1.0  0.97097  0.86086  0.80074  1.0000
  C   C817      1.0  0.28855  0.73003  0.74436  1.0000
  C   C818      1.0  0.96293  0.99324  0.53582  1.0000
  C   C819      1.0  0.25318  0.78504  0.70911  1.0000
  C   C820      1.0  0.97983  0.03317  0.99582  1.0000
  H   H969      1.0  0.84175  0.86270  0.54360  1.0000
  C   C821      1.0  0.83321  0.00184  0.62477  1.0000
  C   C822      1.0  0.86855  0.96777  0.62208  1.0000
  H   H970      1.0  0.93787  0.04059  0.61706  1.0000
  H   H971      1.0  0.20191  0.83258  0.73393  1.0000
  H   H972      1.0  0.94874  0.04342  0.73126  1.0000
  S   S222      1.0  0.10165  0.92869  0.88289  1.0000
  C   C823      1.0  0.09806  0.72358  0.79359  1.0000
  H   H973      1.0  0.24671  0.92286  0.57282  1.0000
  H   H974      1.0  0.24849  0.79335  0.83652  1.0000
  H   H975      1.0  0.88986  0.84830  0.65255  1.0000
  C   C824      1.0  0.81784  0.73711  0.84589  1.0000
  C   C825      1.0  0.08597  0.01617  0.58316  1.0000
  C   C826      1.0  0.92725  0.76216  0.75604  1.0000
  H   H976      1.0  0.00402  0.97904  0.72532  1.0000
  H   H977      1.0  0.03840  0.00217  0.82998  1.0000
  H   H978      1.0  0.23208  0.98234  0.63801  1.0000
  C   C827      1.0  0.87377  0.84685  0.54996  1.0000
  H   H979      1.0  0.94861  0.75147  0.94061  1.0000
  H   H980      1.0  0.20753  0.80153  0.78926  1.0000
  C   C828      1.0  0.83656  0.76526  0.90254  1.0000
  H   H981      1.0  0.99232  0.72558  0.51942  1.0000
  C   C829      1.0  0.07812  0.01238  0.98165  1.0000
  Fe  Fe109     1.0  0.12853  0.85961  0.62153  1.0000
  H   H982      1.0  0.01363  0.74741  0.91497  1.0000
  Fe  Fe110     1.0  0.83033  0.96332  0.79007  1.0000
  H   H983      1.0  0.13680  0.02073  0.95443  1.0000
  C   C830      1.0  0.15285  0.96463  0.79627  1.0000
  C   C831      1.0  0.92595  0.97687  0.91385  1.0000
  C   C832      1.0  0.10740  0.04883  0.63692  1.0000
  H   H984      1.0  0.88520  0.95789  0.64486  1.0000
  C   C833      1.0  0.09208  0.77748  0.75155  1.0000
  H   H985      1.0  0.00730  0.78387  0.82713  1.0000
  C   C834      1.0  0.16131  0.79733  0.51263  1.0000
  H   H986      1.0  0.30547  0.77471  0.82721  1.0000
  H   H987      1.0  0.03796  0.84109  0.81395  1.0000
  C   C835      1.0  0.96681  0.03577  0.75376  1.0000
  C   C836      1.0  0.94959  0.82328  0.53432  1.0000
  H   H988      1.0  0.83904  0.75943  0.93014  1.0000
  H   H989      1.0  0.02519  0.89677  0.80440  1.0000
  H   H990      1.0  0.27688  0.75087  0.85938  1.0000
  N   N57       1.0  0.92742  0.79080  0.62465  1.0000
  S   S223      1.0  0.05064  0.76757  0.69125  1.0000
  H   H991      1.0  0.89009  0.74935  0.98187  1.0000
  C   C837      1.0  0.13642  0.96513  0.82989  1.0000
  C   C838      1.0  0.02443  0.98611  0.77736  1.0000
  H   H992      1.0  0.92826  0.81653  0.67752  1.0000
  C   C839      1.0  0.13779  0.04267  0.00800  1.0000
  C   C840      1.0  0.81239  0.01571  0.59538  1.0000
  S   S224      1.0  0.11902  0.74324  0.92764  1.0000
  C   C841      1.0  0.82640  0.99534  0.56217  1.0000
  C   C842      1.0  0.98185  0.97985  0.60431  1.0000
  S   S225      1.0  0.06031  0.89419  0.70599  1.0000
  S   S226      1.0  0.88333  0.98962  0.81861  1.0000
  H   H993      1.0  0.09266  0.74454  0.61968  1.0000
  H   H994      1.0  0.16962  0.05251  0.00594  1.0000
  H   H995      1.0  0.19258  0.92863  0.55868  1.0000
  S   S227      1.0  0.22813  0.76537  0.95691  1.0000
  C   C843      1.0  0.89600  0.95393  0.92863  1.0000
  H   H996      1.0  0.81143  0.74149  0.69010  1.0000
  C   C844      1.0  0.94416  0.02411  0.56239  1.0000
  H   H997      1.0  0.30206  0.78355  0.51102  1.0000
  H   H998      1.0  0.21879  0.05122  0.69783  1.0000
  H   H999      1.0  0.98920  0.79136  0.57091  1.0000
  Fe  Fe111     1.0  0.13025  0.89856  0.69430  1.0000
  H   H1000     1.0  0.91537  0.83076  0.75125  1.0000
  C   C845      1.0  0.27402  0.76371  0.83360  1.0000
  C   C846      1.0  0.27390  0.00546  0.80324  1.0000
  H   H1001     1.0  0.01982  0.95370  0.97241  1.0000
  C   C847      1.0  0.15262  0.92772  0.77304  1.0000
  H   H1002     1.0  0.00567  0.93166  0.52314  1.0000
  C   C848      1.0  0.00775  0.72258  0.89426  1.0000
  Fe  Fe112     1.0  0.06792  0.80152  0.94202  1.0000
  S   S228      1.0  0.11513  0.84816  0.95326  1.0000
  H   H1003     1.0  0.25020  0.79923  0.68465  1.0000
  S   S229      1.0  0.05841  0.85126  0.62585  1.0000
  C   C849      1.0  0.85790  0.95205  0.87531  1.0000
  H   H1004     1.0  0.03031  0.85313  0.77029  1.0000
  C   C850      1.0  0.95641  0.80621  0.56615  1.0000
  C   C851      1.0  0.24033  0.99605  0.61370  1.0000
  C   C852      1.0  0.12956  0.00007  0.57390  1.0000
  C   C853      1.0  0.98444  0.77917  0.80739  1.0000
  H   H1005     1.0  0.97301  0.74822  0.65282  1.0000
  H   H1006     1.0  0.29564  0.81949  0.57031  1.0000
  C   C854      1.0  0.01811  0.86292  0.79718  1.0000
  C   C855      1.0  0.94808  0.89449  0.77955  1.0000
  H   H1007     1.0  0.05027  0.95796  0.77399  1.0000
  S   S230      1.0  0.14688  0.82945  0.67013  1.0000
  C   C856      1.0  0.26029  0.88462  0.81403  1.0000
  H   H1008     1.0  0.13616  0.86240  0.76574  1.0000
  H   H1009     1.0  0.06055  0.00944  0.56598  1.0000
  C   C857      1.0  0.96293  0.81538  0.79083  1.0000
  S   S231      1.0  0.17292  0.83742  0.57568  1.0000
  C   C858      1.0  0.99865  0.99812  0.75002  1.0000
  Fe  Fe113     1.0  0.16582  0.79106  0.93338  1.0000
  C   C859      1.0  0.93364  0.80556  0.76504  1.0000
  C   C860      1.0  0.27963  0.87802  0.84526  1.0000
  S   S232      1.0  0.17409  0.92713  0.73129  1.0000
  Fe  Fe114     1.0  0.11315  0.76344  0.87432  1.0000
  N   N58       1.0  0.26404  0.72986  0.80705  1.0000
  C   C861      1.0  0.88020  0.83042  0.58193  1.0000
  H   H1010     1.0  0.12021  0.78638  0.80101  1.0000
  H   H1011     1.0  0.06510  0.99911  0.95835  1.0000
  C   C862      1.0  0.12136  0.89084  0.81762  1.0000
  H   H1012     1.0  0.92169  0.05283  0.55663  1.0000
  C   C863      1.0  0.30328  0.90253  0.98550  1.0000
  C   C864      1.0  0.12101  0.92816  0.84064  1.0000
  C   C865      1.0  0.95345  0.01732  0.59656  1.0000
  H   H1013     1.0  0.04110  0.85298  0.50995  1.0000
  H   H1014     1.0  0.16478  0.99344  0.78820  1.0000
  S   S233      1.0  0.84575  0.84140  0.99231  1.0000
  C   C866      1.0  0.01786  0.01122  0.80884  1.0000
  C   C867      1.0  0.92294  0.82822  0.65154  1.0000
  C   C868      1.0  0.14256  0.82691  0.53988  1.0000
  H   H1015     1.0  0.89538  0.73501  0.61132  1.0000
  C   C869      1.0  0.94937  0.72741  0.77245  1.0000
  H   H1016     1.0  0.86859  0.77178  0.89283  1.0000
  H   H1017     1.0  0.89795  0.74876  0.65670  1.0000
  H   H1018     1.0  0.91210  0.89726  0.78262  1.0000
  S   S234      1.0  0.11766  0.92925  0.64502  1.0000
  H   H1019     1.0  0.95782  0.88706  0.75188  1.0000
  C   C870      1.0  0.26104  0.74830  0.77328  1.0000
  H   H1020     1.0  0.09733  0.80907  0.74374  1.0000
  C   C871      1.0  0.28548  0.87707  0.78337  1.0000
  H   H1021     1.0  0.85623  0.04163  0.51517  1.0000
  S   S235      1.0  0.99222  0.97167  0.64735  1.0000
  H   H1022     1.0  0.27418  0.98013  0.60592  1.0000
  C   C872      1.0  0.92165  0.98789  0.88005  1.0000
  S   S236      1.0  0.90125  0.94239  0.97141  1.0000
  H   H1023     1.0  0.25429  0.00145  0.82557  1.0000
  H   H1024     1.0  0.95233  0.98646  0.92864  1.0000
  C   C873      1.0  0.89394  0.76285  0.63147  1.0000
  C   C874      1.0  0.10498  0.76465  0.78379  1.0000
  H   H1025     1.0  0.10964  0.86220  0.82608  1.0000
  H   H1026     1.0  0.92078  0.87377  0.84068  1.0000
  C   C875      1.0  0.90831  0.84318  0.52614  1.0000
  H   H1027     1.0  0.13607  0.99407  0.84767  1.0000
  N   N59       1.0  0.82256  0.72743  0.88216  1.0000
  H   H1028     1.0  0.95558  0.92809  0.78724  1.0000
  C   C876      1.0  0.86211  0.94123  0.90930  1.0000
  H   H1029     1.0  0.90511  0.75547  0.73601  1.0000
  C   C877      1.0  0.95634  0.87383  0.83698  1.0000
  H   H1030     1.0  0.83147  0.94267  0.86056  1.0000
  H   H1031     1.0  0.85238  0.05036  0.93400  1.0000
  Fe  Fe115     1.0  0.07576  0.82771  0.67692  1.0000
  C   C878      1.0  0.21278  0.93881  0.57998  1.0000
  Fe  Fe116     1.0  0.10897  0.85978  0.89782  1.0000
  H   H1032     1.0  0.22559  0.89624  0.81369  1.0000
  H   H1033     1.0  0.19845  0.73609  0.66891  1.0000
  H   H1034     1.0  0.28464  0.92308  0.93596  1.0000
  C   C879      1.0  0.11933  0.02478  0.97910  1.0000
  C   C880      1.0  0.09931  0.84716  0.53877  1.0000
  C   C881      1.0  0.28059  0.01815  0.98470  1.0000
  Fe  Fe117     1.0  0.04892  0.91866  0.65403  1.0000
  H   H1035     1.0  0.29466  0.01506  0.87311  1.0000
  C   C882      1.0  0.92150  0.80840  0.59070  1.0000
  H   H1036     1.0  0.91099  0.92107  0.58789  1.0000
  C   C883      1.0  0.26322  0.98470  0.77221  1.0000
  C   C884      1.0  0.16348  0.00708  0.59634  1.0000
  H   H1037     1.0  0.96257  0.90765  0.84545  1.0000
  H   H1038     1.0  0.81316  0.79625  0.90215  1.0000
  C   C885      1.0  0.00100  0.94920  0.57774  1.0000
  H   H1039     1.0  0.27030  0.90100  0.99407  1.0000
  C   C886      1.0  0.88295  0.94701  0.58999  1.0000
  H   H1040     1.0  0.82177  0.01768  0.64985  1.0000
  C   C887      1.0  0.22955  0.78575  0.76849  1.0000
  S   S237      1.0  0.05732  0.81791  0.88791  1.0000
  C   C888      1.0  0.29153  0.05010  0.86695  1.0000
  C   C889      1.0  0.97046  0.76311  0.62782  1.0000
  C   C890      1.0  0.86219  0.96036  0.56046  1.0000
  H   H1041     1.0  0.25822  0.99411  0.54859  1.0000
  Fe  Fe118     1.0  0.84580  0.91420  0.99360  1.0000
  S   S238      1.0  0.01017  0.79695  0.97579  1.0000
  C   C891      1.0  0.88771  0.97543  0.86076  1.0000
  S   S239      1.0  0.83794  0.82450  0.71258  1.0000
  H   H1042     1.0  0.83925  0.92308  0.92057  1.0000
  C   C892      1.0  0.22588  0.80372  0.73688  1.0000
  H   H1043     1.0  0.97345  0.85158  0.85493  1.0000
  H   H1044     1.0  0.86049  0.78133  0.63227  1.0000
  H   H1045     1.0  0.08661  0.74392  0.55767  1.0000
  H   H1046     1.0  0.17132  0.82153  0.00735  1.0000
  C   C893      1.0  0.13634  0.89096  0.78359  1.0000
  C   C894      1.0  0.97768  0.73593  0.79823  1.0000
  H   H1047     1.0  0.88568  0.75278  0.52061  1.0000
  H   H1048     1.0  0.26830  0.88318  0.76019  1.0000
  H   H1049     1.0  0.94476  0.00596  0.86886  1.0000
  H   H1050     1.0  0.94692  0.85061  0.64694  1.0000
  H   H1051     1.0  0.27638  0.97341  0.71788  1.0000
  C   C895      1.0  0.98654  0.04932  0.81271  1.0000
  H   H1052     1.0  0.08535  0.87139  0.55912  1.0000
  H   H1053     1.0  0.21845  0.04245  0.55875  1.0000
  C   C896      1.0  0.28456  0.74846  0.71290  1.0000
  C   C897      1.0  0.15114  0.03319  0.62780  1.0000
  H   H1054     1.0  0.99068  0.03188  0.96849  1.0000
  C   C898      1.0  0.07088  0.74999  0.72987  1.0000
  C   C899      1.0  0.99138  0.95576  0.54350  1.0000
  H   H1055     1.0  0.99750  0.78268  0.62689  1.0000
  H   H1056     1.0  0.87466  0.94322  0.53619  1.0000
  H   H1057     1.0  0.02279  0.92023  0.58358  1.0000
  C   C900      1.0  0.07489  0.03971  0.61489  1.0000
  S   S240      1.0  0.83886  0.95321  0.73284  1.0000
  S   S241      1.0  0.16433  0.80689  0.87867  1.0000
  H   H1058     1.0  0.85242  0.83538  0.59973  1.0000
  H   H1059     1.0  0.23673  0.96588  0.77157  1.0000
  C   C901      1.0  0.21630  0.76053  0.00019  1.0000
  C   C902      1.0  0.22311  0.00577  0.55525  1.0000
  H   H1060     1.0  0.13639  0.98124  0.54930  1.0000
  H   H1061     1.0  0.20258  0.92359  0.60303  1.0000
  H   H1062     1.0  0.04102  0.05033  0.62271  1.0000
  H   H1063     1.0  0.20459  0.99622  0.53269  1.0000
  N   N60       1.0  0.20916  0.98745  0.58675  1.0000
  H   H1064     1.0  0.17451  0.04155  0.64609  1.0000
  H   H1065     1.0  0.09636  0.04248  0.79437  1.0000
  C   C903      1.0  0.28587  0.98859  0.74191  1.0000
  H   H1066     1.0  0.26018  0.88454  0.86904  1.0000
  H   H1067     1.0  0.19507  0.78250  0.51345  1.0000
  Fe  Fe119     1.0  0.81193  0.89094  0.73880  1.0000
  H   H1068     1.0  0.30606  0.73420  0.69127  1.0000
  H   H1069     1.0  0.97633  0.82090  0.51569  1.0000
  C   C904      1.0  0.07442  0.83691  0.51083  1.0000
  H   H1070     1.0  0.25220  0.01762  0.96931  1.0000
  H   H1071     1.0  0.97757  0.73535  0.88130  1.0000
  H   H1072     1.0  0.03776  0.75415  0.51479  1.0000
  H   H1073     1.0  0.83794  0.05301  0.89023  1.0000
  H   H1074     1.0  0.80655  0.94040  0.50963  1.0000
  H   H1075     1.0  0.94658  0.02390  0.99629  1.0000
  C   C905      1.0  0.01276  0.95771  0.00054  1.0000
  H   H1076     1.0  0.30590  0.80120  0.98806  1.0000
  H   H1077     1.0  0.98128  0.94550  0.00407  1.0000
  C   C906      1.0  0.93413  0.28987  0.18975  1.0000
  C   C907      1.0  0.06614  0.17290  0.00995  1.0000
  C   C908      1.0  0.21201  0.22961  0.12221  1.0000
  H   H1078     1.0  0.22293  0.32044  0.17456  1.0000
  H   H1079     1.0  0.91310  0.15664  0.47480  1.0000
  C   C909      1.0  0.92155  0.25923  0.21084  1.0000
  C   C910      1.0  0.22276  0.11263  0.08035  1.0000
  N   N61       1.0  0.06980  0.37333  0.11963  1.0000
  H   H1080     1.0  0.96301  0.34779  0.33899  1.0000
  S   S242      1.0  0.16168  0.19251  0.43837  1.0000
  H   H1081     1.0  0.00567  0.15947  0.34782  1.0000
  H   H1082     1.0  0.09930  0.05648  0.41244  1.0000
  H   H1083     1.0  0.12317  0.38234  0.41024  1.0000
  H   H1084     1.0  0.07997  0.14445  0.05763  1.0000
  C   C911      1.0  0.07341  0.33277  0.33534  1.0000
  C   C912      1.0  0.09073  0.29774  0.08843  1.0000
  C   C913      1.0  0.02560  0.27834  0.33041  1.0000
  H   H1085     1.0  0.18402  0.32811  0.02441  1.0000
  H   H1086     1.0  0.28843  0.23033  0.03481  1.0000
  H   H1087     1.0  0.30071  0.10690  0.38858  1.0000
  C   C914      1.0  0.02718  0.31154  0.49975  1.0000
  C   C915      1.0  0.87455  0.27979  0.15275  1.0000
  S   S243      1.0  0.20843  0.09730  0.12059  1.0000
  Fe  Fe120     1.0  0.81263  0.23948  0.09545  1.0000
  H   H1088     1.0  0.02494  0.12257  0.39915  1.0000
  H   H1089     1.0  0.91696  0.23557  0.02153  1.0000
  H   H1090     1.0  0.18109  0.36333  0.36313  1.0000
  Fe  Fe121     1.0  0.83438  0.18093  0.30787  1.0000
  C   C916      1.0  0.26678  0.10745  0.07046  1.0000
  H   H1091     1.0  0.09978  0.30943  0.32079  1.0000
  C   C917      1.0  0.99593  0.35586  0.34445  1.0000
  C   C918      1.0  0.27994  0.36653  0.27698  1.0000
  H   H1092     1.0  0.11360  0.21674  0.24966  1.0000
  H   H1093     1.0  0.93962  0.24169  0.06267  1.0000
  Fe  Fe122     1.0  0.13803  0.25955  0.42159  1.0000
  S   S244      1.0  0.05402  0.07039  0.23229  1.0000
  Fe  Fe123     1.0  0.89984  0.20002  0.36044  1.0000
  H   H1094     1.0  0.25164  0.37013  0.29415  1.0000
  C   C919      1.0  0.18276  0.28272  0.28351  1.0000
  H   H1095     1.0  0.02573  0.16144  0.49530  1.0000
  H   H1096     1.0  0.25204  0.20233  0.07910  1.0000
  C   C920      1.0  0.06865  0.29580  0.48525  1.0000
  H   H1097     1.0  0.30445  0.26760  0.40259  1.0000
  H   H1098     1.0  0.26204  0.14599  0.28914  1.0000
  C   C921      1.0  0.88627  0.23794  0.20237  1.0000
  H   H1099     1.0  0.05320  0.31400  0.27131  1.0000
  H   H1100     1.0  0.92850  0.14115  0.19026  1.0000
  S   S245      1.0  0.09971  0.18399  0.12134  1.0000
  C   C922      1.0  0.09240  0.28587  0.02646  1.0000
  S   S246      1.0  0.08826  0.27507  0.19659  1.0000
  H   H1101     1.0  0.28474  0.10486  0.17087  1.0000
  H   H1102     1.0  0.84489  0.33833  0.25629  1.0000
  C   C923      1.0  0.20329  0.26251  0.14918  1.0000
  C   C924      1.0  0.26493  0.16485  0.49741  1.0000
  H   H1103     1.0  0.22324  0.08600  0.19262  1.0000
  C   C925      1.0  0.10827  0.36673  0.14139  1.0000
  H   H1104     1.0  0.83582  0.23135  0.16644  1.0000
  H   H1105     1.0  0.29655  0.32191  0.46239  1.0000
  H   H1106     1.0  0.99902  0.27253  0.03643  1.0000
  C   C926      1.0  0.24722  0.22890  0.09925  1.0000
  H   H1107     1.0  0.26678  0.09918  0.42458  1.0000
  H   H1108     1.0  0.80953  0.14263  0.46804  1.0000
  H   H1109     1.0  0.02721  0.36856  0.28393  1.0000
  H   H1110     1.0  0.24145  0.15197  0.17347  1.0000
  C   C927      1.0  0.02607  0.33338  0.28774  1.0000
  C   C928      1.0  0.13160  0.24400  0.25229  1.0000
  Fe  Fe124     1.0  0.90395  0.23370  0.29051  1.0000
  C   C929      1.0  0.05517  0.15469  0.04000  1.0000
  H   H1111     1.0  0.98374  0.11495  0.47066  1.0000
  S   S247      1.0  0.82718  0.20973  0.36230  1.0000
  S   S248      1.0  0.99639  0.13365  0.08677  1.0000
  Fe  Fe125     1.0  0.83099  0.27398  0.34081  1.0000
  S   S249      1.0  0.08780  0.08373  0.14010  1.0000
  C   C930      1.0  0.09813  0.26931  0.05834  1.0000
  H   H1112     1.0  0.03717  0.32801  0.14594  1.0000
  H   H1113     1.0  0.99494  0.32517  0.27749  1.0000
  C   C931      1.0  0.07788  0.34395  0.08740  1.0000
  S   S250      1.0  0.20452  0.27747  0.41519  1.0000
  H   H1114     1.0  0.17605  0.26275  0.16692  1.0000
  Fe  Fe126     1.0  0.08474  0.20498  0.17710  1.0000
  S   S251      1.0  0.02579  0.17165  0.17983  1.0000
  H   H1115     1.0  0.95565  0.08288  0.14810  1.0000
  S   S252      1.0  0.93258  0.16820  0.40460  1.0000
  Fe  Fe127     1.0  0.04550  0.14437  0.12592  1.0000
  C   C932      1.0  0.10020  0.27248  0.50463  1.0000
  C   C933      1.0  0.22982  0.29485  0.15343  1.0000
  C   C934      1.0  0.92224  0.27983  0.46835  1.0000
  C   C935      1.0  0.05630  0.14050  0.49891  1.0000
  S   S253      1.0  0.83161  0.24626  0.28615  1.0000
  C   C936      1.0  0.21805  0.10003  0.29168  1.0000
  C   C937      1.0  0.98039  0.16093  0.02341  1.0000
  H   H1116     1.0  0.20927  0.21645  0.50400  1.0000
  Fe  Fe128     1.0  0.14068  0.12493  0.13979  1.0000
  C   C938      1.0  0.90085  0.32298  0.01184  1.0000
  C   C939      1.0  0.88610  0.06963  0.18381  1.0000
  H   H1117     1.0  0.07783  0.32824  0.36302  1.0000
  C   C940      1.0  0.29693  0.08482  0.40914  1.0000
  H   H1118     1.0  0.87676  0.21412  0.21855  1.0000
  H   H1119     1.0  0.99977  0.35570  0.37257  1.0000
  H   H1120     1.0  0.07304  0.13995  0.41634  1.0000
  H   H1121     1.0  0.28568  0.31936  0.13572  1.0000
  H   H1122     1.0  0.96227  0.12120  0.22401  1.0000
  Fe  Fe129     1.0  0.07293  0.11393  0.19377  1.0000
  C   C941      1.0  0.87142  0.35735  0.25057  1.0000
  C   C942      1.0  0.12484  0.27735  0.22991  1.0000
  H   H1123     1.0  0.13248  0.26075  0.49367  1.0000
  C   C943      1.0  0.87934  0.36728  0.01821  1.0000
  C   C944      1.0  0.90985  0.30107  0.16124  1.0000
  H   H1124     1.0  0.00223  0.36676  0.12303  1.0000
  H   H1125     1.0  0.29140  0.09465  0.08771  1.0000
  H   H1126     1.0  0.88444  0.26516  0.05639  1.0000
  H   H1127     1.0  0.19292  0.34408  0.26426  1.0000
  C   C945      1.0  0.07924  0.33087  0.02453  1.0000
  C   C946      1.0  0.93106  0.11853  0.21116  1.0000
  H   H1128     1.0  0.28752  0.21214  0.21654  1.0000
  H   H1129     1.0  0.88051  0.07663  0.25797  1.0000
  H   H1130     1.0  0.11453  0.33330  0.15052  1.0000
  H   H1131     1.0  0.93487  0.26181  0.41433  1.0000
  Fe  Fe130     1.0  0.82421  0.16099  0.04251  1.0000
  H   H1132     1.0  0.98798  0.32285  0.01563  1.0000
  H   H1133     1.0  0.94716  0.15653  0.02867  1.0000
  H   H1134     1.0  0.23230  0.20554  0.22668  1.0000
  H   H1135     1.0  0.09124  0.14515  0.26054  1.0000
  H   H1136     1.0  0.19163  0.20413  0.11921  1.0000
  C   C947      1.0  0.09224  0.12150  0.27940  1.0000
  C   C948      1.0  0.91638  0.19077  0.47302  1.0000
  C   C949      1.0  0.09433  0.06069  0.32856  1.0000
  C   C950      1.0  0.16070  0.24654  0.27894  1.0000
  H   H1137     1.0  0.28401  0.31456  0.05349  1.0000
  C   C951      1.0  0.19714  0.06656  0.23823  1.0000
  H   H1138     1.0  0.90082  0.33755  0.08209  1.0000
  C   C952      1.0  0.93348  0.32810  0.06912  1.0000
  H   H1139     1.0  0.21454  0.10451  0.31935  1.0000
  C   C953      1.0  0.22314  0.09074  0.22018  1.0000
  C   C954      1.0  0.00308  0.08529  0.45667  1.0000
  H   H1140     1.0  0.12920  0.06278  0.06190  1.0000
  C   C955      1.0  0.91759  0.25915  0.04440  1.0000
  H   H1141     1.0  0.22800  0.05771  0.38115  1.0000
  H   H1142     1.0  0.87932  0.09113  0.16241  1.0000
  C   C956      1.0  0.14700  0.31342  0.23444  1.0000
  H   H1143     1.0  0.83050  0.37698  0.31139  1.0000
  S   S254      1.0  0.13238  0.23520  0.36690  1.0000
  H   H1144     1.0  0.95484  0.30960  0.08720  1.0000
  C   C957      1.0  0.86331  0.24753  0.17286  1.0000
  C   C958      1.0  0.07471  0.08271  0.27241  1.0000
  C   C959      1.0  0.26708  0.19254  0.23072  1.0000
  S   S255      1.0  0.83645  0.16738  0.09894  1.0000
  S   S256      1.0  0.84271  0.29599  0.11849  1.0000
  H   H1145     1.0  0.87183  0.35991  0.22242  1.0000
  C   C960      1.0  0.92810  0.25016  0.43884  1.0000
  S   S257      1.0  0.94751  0.25152  0.24941  1.0000
  H   H1146     1.0  0.00237  0.32875  0.48470  1.0000
  H   H1147     1.0  0.98321  0.07610  0.43468  1.0000
  H   H1148     1.0  0.13821  0.37181  0.12722  1.0000
  H   H1149     1.0  0.82066  0.30512  0.42067  1.0000
  C   C961      1.0  0.24772  0.13404  0.01537  1.0000
  H   H1150     1.0  0.03113  0.24990  0.27673  1.0000
  C   C962      1.0  0.24426  0.12429  0.27404  1.0000
  C   C963      1.0  0.92525  0.20561  0.44120  1.0000
  S   S258      1.0  0.90702  0.16552  0.30740  1.0000
  C   C964      1.0  0.90957  0.22059  0.50235  1.0000
  H   H1151     1.0  0.27312  0.20015  0.25826  1.0000
  Fe  Fe131     1.0  0.20054  0.24862  0.36099  1.0000
  C   C965      1.0  0.27487  0.13981  0.18159  1.0000
  H   H1152     1.0  0.94713  0.35866  0.06546  1.0000
  H   H1153     1.0  0.00601  0.05827  0.47399  1.0000
  C   C966      1.0  0.02131  0.26601  0.36431  1.0000
  S   S259      1.0  0.23126  0.18046  0.37148  1.0000
  C   C967      1.0  0.07193  0.35959  0.05441  1.0000
  H   H1154     1.0  0.91825  0.32641  0.14601  1.0000
  C   C968      1.0  0.07229  0.10388  0.47503  1.0000
  H   H1155     1.0  0.92385  0.31438  0.46645  1.0000
  C   C969      1.0  0.97562  0.29177  0.02012  1.0000
  H   H1156     1.0  0.15713  0.13389  0.06568  1.0000
  H   H1157     1.0  0.29582  0.26400  0.45638  1.0000
  H   H1158     1.0  0.14206  0.33920  0.21712  1.0000
  C   C970      1.0  0.24779  0.12022  0.23763  1.0000
  S   S260      1.0  0.21704  0.28788  0.31810  1.0000
  H   H1159     1.0  0.88433  0.38788  0.04099  1.0000
  H   H1160     1.0  0.90420  0.13180  0.23016  1.0000
  H   H1161     1.0  0.10783  0.23413  0.05967  1.0000
  C   C971      1.0  0.11331  0.09861  0.33507  1.0000
  H   H1162     1.0  0.90262  0.33718  0.25668  1.0000
  H   H1163     1.0  0.09466  0.28322  0.11260  1.0000
  C   C972      1.0  0.03170  0.36260  0.13870  1.0000
  N   N62       1.0  0.93120  0.30122  0.03610  1.0000
  H   H1164     1.0  0.82125  0.17153  0.23418  1.0000
  N   N63       1.0  0.92952  0.07222  0.19795  1.0000
  C   C973      1.0  0.91245  0.26510  0.50000  1.0000
  S   S261      1.0  0.14329  0.10401  0.37189  1.0000
  C   C974      1.0  0.81093  0.12677  0.44230  1.0000
  H   H1165     1.0  0.87695  0.09514  0.44847  1.0000
  C   C975      1.0  0.11115  0.12976  0.31094  1.0000
  S   S262      1.0  0.90342  0.26752  0.34368  1.0000
  H   H1166     1.0  0.96148  0.30630  0.19634  1.0000
  H   H1167     1.0  0.85919  0.08035  0.20329  1.0000
  C   C976      1.0  0.17610  0.31597  0.26102  1.0000
  H   H1168     1.0  0.23073  0.38394  0.37159  1.0000
  C   C977      1.0  0.17968  0.38333  0.48825  1.0000
  H   H1169     1.0  0.16605  0.22038  0.29586  1.0000
  C   C978      1.0  0.27514  0.26126  0.10286  1.0000
  S   S263      1.0  0.13070  0.14900  0.19519  1.0000
  C   C979      1.0  0.20362  0.14007  0.02543  1.0000
  C   C980      1.0  0.04112  0.13063  0.42339  1.0000
  C   C981      1.0  0.85003  0.09959  0.43140  1.0000
  C   C982      1.0  0.19114  0.12965  0.05809  1.0000
  Fe  Fe132     1.0  0.22807  0.20752  0.42658  1.0000
  H   H1170     1.0  0.12572  0.15914  0.31581  1.0000
  H   H1171     1.0  0.07859  0.36684  0.33103  1.0000
  C   C983      1.0  0.01202  0.19211  0.34317  1.0000
  N   N64       1.0  0.03013  0.32424  0.32433  1.0000
  H   H1172     1.0  0.02329  0.28888  0.38646  1.0000
  H   H1173     1.0  0.01509  0.17843  0.28845  1.0000
  C   C984      1.0  0.01758  0.20273  0.30972  1.0000
  S   S264      1.0  0.08132  0.30796  0.44369  1.0000
  C   C985      1.0  0.01201  0.14997  0.04720  1.0000
  C   C986      1.0  0.02588  0.24461  0.30332  1.0000
  H   H1174     1.0  0.02072  0.16043  0.43653  1.0000
  C   C987      1.0  0.01463  0.22352  0.37044  1.0000
  S   S265      1.0  0.28337  0.18131  0.45870  1.0000
  H   H1175     1.0  0.01061  0.21530  0.39651  1.0000
  Fe  Fe133     1.0  0.16316  0.16987  0.38269  1.0000
  N   N65       1.0  0.04664  0.09309  0.44503  1.0000
  C   C988      1.0  0.82155  0.08586  0.37551  1.0000
  H   H1176     1.0  0.02431  0.38424  0.16303  1.0000
  H   H1177     1.0  0.29991  0.29831  0.28546  1.0000
  C   C989      1.0  0.27920  0.11854  0.03816  1.0000
  H   H1178     1.0  0.82594  0.07078  0.34934  1.0000
  N   N66       1.0  0.27741  0.14463  0.21954  1.0000
  C   C990      1.0  0.11383  0.07967  0.48101  1.0000
  C   C991      1.0  0.19547  0.07043  0.27381  1.0000
  C   C992      1.0  0.85528  0.07914  0.39813  1.0000
  C   C993      1.0  0.26543  0.29419  0.13081  1.0000
  H   H1179     1.0  0.22548  0.32907  0.50304  1.0000
  H   H1180     1.0  0.99555  0.06389  0.17752  1.0000
  H   H1181     1.0  0.29731  0.15882  0.16885  1.0000
  H   H1182     1.0  0.30543  0.36514  0.41908  1.0000
  H   H1183     1.0  0.88592  0.05881  0.38961  1.0000
  C   C994      1.0  0.96226  0.06056  0.16904  1.0000
  H   H1184     1.0  0.19430  0.38094  0.40627  1.0000
  H   H1185     1.0  0.88743  0.37180  0.31657  1.0000
  H   H1186     1.0  0.26751  0.06109  0.34803  1.0000
  C   C995      1.0  0.19544  0.38864  0.37910  1.0000
  C   C996      1.0  0.19369  0.34879  0.50812  1.0000
  H   H1187     1.0  0.03894  0.35957  0.72705  1.0000
  C   C997      1.0  0.07573  0.12985  0.74653  1.0000
  H   H1188     1.0  0.27092  0.22731  0.73412  1.0000
  H   H1189     1.0  0.86060  0.30229  0.93219  1.0000
  C   C998      1.0  0.19647  0.33529  0.99977  1.0000
  H   H1190     1.0  0.28677  0.33099  0.72861  1.0000
  C   C999      1.0  0.99107  0.18009  0.99383  1.0000
  C   C1000     1.0  0.90149  0.11268  0.75938  1.0000
  H   H1191     1.0  0.00903  0.22184  0.86115  1.0000
  C   C1001     1.0  0.93899  0.19860  0.64647  1.0000
  C   C1002     1.0  0.21374  0.17542  0.54618  1.0000
  C   C1003     1.0  0.01783  0.30593  0.53402  1.0000
  H   H1192     1.0  0.09855  0.06749  0.66154  1.0000
  H   H1193     1.0  0.88215  0.08072  0.81916  1.0000
  H   H1194     1.0  0.95082  0.28497  0.88041  1.0000
  H   H1195     1.0  0.99542  0.22456  0.81696  1.0000
  S   S266      1.0  0.87162  0.11766  0.00522  1.0000
  S   S267      1.0  0.22401  0.16524  0.88481  1.0000
  H   H1196     1.0  0.09877  0.32387  0.76068  1.0000
  H   H1197     1.0  0.97613  0.14029  0.81565  1.0000
  H   H1198     1.0  0.09929  0.17752  0.00481  1.0000
  C   C1004     1.0  0.09819  0.37704  0.89936  1.0000
  H   H1199     1.0  0.08305  0.28923  0.81222  1.0000
  Fe  Fe134     1.0  0.20825  0.16362  0.94081  1.0000
  C   C1005     1.0  0.03363  0.18709  0.98754  1.0000
  C   C1006     1.0  0.27425  0.11515  0.54253  1.0000
  H   H1200     1.0  0.96610  0.19064  0.97625  1.0000
  Fe  Fe135     1.0  0.16840  0.17246  0.62750  1.0000
  H   H1201     1.0  0.10778  0.35777  0.56359  1.0000
  S   S268      1.0  0.05116  0.14411  0.70853  1.0000
  H   H1202     1.0  0.82674  0.19277  0.97289  1.0000
  C   C1007     1.0  0.29005  0.26841  0.61142  1.0000
  S   S269      1.0  0.04461  0.21763  0.95364  1.0000
  C   C1008     1.0  0.95630  0.14172  0.79237  1.0000
  C   C1009     1.0  0.07981  0.15138  0.52749  1.0000
  C   C1010     1.0  0.97366  0.21247  0.66518  1.0000
  H   H1203     1.0  0.94383  0.32501  0.68366  1.0000
  H   H1204     1.0  0.09740  0.26370  0.00322  1.0000
  H   H1205     1.0  0.27835  0.32589  0.68433  1.0000
  H   H1206     1.0  0.84180  0.10260  0.91607  1.0000
  C   C1011     1.0  0.01488  0.23824  0.83746  1.0000
  H   H1207     1.0  0.96045  0.13019  0.90330  1.0000
  S   S270      1.0  0.09700  0.17125  0.62347  1.0000
  S   S271      1.0  0.16893  0.23137  0.94751  1.0000
  C   C1012     1.0  0.92468  0.24539  0.71251  1.0000
  H   H1208     1.0  0.96217  0.36102  0.74611  1.0000
  C   C1013     1.0  0.19762  0.28909  0.82567  1.0000
  C   C1014     1.0  0.28869  0.22340  0.60577  1.0000
  C   C1015     1.0  0.07364  0.08844  0.75790  1.0000
  C   C1016     1.0  0.23496  0.31051  0.98503  1.0000
  C   C1017     1.0  0.17396  0.36942  0.98292  1.0000
  N   N67       1.0  0.30300  0.16566  0.70789  1.0000
  C   C1018     1.0  0.22775  0.35350  0.93595  1.0000
  H   H1209     1.0  0.95426  0.36453  0.91208  1.0000
  C   C1019     1.0  0.10039  0.37642  0.86378  1.0000
  H   H1210     1.0  0.17520  0.22667  0.81769  1.0000
  C   C1020     1.0  0.09691  0.07502  0.78637  1.0000
  H   H1211     1.0  0.29252  0.08692  0.55321  1.0000
  H   H1212     1.0  0.21979  0.35185  0.82566  1.0000
  H   H1213     1.0  0.30561  0.37433  0.77091  1.0000
  H   H1214     1.0  0.90147  0.20931  0.52672  1.0000
  H   H1215     1.0  0.26096  0.29101  0.62058  1.0000
  H   H1216     1.0  0.12098  0.35392  0.91204  1.0000
  C   C1021     1.0  0.28709  0.24625  0.93100  1.0000
  S   S272      1.0  0.16248  0.24549  0.62435  1.0000
  C   C1022     1.0  0.16702  0.34007  0.53487  1.0000
  H   H1217     1.0  0.21702  0.35343  0.76312  1.0000
  C   C1023     1.0  0.12130  0.14578  0.79381  1.0000
  H   H1218     1.0  0.11563  0.25031  0.55439  1.0000
  C   C1024     1.0  0.25225  0.31930  0.95289  1.0000
  H   H1219     1.0  0.91901  0.10836  0.84421  1.0000
  C   C1025     1.0  0.97868  0.32688  0.79090  1.0000
  H   H1220     1.0  0.11749  0.36901  0.64866  1.0000
  H   H1221     1.0  0.19101  0.06708  0.75773  1.0000
  H   H1222     1.0  0.17208  0.22860  0.75421  1.0000
  S   S273      1.0  0.82494  0.28240  0.61188  1.0000
  H   H1223     1.0  0.18493  0.19376  0.55947  1.0000
  H   H1224     1.0  0.99064  0.32570  0.65643  1.0000
  S   S274      1.0  0.08318  0.25566  0.68329  1.0000
  C   C1026     1.0  0.25801  0.10325  0.70024  1.0000
  H   H1225     1.0  0.96440  0.11189  0.63522  1.0000
  H   H1226     1.0  0.28490  0.30467  0.88477  1.0000
  C   C1027     1.0  0.89314  0.30013  0.98006  1.0000
  H   H1227     1.0  0.01010  0.13777  0.62539  1.0000
  C   C1028     1.0  0.80777  0.33765  0.72146  1.0000
  H   H1228     1.0  0.94758  0.23244  0.58666  1.0000
  H   H1229     1.0  0.26903  0.09446  0.67386  1.0000
  H   H1230     1.0  0.97669  0.27237  0.99487  1.0000
  C   C1029     1.0  0.25382  0.14769  0.75467  1.0000
  C   C1030     1.0  0.96804  0.19962  0.58855  1.0000
  C   C1031     1.0  0.88989  0.23248  0.69479  1.0000
  C   C1032     1.0  0.02869  0.30294  0.87174  1.0000
  H   H1231     1.0  0.93219  0.36088  0.59422  1.0000
  H   H1232     1.0  0.04975  0.22794  0.82952  1.0000
  H   H1233     1.0  0.94155  0.09571  0.95507  1.0000
  S   S275      1.0  0.89957  0.30271  0.53606  1.0000
  H   H1234     1.0  0.00675  0.20524  0.65495  1.0000
  H   H1235     1.0  0.06428  0.29283  0.86709  1.0000
  H   H1236     1.0  0.81557  0.30546  0.73080  1.0000
  H   H1237     1.0  0.30029  0.06938  0.89038  1.0000
  N   N68       1.0  0.29336  0.29278  0.93806  1.0000
  C   C1033     1.0  0.18427  0.25421  0.80557  1.0000
  H   H1238     1.0  0.94423  0.30533  0.63892  1.0000
  C   C1034     1.0  0.86542  0.32021  0.95642  1.0000
  C   C1035     1.0  0.06512  0.32446  0.76907  1.0000
  Fe  Fe136     1.0  0.09067  0.24481  0.62610  1.0000
  C   C1036     1.0  0.88784  0.38026  0.65136  1.0000
  H   H1239     1.0  0.25322  0.21524  0.69161  1.0000
  H   H1240     1.0  0.14032  0.16764  0.80712  1.0000
  H   H1241     1.0  0.93533  0.28118  0.83701  1.0000
  C   C1037     1.0  0.03152  0.34457  0.75009  1.0000
  H   H1242     1.0  0.90920  0.26673  0.97286  1.0000
  H   H1243     1.0  0.98918  0.36544  0.96777  1.0000
  H   H1244     1.0  0.88208  0.08539  0.75482  1.0000
  H   H1245     1.0  0.30485  0.23341  0.69843  1.0000
  C   C1038     1.0  0.84488  0.36363  0.96341  1.0000
  C   C1039     1.0  0.20860  0.32545  0.77470  1.0000
  C   C1040     1.0  0.90401  0.18087  0.90858  1.0000
  H   H1246     1.0  0.87598  0.36978  0.67589  1.0000
  H   H1247     1.0  0.00059  0.20579  0.59668  1.0000
  H   H1248     1.0  0.23757  0.36200  0.91104  1.0000
  Fe  Fe137     1.0  0.18007  0.23025  0.89085  1.0000
  C   C1041     1.0  0.01221  0.30686  0.81130  1.0000
  H   H1249     1.0  0.02174  0.33954  0.87611  1.0000
  S   S276      1.0  0.19463  0.29423  0.70989  1.0000
  C   C1042     1.0  0.92058  0.12441  0.94785  1.0000
  H   H1250     1.0  0.98434  0.06887  0.83710  1.0000
  H   H1251     1.0  0.25849  0.21111  0.61043  1.0000
  C   C1043     1.0  0.12634  0.36610  0.54213  1.0000
  C   C1044     1.0  0.90804  0.16094  0.59640  1.0000
  H   H1252     1.0  0.88415  0.19065  0.59197  1.0000
  S   S277      1.0  0.12012  0.20276  0.87740  1.0000
  C   C1045     1.0  0.12141  0.10331  0.80405  1.0000
  N   N69       1.0  0.93001  0.10553  0.78900  1.0000
  Fe  Fe138     1.0  0.83421  0.31548  0.80238  1.0000
  C   C1046     1.0  0.95646  0.29719  0.85493  1.0000
  C   C1047     1.0  0.22561  0.12169  0.76786  1.0000
  S   S278      1.0  0.85820  0.36561  0.77187  1.0000
  C   C1048     1.0  0.94868  0.38128  0.61306  1.0000
  H   H1253     1.0  0.84484  0.22670  0.92050  1.0000
  H   H1254     1.0  0.06714  0.17977  0.54515  1.0000
  C   C1049     1.0  0.96003  0.06289  0.78526  1.0000
  C   C1050     1.0  0.90103  0.10852  0.82009  1.0000
  N   N70       1.0  0.94770  0.17321  0.61249  1.0000
  C   C1051     1.0  0.27144  0.13890  0.72058  1.0000
  H   H1255     1.0  0.87720  0.13974  0.82277  1.0000
  C   C1052     1.0  0.18252  0.25540  0.76978  1.0000
  C   C1053     1.0  0.12005  0.12654  0.53287  1.0000
  C   C1054     1.0  0.93114  0.14385  0.91838  1.0000
  H   H1256     1.0  0.85737  0.23996  0.70637  1.0000
  S   S279      1.0  0.15069  0.12871  0.93241  1.0000
  C   C1055     1.0  0.19480  0.29129  0.75439  1.0000
  H   H1257     1.0  0.99386  0.24418  0.71194  1.0000
  S   S280      1.0  0.16667  0.17581  0.68482  1.0000
  H   H1258     1.0  0.94454  0.33339  0.85753  1.0000
  C   C1056     1.0  0.09916  0.15882  0.76467  1.0000
  S   S281      1.0  0.84086  0.31944  0.85924  1.0000
  H   H1259     1.0  0.80945  0.09852  0.65994  1.0000
  S   S282      1.0  0.26437  0.14556  0.97453  1.0000
  C   C1057     1.0  0.85624  0.17952  0.95822  1.0000
  C   C1058     1.0  0.04979  0.28449  0.55389  1.0000
  C   C1059     1.0  0.20986  0.32459  0.81020  1.0000
  Fe  Fe139     1.0  0.86025  0.24601  0.85123  1.0000
  C   C1060     1.0  0.23716  0.13893  0.56015  1.0000
  H   H1260     1.0  0.82446  0.37948  0.94449  1.0000
  H   H1261     1.0  0.98609  0.31943  0.54537  1.0000
  C   C1061     1.0  0.86620  0.19840  0.92821  1.0000
  C   C1062     1.0  0.05575  0.30529  0.79895  1.0000
  H   H1262     1.0  0.13836  0.13504  0.55491  1.0000
  H   H1263     1.0  0.87754  0.14373  0.76379  1.0000
  C   C1063     1.0  0.18940  0.37822  0.95098  1.0000
  H   H1264     1.0  0.28329  0.11600  0.82379  1.0000
  H   H1265     1.0  0.87523  0.35878  0.63091  1.0000
  H   H1266     1.0  0.26179  0.17485  0.77139  1.0000
  H   H1267     1.0  0.94451  0.32905  0.79769  1.0000
  Fe  Fe140     1.0  0.09439  0.18196  0.68067  1.0000
  H   H1268     1.0  0.17793  0.31325  0.55042  1.0000
  S   S283      1.0  0.03831  0.28285  0.59763  1.0000
  C   C1064     1.0  0.22900  0.07804  0.71360  1.0000
  N   N71       1.0  0.00297  0.28686  0.84326  1.0000
  H   H1269     1.0  0.27752  0.23153  0.95437  1.0000
  H   H1270     1.0  0.07396  0.34370  0.99973  1.0000
  H   H1271     1.0  0.97917  0.14009  0.76978  1.0000
  C   C1065     1.0  0.09077  0.26684  0.53908  1.0000
  C   C1066     1.0  0.89671  0.20945  0.66230  1.0000
  C   C1067     1.0  0.13724  0.09119  0.50949  1.0000
  H   H1272     1.0  0.26130  0.24356  0.91219  1.0000
  C   C1068     1.0  0.82322  0.37376  0.73802  1.0000
  H   H1273     1.0  0.12533  0.35354  0.84899  1.0000
  C   C1069     1.0  0.29860  0.34063  0.70378  1.0000
  H   H1274     1.0  0.27943  0.38308  0.64940  1.0000
  C   C1070     1.0  0.22738  0.18813  0.51465  1.0000
  H   H1275     1.0  0.93543  0.17461  0.79469  1.0000
  H   H1276     1.0  0.98413  0.11071  0.59147  1.0000
  H   H1277     1.0  0.92051  0.11571  0.73551  1.0000
  S   S284      1.0  0.15569  0.08362  0.83628  1.0000
  Fe  Fe141     1.0  0.11279  0.19704  0.93350  1.0000
  H   H1278     1.0  0.97290  0.18282  0.56215  1.0000
  H   H1279     1.0  0.91917  0.26348  0.73760  1.0000
  S   S285      1.0  0.19758  0.29040  0.87033  1.0000
  H   H1280     1.0  0.25666  0.06270  0.86273  1.0000
  C   C1071     1.0  0.96657  0.23505  0.69784  1.0000
  H   H1281     1.0  0.02108  0.28929  0.89631  1.0000
  H   H1282     1.0  0.89173  0.13961  0.61246  1.0000
  H   H1283     1.0  0.10079  0.19097  0.75595  1.0000
  Fe  Fe142     1.0  0.15586  0.24882  0.68159  1.0000
  H   H1284     1.0  0.91558  0.14197  0.57093  1.0000
  H   H1285     1.0  0.21306  0.12859  0.79411  1.0000
  C   C1072     1.0  0.88372  0.14271  0.96830  1.0000
  S   S286      1.0  0.86014  0.24348  0.79409  1.0000
  C   C1073     1.0  0.98841  0.34538  0.76081  1.0000
  Fe  Fe143     1.0  0.83599  0.29008  0.55647  1.0000
  H   H1286     1.0  0.98391  0.37027  0.60705  1.0000
  H   H1287     1.0  0.29625  0.24538  0.80696  1.0000
  Fe  Fe144     1.0  0.16257  0.13723  0.87683  1.0000
  S   S287      1.0  0.22124  0.12310  0.59994  1.0000
  H   H1288     1.0  0.03573  0.38646  0.55570  1.0000
  H   H1289     1.0  0.25094  0.28405  0.99877  1.0000
  C   C1074     1.0  0.97790  0.13167  0.61622  1.0000
  H   H1290     1.0  0.86831  0.20043  0.65017  1.0000
  S   S288      1.0  0.91756  0.20421  0.87138  1.0000
  C   C1075     1.0  0.21312  0.08702  0.74738  1.0000
  H   H1291     1.0  0.11229  0.36418  0.71110  1.0000
  C   C1076     1.0  0.95444  0.33099  0.65738  1.0000
  C   C1077     1.0  0.28845  0.12847  0.51141  1.0000
  N   N72       1.0  0.93608  0.37599  0.64917  1.0000
  C   C1078     1.0  0.28206  0.21228  0.70796  1.0000
  H   H1292     1.0  0.17917  0.15239  0.00797  1.0000
  C   C1079     1.0  0.83105  0.06989  0.91638  1.0000
  H   H1293     1.0  0.05567  0.06594  0.74382  1.0000
  H   H1294     1.0  0.29404  0.15328  0.65377  1.0000
  C   C1080     1.0  0.85191  0.38708  0.99420  1.0000
  H   H1295     1.0  0.16927  0.07315  0.51316  1.0000
  H   H1296     1.0  0.97656  0.06822  0.00670  1.0000
