data_image0
_chemical_formula_structural       H2CH2SH3CH3CHCH2CNHCHCHC2HCSH2C3HCH4C2H2C2H2SC3SCH2C6H2CNH2C2HC3H4CHCH2C2H5C2HS2FeSFe3SFeSH4SC5H2C6H4C6H4NC5HCHSH3NCH2CHCSHCH2C2HC2H4SHCSC2HFeCHCSCFeCSH2CH4C2H4FeH4CH9FeSHFeS2FeSFeS3C6H4C6H7C2H2CNHSH3SCHCHCHCH2C2H4CHC2HCHC2H3C2FeH2CH2CHSH2CH3CH2NCH2CSCH2C2NHSCHFeNC5H2C3HCHNSH4CH6CSCSHFeSFeS2C2HFeS2FeS2FeCFeSFeS2C2HC3H3C4HFeH3SC2HC2HSH3C4H2C3NC7H10C3HCHC2HFeH2C4HCNH2FeHCH2CHS2HCFeSC2HC4H3SHCHCH2CH2SHC2HCH3NH10CH3CHSC2H2CH3CHNFeH5NSC6H2C2H2CHC4HCHFeHSFeS2FeCHSHFeCSNCHSHCSH2C2SC3SH2C6H4C2HC3H3CH5C2H4CHCSHCSFeH3SC2HC3HC2FeCHNSH2C2H3NH2CHC2H3CH2SC2H2CFeCNC2HSH2NH2C2H2CHC3H3CH2NH2CH6CHC2HC2H7CH2C3H2CHC2H2SC2HCS2H2CHSHC3H4C2HCHCHC2NHCSHCH2CH2FeSFeCSCFeCS2Fe2SFeHSNH2SCSHCS2HFeSC4HCH3C3SC2H3SC6H4SHCHC2HCHC2H4CHFeSH4C2HFeH2C2FeS2HCFeSFeCSHCH3Fe2CHSHC2HC4FeH2CNHCH4C3HCH2C4HC2HCNH2CHC3HCH2CH2CH3CHS2CH2SC2HCH2C2HSHSHS
_chemical_formula_sum              "H432 C360 S96 N24 Fe48"
_cell_length_a       43.7424
_cell_length_b       46.8301
_cell_length_c       38.1359
_cell_angle_alpha    89.0991
_cell_angle_beta     89.4418
_cell_angle_gamma    135.443

_space_group_name_H-M_alt    "P 1"
_space_group_IT_number       1

loop_
  _space_group_symop_operation_xyz
  'x, y, z'

loop_
  _atom_site_type_symbol
  _atom_site_label
  _atom_site_symmetry_multiplicity
  _atom_site_fract_x
  _atom_site_fract_y
  _atom_site_fract_z
  _atom_site_occupancy
  H   H1        1.0  0.49531  0.18955  0.25707  1.0000
  H   H2        1.0  0.48570  0.19302  0.19083  1.0000
  C   C1        1.0  0.01234  0.42435  0.01683  1.0000
  H   H3        1.0  0.04803  0.45157  0.01750  1.0000
  H   H4        1.0  0.00630  0.39703  0.02061  1.0000
  S   S1        1.0  0.99881  0.45243  0.11581  1.0000
  H   H5        1.0  0.99799  0.42570  0.04024  1.0000
  H   H6        1.0  0.46996  0.35614  0.49524  1.0000
  H   H7        1.0  0.25415  0.44832  0.55688  1.0000
  C   C2        1.0  0.46889  0.33168  0.49806  1.0000
  H   H8        1.0  0.22520  0.44129  0.65146  1.0000
  H   H9        1.0  0.39512  0.48973  0.64883  1.0000
  H   H10       1.0  0.21662  0.41233  0.61519  1.0000
  C   C3        1.0  0.26350  0.47555  0.56763  1.0000
  H   H11       1.0  0.45836  0.31969  0.52563  1.0000
  C   C4        1.0  0.30266  0.47961  0.61736  1.0000
  H   H12       1.0  0.44308  0.30647  0.48080  1.0000
  H   H13       1.0  0.23779  0.47403  0.56015  1.0000
  C   C5        1.0  0.31128  0.48142  0.65353  1.0000
  N   N1        1.0  0.26859  0.47727  0.60625  1.0000
  H   H14       1.0  0.19930  0.43764  0.61388  1.0000
  C   C6        1.0  0.22570  0.44049  0.62236  1.0000
  H   H15       1.0  0.47987  0.00210  0.37177  1.0000
  C   C7        1.0  0.36182  0.48504  0.60453  1.0000
  H   H16       1.0  0.38201  0.48719  0.58547  1.0000
  C   C8        1.0  0.32911  0.48167  0.59310  1.0000
  C   C9        1.0  0.34424  0.48496  0.66463  1.0000
  H   H17       1.0  0.32597  0.48156  0.56504  1.0000
  C   C10       1.0  0.36937  0.48668  0.64016  1.0000
  S   S2        1.0  0.20146  0.48934  0.67282  1.0000
  H   H18       1.0  0.49726  0.25409  0.55690  1.0000
  H   H19       1.0  0.29299  0.48071  0.67346  1.0000
  C   C11       1.0  0.01356  0.42100  0.95344  1.0000
  C   C12       1.0  0.18347  0.48974  0.71395  1.0000
  C   C13       1.0  0.14083  0.45344  0.76780  1.0000
  H   H20       1.0  0.14075  0.42537  0.72355  1.0000
  C   C14       1.0  0.15391  0.45352  0.73411  1.0000
  H   H21       1.0  0.11403  0.47770  0.91318  1.0000
  H   H22       1.0  0.11744  0.42518  0.78306  1.0000
  H   H23       1.0  0.22864  0.48041  0.79966  1.0000
  H   H24       1.0  0.06935  0.42166  0.87169  1.0000
  C   C15       1.0  0.05936  0.45283  0.94688  1.0000
  C   C16       1.0  0.15810  0.48973  0.78194  1.0000
  H   H25       1.0  0.25170  0.47012  0.76951  1.0000
  H   H26       1.0  0.08044  0.47836  0.96398  1.0000
  C   C17       1.0  0.07904  0.45282  0.91782  1.0000
  C   C18       1.0  0.05389  0.42121  0.89444  1.0000
  H   H27       1.0  0.03757  0.48776  0.97881  1.0000
  H   H28       1.0  0.35088  0.48687  0.69229  1.0000
  S   S3        1.0  0.14108  0.48817  0.82445  1.0000
  C   C19       1.0  0.00895  0.38929  0.90017  1.0000
  C   C20       1.0  0.00220  0.45944  0.98015  1.0000
  C   C21       1.0  0.25183  0.49310  0.77688  1.0000
  S   S4        1.0  0.03839  0.53671  0.04559  1.0000
  C   C22       1.0  0.04998  0.58288  0.30961  1.0000
  H   H29       1.0  0.13284  0.51472  0.05104  1.0000
  H   H30       1.0  0.35996  0.56666  0.02618  1.0000
  C   C23       1.0  0.40701  0.67900  0.04683  1.0000
  C   C24       1.0  0.44373  0.60854  0.02543  1.0000
  C   C25       1.0  0.08192  0.54351  0.03138  1.0000
  C   C26       1.0  0.07117  0.57091  0.30115  1.0000
  C   C27       1.0  0.09277  0.52589  0.04999  1.0000
  C   C28       1.0  0.12501  0.52881  0.03659  1.0000
  H   H31       1.0  0.07642  0.51001  0.07472  1.0000
  H   H32       1.0  0.31176  0.68655  0.03140  1.0000
  C   C29       1.0  0.47538  0.69036  0.02208  1.0000
  N   N2        1.0  0.09020  0.56564  0.32917  1.0000
  H   H33       1.0  0.01658  0.58221  0.22918  1.0000
  H   H34       1.0  0.08636  0.55345  0.25612  1.0000
  C   C30       1.0  0.48402  0.72256  0.03685  1.0000
  C   C31       1.0  0.44990  0.71686  0.04932  1.0000
  H   H35       1.0  0.38050  0.67464  0.05664  1.0000
  C   C32       1.0  0.05320  0.56843  0.23966  1.0000
  C   C33       1.0  0.03244  0.57993  0.24896  1.0000
  C   C34       1.0  0.03083  0.58715  0.28388  1.0000
  H   H36       1.0  0.45672  0.74182  0.06103  1.0000
  H   H37       1.0  0.26341  0.61235  0.02801  1.0000
  H   H38       1.0  0.14880  0.62991  0.32985  1.0000
  H   H39       1.0  0.01357  0.59498  0.29124  1.0000
  C   C35       1.0  0.32119  0.67517  0.01472  1.0000
  H   H40       1.0  0.43263  0.60301  0.05336  1.0000
  C   C36       1.0  0.39796  0.64664  0.03180  1.0000
  H   H41       1.0  0.13958  0.57790  0.29709  1.0000
  H   H42       1.0  0.36401  0.61815  0.03086  1.0000
  C   C37       1.0  0.07223  0.56379  0.26522  1.0000
  C   C38       1.0  0.43204  0.65148  0.01872  1.0000
  H   H43       1.0  0.04722  0.58818  0.33637  1.0000
  H   H44       1.0  0.43482  0.58080  0.01683  1.0000
  H   H45       1.0  0.05303  0.56142  0.21261  1.0000
  H   H46       1.0  0.48004  0.63376  0.02447  1.0000
  H   H47       1.0  0.08908  0.52446  0.30285  1.0000
  C   C39       1.0  0.11235  0.55430  0.31594  1.0000
  C   C40       1.0  0.29394  0.63339  0.01287  1.0000
  H   H48       1.0  0.12655  0.55096  0.33767  1.0000
  S   S5        1.0  0.41812  0.84034  0.56803  1.0000
  S   S6        1.0  0.41823  0.55673  0.53211  1.0000
  Fe  Fe1       1.0  0.26244  0.62295  0.62628  1.0000
  S   S7        1.0  0.24657  0.61689  0.56928  1.0000
  Fe  Fe2       1.0  0.48751  0.87408  0.57636  1.0000
  Fe  Fe3       1.0  0.21749  0.53614  0.63532  1.0000
  Fe  Fe4       1.0  0.26499  0.58268  0.56689  1.0000
  S   S8        1.0  0.30253  0.59102  0.51996  1.0000
  Fe  Fe5       1.0  0.18032  0.55647  0.58619  1.0000
  S   S9        1.0  0.28678  0.59417  0.62232  1.0000
  H   H49       1.0  0.03821  0.54002  0.36684  1.0000
  H   H50       1.0  0.32048  0.55746  0.47369  1.0000
  H   H51       1.0  0.48713  0.56381  0.42415  1.0000
  H   H52       1.0  0.34961  0.69128  0.58538  1.0000
  S   S10       1.0  0.07637  0.57719  0.43413  1.0000
  C   C41       1.0  0.10492  0.54305  0.53286  1.0000
  C   C42       1.0  0.13798  0.57036  0.50752  1.0000
  C   C43       1.0  0.12891  0.58039  0.47705  1.0000
  C   C44       1.0  0.08679  0.56307  0.47179  1.0000
  C   C45       1.0  0.05382  0.53559  0.49702  1.0000
  H   H53       1.0  0.17043  0.58369  0.51138  1.0000
  H   H54       1.0  0.15459  0.60171  0.45763  1.0000
  C   C46       1.0  0.33608  0.58323  0.52468  1.0000
  C   C47       1.0  0.36043  0.59450  0.55472  1.0000
  C   C48       1.0  0.38685  0.58751  0.55724  1.0000
  C   C49       1.0  0.38847  0.56896  0.52979  1.0000
  C   C50       1.0  0.36437  0.55817  0.49984  1.0000
  C   C51       1.0  0.33882  0.56578  0.49710  1.0000
  H   H55       1.0  0.35904  0.60871  0.57584  1.0000
  H   H56       1.0  0.40541  0.59595  0.58045  1.0000
  H   H57       1.0  0.17434  0.61649  0.57448  1.0000
  H   H58       1.0  0.45441  0.69083  0.57080  1.0000
  C   C52       1.0  0.38351  0.79613  0.59470  1.0000
  C   C53       1.0  0.34391  0.76024  0.58186  1.0000
  C   C54       1.0  0.31780  0.72385  0.60196  1.0000
  C   C55       1.0  0.33097  0.72357  0.63511  1.0000
  C   C56       1.0  0.36972  0.75977  0.64845  1.0000
  C   C57       1.0  0.39625  0.79599  0.62813  1.0000
  H   H59       1.0  0.33411  0.76042  0.55598  1.0000
  H   H60       1.0  0.28777  0.69610  0.59167  1.0000
  H   H61       1.0  0.31331  0.54207  0.60911  1.0000
  H   H62       1.0  0.42655  0.82385  0.63829  1.0000
  N   N3        1.0  0.41064  0.71463  0.56535  1.0000
  C   C58       1.0  0.36313  0.68786  0.56307  1.0000
  C   C59       1.0  0.43256  0.75724  0.56804  1.0000
  C   C60       1.0  0.42598  0.71180  0.53192  1.0000
  C   C61       1.0  0.17475  0.67226  0.63021  1.0000
  C   C62       1.0  0.49054  0.93259  0.46831  1.0000
  H   H63       1.0  0.19579  0.70125  0.61428  1.0000
  C   C63       1.0  0.05531  0.53306  0.35452  1.0000
  H   H64       1.0  0.42826  0.76810  0.54426  1.0000
  S   S11       1.0  0.30099  0.67800  0.65942  1.0000
  H   H65       1.0  0.03732  0.61923  0.57743  1.0000
  H   H66       1.0  0.46919  0.98201  0.42991  1.0000
  H   H67       1.0  0.41995  0.76130  0.59068  1.0000
  N   N4        1.0  0.15337  0.63712  0.60750  1.0000
  C   C64       1.0  0.06292  0.52577  0.52747  1.0000
  H   H68       1.0  0.08258  0.62468  0.62003  1.0000
  H   H69       1.0  0.15078  0.66936  0.64536  1.0000
  C   C65       1.0  0.12688  0.63484  0.58134  1.0000
  H   H70       1.0  0.35479  0.69435  0.53876  1.0000
  C   C66       1.0  0.09099  0.62805  0.59251  1.0000
  S   S12       1.0  0.48232  0.55087  0.59591  1.0000
  H   H71       1.0  0.40990  0.68013  0.52776  1.0000
  C   C67       1.0  0.07393  0.62879  0.53251  1.0000
  H   H72       1.0  0.41848  0.72057  0.50881  1.0000
  H   H73       1.0  0.05336  0.62585  0.51376  1.0000
  C   C68       1.0  0.48591  0.97308  0.43345  1.0000
  C   C69       1.0  0.40588  0.70304  0.63070  1.0000
  H   H74       1.0  0.11583  0.63864  0.49267  1.0000
  C   C70       1.0  0.12477  0.59915  0.62973  1.0000
  C   C71       1.0  0.10926  0.63610  0.52067  1.0000
  H   H75       1.0  0.10447  0.57179  0.61323  1.0000
  H   H76       1.0  0.46811  0.77795  0.57131  1.0000
  H   H77       1.0  0.36551  0.54391  0.47855  1.0000
  H   H78       1.0  0.21232  0.67128  0.57576  1.0000
  S   S13       1.0  0.19734  0.52160  0.57934  1.0000
  H   H79       1.0  0.46931  0.67397  0.62374  1.0000
  C   C72       1.0  0.12280  0.60415  0.34813  1.0000
  S   S14       1.0  0.47029  0.60829  0.62464  1.0000
  C   C73       1.0  0.13544  0.63905  0.54453  1.0000
  C   C74       1.0  0.41962  0.70289  0.59686  1.0000
  H   H80       1.0  0.25688  0.51479  0.60808  1.0000
  Fe  Fe6       1.0  0.46872  0.58536  0.57320  1.0000
  C   C75       1.0  0.41453  0.69277  0.66094  1.0000
  H   H81       1.0  0.34546  0.65549  0.56304  1.0000
  C   C76       1.0  0.06491  0.62495  0.56837  1.0000
  S   S15       1.0  0.19467  0.56567  0.64367  1.0000
  C   C77       1.0  0.18824  0.64228  0.59153  1.0000
  Fe  Fe7       1.0  0.49133  0.58004  0.64661  1.0000
  C   C78       1.0  0.44235  0.69159  0.59523  1.0000
  S   S16       1.0  0.11456  0.53033  0.57208  1.0000
  H   H82       1.0  0.16161  0.64385  0.53333  1.0000
  H   H83       1.0  0.06848  0.52887  0.37658  1.0000
  C   C79       1.0  0.45096  0.68149  0.62566  1.0000
  H   H84       1.0  0.02124  0.52187  0.49321  1.0000
  H   H85       1.0  0.13848  0.60156  0.36899  1.0000
  H   H86       1.0  0.46204  0.73293  0.53108  1.0000
  H   H87       1.0  0.20699  0.64309  0.61185  1.0000
  C   C80       1.0  0.43732  0.68229  0.65843  1.0000
  C   C81       1.0  0.27986  0.51372  0.61811  1.0000
  H   H88       1.0  0.39891  0.59226  0.66761  1.0000
  H   H89       1.0  0.03718  0.50456  0.54692  1.0000
  H   H90       1.0  0.38862  0.71148  0.63403  1.0000
  H   H91       1.0  0.29401  0.50331  0.55392  1.0000
  Fe  Fe8       1.0  0.00725  0.54758  0.42990  1.0000
  H   H92       1.0  0.10792  0.61269  0.36205  1.0000
  H   H93       1.0  0.14379  0.59739  0.64705  1.0000
  H   H94       1.0  0.33849  0.58708  0.67007  1.0000
  H   H95       1.0  0.19577  0.67542  0.64973  1.0000
  C   C82       1.0  0.47010  0.94484  0.46089  1.0000
  H   H96       1.0  0.47876  0.91143  0.49016  1.0000
  H   H97       1.0  0.49352  0.58032  0.50057  1.0000
  H   H98       1.0  0.44245  0.93310  0.47713  1.0000
  H   H99       1.0  0.10208  0.59612  0.64719  1.0000
  H   H100      1.0  0.37983  0.75962  0.67408  1.0000
  H   H101      1.0  0.27838  0.51430  0.64711  1.0000
  H   H102      1.0  0.48389  0.53932  0.48375  1.0000
  H   H103      1.0  0.03040  0.50338  0.34164  1.0000
  H   H104      1.0  0.15289  0.58347  0.96123  1.0000
  Fe  Fe9       1.0  0.20763  0.57058  0.93063  1.0000
  S   S17       1.0  0.17177  0.57077  0.88913  1.0000
  H   H105      1.0  0.40517  0.90002  0.87943  1.0000
  Fe  Fe10      1.0  0.28164  0.60244  0.87963  1.0000
  S   S18       1.0  0.25179  0.60513  0.83424  1.0000
  S   S19       1.0  0.34793  0.62828  0.86731  1.0000
  Fe  Fe11      1.0  0.23828  0.63130  0.87224  1.0000
  S   S20       1.0  0.26058  0.69056  0.85766  1.0000
  Fe  Fe12      1.0  0.18903  0.54471  0.85532  1.0000
  S   S21       1.0  0.46940  0.82479  0.88806  1.0000
  S   S22       1.0  0.27290  0.63304  0.91626  1.0000
  S   S23       1.0  0.39365  0.53368  0.91886  1.0000
  C   C83       1.0  0.35914  0.60086  0.88157  1.0000
  C   C84       1.0  0.39926  0.61550  0.87178  1.0000
  C   C85       1.0  0.40931  0.59424  0.88223  1.0000
  C   C86       1.0  0.37975  0.55864  0.90310  1.0000
  C   C87       1.0  0.33933  0.54375  0.91269  1.0000
  C   C88       1.0  0.32906  0.56495  0.90206  1.0000
  H   H106      1.0  0.42254  0.64315  0.85572  1.0000
  H   H107      1.0  0.43972  0.60519  0.87360  1.0000
  H   H108      1.0  0.41637  0.87694  0.95261  1.0000
  H   H109      1.0  0.29797  0.55347  0.90970  1.0000
  C   C89       1.0  0.29689  0.72574  0.88949  1.0000
  C   C90       1.0  0.33591  0.76532  0.87918  1.0000
  C   C91       1.0  0.36820  0.79137  0.90374  1.0000
  C   C92       1.0  0.36100  0.77822  0.93884  1.0000
  C   C93       1.0  0.32077  0.73979  0.94963  1.0000
  C   C94       1.0  0.28888  0.71344  0.92490  1.0000
  H   H110      1.0  0.34186  0.77533  0.85202  1.0000
  H   H111      1.0  0.39886  0.82142  0.89535  1.0000
  H   H112      1.0  0.31473  0.72971  0.97682  1.0000
  H   H113      1.0  0.25820  0.68331  0.93320  1.0000
  H   H114      1.0  0.36193  0.86991  0.92609  1.0000
  H   H115      1.0  0.38403  0.73595  0.91913  1.0000
  H   H116      1.0  0.44931  0.77028  0.82933  1.0000
  C   C95       1.0  0.42843  0.77162  0.77761  1.0000
  C   C96       1.0  0.49389  0.56978  0.73587  1.0000
  H   H117      1.0  0.37241  0.55558  0.98720  1.0000
  H   H118      1.0  0.22359  0.55429  0.71239  1.0000
  C   C97       1.0  0.20054  0.52613  0.72781  1.0000
  N   N5        1.0  0.42038  0.92543  0.94904  1.0000
  H   H119      1.0  0.37958  0.78436  0.75694  1.0000
  S   S24       1.0  0.22002  0.53983  0.89810  1.0000
  H   H120      1.0  0.45813  0.93144  0.83140  1.0000
  H   H121      1.0  0.27670  0.56361  0.77670  1.0000
  H   H122      1.0  0.40439  0.94155  0.99358  1.0000
  S   S25       1.0  0.40355  0.80805  0.96842  1.0000
  C   C98       1.0  0.31127  0.52538  0.81534  1.0000
  H   H123      1.0  0.33923  0.75430  0.79167  1.0000
  C   C99       1.0  0.36890  0.72808  0.82298  1.0000
  H   H124      1.0  0.49080  0.57693  0.82462  1.0000
  C   C100      1.0  0.47712  0.56467  0.76957  1.0000
  H   H125      1.0  0.32711  0.59231  0.79900  1.0000
  C   C101      1.0  0.45862  0.78139  0.80243  1.0000
  H   H126      1.0  0.42959  0.63659  0.94949  1.0000
  H   H127      1.0  0.33355  0.70828  0.82869  1.0000
  C   C102      1.0  0.36022  0.55270  0.75076  1.0000
  C   C103      1.0  0.44525  0.78895  0.74322  1.0000
  H   H128      1.0  0.47976  0.65754  0.96703  1.0000
  H   H129      1.0  0.20093  0.55416  0.77251  1.0000
  H   H130      1.0  0.37464  0.70862  0.82705  1.0000
  H   H131      1.0  0.36031  0.69360  0.76209  1.0000
  C   C104      1.0  0.35329  0.71223  0.76229  1.0000
  H   H132      1.0  0.38638  0.75195  0.84305  1.0000
  C   C105      1.0  0.30472  0.61853  0.99014  1.0000
  C   C106      1.0  0.29392  0.56122  0.79572  1.0000
  H   H133      1.0  0.46059  0.97309  0.98713  1.0000
  C   C107      1.0  0.38641  0.56817  0.72021  1.0000
  H   H134      1.0  0.27559  0.55149  0.82118  1.0000
  C   C108      1.0  0.37417  0.89764  0.93879  1.0000
  C   C109      1.0  0.31752  0.56119  0.72274  1.0000
  H   H135      1.0  0.37001  0.91348  0.92067  1.0000
  H   H136      1.0  0.29010  0.51462  0.83918  1.0000
  H   H137      1.0  0.45375  0.75508  0.98797  1.0000
  C   C110      1.0  0.42459  0.90105  0.96898  1.0000
  C   C111      1.0  0.44559  0.75761  0.96141  1.0000
  Fe  Fe13      1.0  0.46646  0.84769  0.93732  1.0000
  H   H138      1.0  0.42478  0.78425  0.72331  1.0000
  H   H139      1.0  0.42281  0.74093  0.89375  1.0000
  C   C112      1.0  0.34441  0.57728  0.69259  1.0000
  H   H140      1.0  0.43843  0.69529  0.96068  1.0000
  H   H141      1.0  0.34492  0.55386  0.82233  1.0000
  C   C113      1.0  0.37857  0.58046  0.69123  1.0000
  H   H142      1.0  0.45942  0.72426  0.92009  1.0000
  S   S26       1.0  0.18360  0.54856  0.98684  1.0000
  H   H143      1.0  0.35180  0.88578  0.96197  1.0000
  H   H144      1.0  0.44336  0.54845  0.77309  1.0000
  C   C114      1.0  0.37361  0.77185  0.78403  1.0000
  H   H145      1.0  0.31812  0.69156  0.76974  1.0000
  H   H146      1.0  0.39538  0.79843  0.80141  1.0000
  H   H147      1.0  0.35680  0.72285  0.73487  1.0000
  C   C115      1.0  0.44413  0.63021  0.96742  1.0000
  H   H148      1.0  0.44482  0.67516  0.68191  1.0000
  H   H149      1.0  0.40793  0.67437  0.92074  1.0000
  N   N6        1.0  0.38196  0.74628  0.78679  1.0000
  C   C116      1.0  0.49368  0.89121  0.74077  1.0000
  H   H150      1.0  0.43729  0.77508  0.96303  1.0000
  H   H151      1.0  0.43295  0.97843  0.95762  1.0000
  C   C117      1.0  0.32497  0.54897  0.75304  1.0000
  S   S27       1.0  0.49563  0.90597  0.91200  1.0000
  C   C118      1.0  0.45122  0.94543  0.91837  1.0000
  H   H152      1.0  0.29057  0.55816  0.72204  1.0000
  H   H153      1.0  0.43993  0.60609  0.95567  1.0000
  C   C119      1.0  0.13629  0.56743  0.98597  1.0000
  C   C120      1.0  0.35938  0.70233  0.99387  1.0000
  N   N7        1.0  0.42395  0.61788  0.00321  1.0000
  H   H154      1.0  0.34771  0.63184  0.95037  1.0000
  S   S28       1.0  0.45951  0.54948  0.69975  1.0000
  C   C121      1.0  0.10461  0.56518  0.99975  1.0000
  H   H155      1.0  0.40267  0.88567  0.99276  1.0000
  Fe  Fe14      1.0  0.46599  0.57235  0.92015  1.0000
  N   N8        1.0  0.41013  0.71683  0.94635  1.0000
  C   C122      1.0  0.14624  0.54884  0.00422  1.0000
  C   C123      1.0  0.43003  0.95595  0.97261  1.0000
  C   C124      1.0  0.34282  0.64541  0.96907  1.0000
  C   C125      1.0  0.43823  0.92808  0.88463  1.0000
  C   C126      1.0  0.42948  0.70168  0.93692  1.0000
  H   H156      1.0  0.09673  0.57923  0.98530  1.0000
  H   H157      1.0  0.46070  0.87708  0.73853  1.0000
  C   C127      1.0  0.18815  0.52619  0.76199  1.0000
  C   C128      1.0  0.46847  0.94584  0.85664  1.0000
  C   C129      1.0  0.37180  0.68835  0.97068  1.0000
  H   H158      1.0  0.45846  0.92016  0.97766  1.0000
  C   C130      1.0  0.39590  0.72180  0.91389  1.0000
  H   H159      1.0  0.36854  0.69199  0.90212  1.0000
  N   N9        1.0  0.29630  0.53250  0.78481  1.0000
  S   S29       1.0  0.47855  0.88357  0.81192  1.0000
  H   H160      1.0  0.28200  0.58586  0.98750  1.0000
  H   H161      1.0  0.36832  0.54386  0.77217  1.0000
  H   H162      1.0  0.36012  0.58450  0.98345  1.0000
  H   H163      1.0  0.23813  0.49622  0.75469  1.0000
  C   C131      1.0  0.37698  0.57964  0.00005  1.0000
  H   H164      1.0  0.41298  0.57052  0.71895  1.0000
  H   H165      1.0  0.40388  0.69346  0.68640  1.0000
  H   H166      1.0  0.31618  0.51606  0.92870  1.0000
  H   H167      1.0  0.37786  0.73416  0.99527  1.0000
  H   H168      1.0  0.31051  0.50153  0.81033  1.0000
  H   H169      1.0  0.47607  0.77737  0.94484  1.0000
  C   C132      1.0  0.48930  0.81427  0.73422  1.0000
  S   S30       1.0  0.49749  0.55164  0.90637  1.0000
  C   C133      1.0  0.49637  0.98100  0.92225  1.0000
  S   S31       1.0  0.57259  0.16754  0.31014  1.0000
  H   H170      1.0  0.60390  0.23721  0.23070  1.0000
  Fe  Fe15      1.0  0.93133  0.39671  0.09990  1.0000
  S   S32       1.0  0.91342  0.34310  0.07621  1.0000
  Fe  Fe16      1.0  0.63671  0.44077  0.13820  1.0000
  S   S33       1.0  0.60349  0.42439  0.08661  1.0000
  S   S34       1.0  0.60176  0.41903  0.19096  1.0000
  C   C134      1.0  0.80235  0.42002  0.03067  1.0000
  C   C135      1.0  0.77572  0.25891  0.03595  1.0000
  H   H171      1.0  0.98852  0.46486  0.29050  1.0000
  Fe  Fe17      1.0  0.64022  0.40896  0.07114  1.0000
  S   S35       1.0  0.61591  0.35622  0.03870  1.0000
  S   S36       1.0  0.66726  0.41937  0.12437  1.0000
  Fe  Fe18      1.0  0.63557  0.15470  0.13060  1.0000
  S   S37       1.0  0.56739  0.12208  0.11839  1.0000
  S   S38       1.0  0.65712  0.15421  0.18404  1.0000
  Fe  Fe19      1.0  0.66899  0.19341  0.05701  1.0000
  C   C136      1.0  0.77626  0.41840  0.11682  1.0000
  Fe  Fe20      1.0  0.59896  0.18202  0.09320  1.0000
  S   S39       1.0  0.58119  0.21349  0.11485  1.0000
  Fe  Fe21      1.0  0.57945  0.10854  0.06649  1.0000
  S   S40       1.0  0.66668  0.21497  0.10779  1.0000
  S   S41       1.0  0.64527  0.13642  0.08105  1.0000
  C   C137      1.0  0.60864  0.31777  0.05968  1.0000
  C   C138      1.0  0.71262  0.13953  0.01176  1.0000
  H   H172      1.0  0.78761  0.27143  0.17682  1.0000
  C   C139      1.0  0.59482  0.25485  0.09269  1.0000
  C   C140      1.0  0.60108  0.28353  0.11258  1.0000
  C   C141      1.0  0.60800  0.31482  0.09621  1.0000
  H   H173      1.0  0.93167  0.38906  0.01066  1.0000
  H   H174      1.0  0.60027  0.28157  0.14080  1.0000
  H   H175      1.0  0.61147  0.33587  0.11194  1.0000
  C   C142      1.0  0.85987  0.30947  0.06184  1.0000
  C   C143      1.0  0.82826  0.30428  0.08029  1.0000
  C   C144      1.0  0.78579  0.27813  0.06780  1.0000
  C   C145      1.0  0.56043  0.25959  0.22285  1.0000
  H   H176      1.0  0.69127  0.44240  0.21435  1.0000
  Fe  Fe22      1.0  0.98865  0.48646  0.08567  1.0000
  H   H177      1.0  0.83651  0.32021  0.10426  1.0000
  H   H178      1.0  0.76143  0.27415  0.08205  1.0000
  H   H179      1.0  0.50588  0.16096  0.24217  1.0000
  S   S42       1.0  0.53266  0.04504  0.04436  1.0000
  C   C146      1.0  0.85362  0.47888  0.11988  1.0000
  C   C147      1.0  0.76435  0.17963  0.07692  1.0000
  H   H180      1.0  0.57473  0.47411  0.04434  1.0000
  C   C148      1.0  0.62855  0.45285  0.22578  1.0000
  C   C149      1.0  0.61354  0.43740  0.26029  1.0000
  H   H181      1.0  0.67085  0.08143  0.10153  1.0000
  S   S43       1.0  0.69891  0.47214  0.04985  1.0000
  H   H182      1.0  0.83895  0.40223  0.30734  1.0000
  H   H183      1.0  0.58607  0.40498  0.26526  1.0000
  H   H184      1.0  0.62192  0.45147  0.31506  1.0000
  C   C150      1.0  0.59577  0.16242  0.27605  1.0000
  C   C151      1.0  0.63160  0.16835  0.28127  1.0000
  C   C152      1.0  0.64943  0.16446  0.25317  1.0000
  C   C153      1.0  0.63245  0.15600  0.21953  1.0000
  H   H185      1.0  0.64562  0.17595  0.30685  1.0000
  H   H186      1.0  0.67684  0.16865  0.25740  1.0000
  C   C154      1.0  0.59701  0.15056  0.21439  1.0000
  C   C155      1.0  0.84823  0.36076  0.25935  1.0000
  C   C156      1.0  0.57824  0.15293  0.24268  1.0000
  N   N10       1.0  0.75523  0.28743  0.19635  1.0000
  C   C157      1.0  0.77298  0.31789  0.16746  1.0000
  C   C158      1.0  0.75413  0.25709  0.18322  1.0000
  C   C159      1.0  0.70994  0.26694  0.20425  1.0000
  C   C160      1.0  0.78129  0.30515  0.22845  1.0000
  C   C161      1.0  0.76640  0.28044  0.25939  1.0000
  C   C162      1.0  0.82301  0.34607  0.22946  1.0000
  C   C163      1.0  0.79163  0.29567  0.28929  1.0000
  H   H187      1.0  0.80536  0.33200  0.15750  1.0000
  H   H188      1.0  0.75176  0.30396  0.14426  1.0000
  H   H189      1.0  0.77619  0.34259  0.17584  1.0000
  H   H190      1.0  0.73473  0.24255  0.15912  1.0000
  H   H191      1.0  0.73910  0.23198  0.20285  1.0000
  H   H192      1.0  0.70964  0.28854  0.21539  1.0000
  H   H193      1.0  0.68989  0.25397  0.18036  1.0000
  H   H194      1.0  0.69222  0.24078  0.22311  1.0000
  H   H195      1.0  0.73561  0.24873  0.26047  1.0000
  H   H196      1.0  0.83744  0.36721  0.20726  1.0000
  C   C164      1.0  0.74454  0.17337  0.13805  1.0000
  C   C165      1.0  0.59653  0.25822  0.05605  1.0000
  C   C166      1.0  0.69996  0.11369  0.10236  1.0000
  H   H197      1.0  0.90338  0.49122  0.24852  1.0000
  C   C167      1.0  0.59933  0.31879  0.26017  1.0000
  H   H198      1.0  0.58348  0.14385  0.18876  1.0000
  C   C168      1.0  0.58440  0.28130  0.25326  1.0000
  C   C169      1.0  0.83266  0.33565  0.28915  1.0000
  H   H199      1.0  0.54977  0.14704  0.23873  1.0000
  Fe  Fe23      1.0  0.96563  0.45334  0.16043  1.0000
  H   H200      1.0  0.88051  0.39165  0.25915  1.0000
  H   H201      1.0  0.68192  0.05817  0.05497  1.0000
  C   C170      1.0  0.60294  0.28940  0.03960  1.0000
  C   C171      1.0  0.58313  0.22700  0.20764  1.0000
  C   C172      1.0  0.77018  0.47394  0.20566  1.0000
  C   C173      1.0  0.96307  0.46971  0.24553  1.0000
  H   H202      1.0  0.61270  0.47981  0.14479  1.0000
  C   C174      1.0  0.81190  0.40008  0.30755  1.0000
  N   N11       1.0  0.75846  0.48990  0.22954  1.0000
  H   H203      1.0  0.78654  0.16022  0.02093  1.0000
  H   H204      1.0  0.75035  0.18708  0.16301  1.0000
  Fe  Fe24      1.0  0.89541  0.43186  0.11540  1.0000
  H   H205      1.0  0.95957  0.48108  0.33298  1.0000
  C   C175      1.0  0.56962  0.31637  0.20606  1.0000
  H   H206      1.0  0.56372  0.46168  0.25663  1.0000
  H   H207      1.0  0.59113  0.23592  0.04047  1.0000
  C   C176      1.0  0.70844  0.13171  0.13461  1.0000
  H   H208      1.0  0.60325  0.36519  0.24193  1.0000
  S   S44       1.0  0.89913  0.39392  0.14743  1.0000
  S   S45       1.0  0.82733  0.40489  0.11700  1.0000
  H   H209      1.0  0.78893  0.48330  0.03042  1.0000
  C   C177      1.0  0.55398  0.27861  0.19912  1.0000
  Fe  Fe25      1.0  0.72384  0.48304  0.10418  1.0000
  S   S46       1.0  0.72459  0.22966  0.01769  1.0000
  C   C178      1.0  0.93026  0.48790  0.29355  1.0000
  C   C179      1.0  0.55406  0.03125  0.01840  1.0000
  H   H210      1.0  0.60390  0.25042  0.18617  1.0000
  C   C180      1.0  0.95355  0.47971  0.30543  1.0000
  C   C181      1.0  0.81899  0.43651  0.11826  1.0000
  C   C182      1.0  0.51466  0.19836  0.18642  1.0000
  C   C183      1.0  0.96990  0.47059  0.28144  1.0000
  H   H211      1.0  0.56782  0.46160  0.19342  1.0000
  H   H212      1.0  0.85263  0.34705  0.31208  1.0000
  H   H213      1.0  0.69179  0.35384  0.02735  1.0000
  S   S47       1.0  0.92288  0.43017  0.06649  1.0000
  H   H214      1.0  0.69871  0.46576  0.25407  1.0000
  C   C184      1.0  0.72750  0.13735  0.07228  1.0000
  H   H215      1.0  0.76340  0.11469  0.04453  1.0000
  C   C185      1.0  0.67924  0.07517  0.03693  1.0000
  H   H216      1.0  0.54415  0.01712  0.32526  1.0000
  H   H217      1.0  0.79078  0.38151  0.28510  1.0000
  C   C186      1.0  0.77263  0.19727  0.10931  1.0000
  H   H218      1.0  0.78680  0.19958  0.05536  1.0000
  H   H219      1.0  0.50257  0.16818  0.18246  1.0000
  S   S48       1.0  0.60364  0.16520  0.03976  1.0000
  H   H220      1.0  0.71169  0.41725  0.02724  1.0000
  C   C187      1.0  0.93804  0.47606  0.23379  1.0000
  C   C188      1.0  0.63372  0.46374  0.28857  1.0000
  H   H221      1.0  0.73526  0.42797  0.11326  1.0000
  C   C189      1.0  0.76815  0.44242  0.11582  1.0000
  H   H222      1.0  0.82730  0.43152  0.30235  1.0000
  H   H223      1.0  0.74926  0.38573  0.11550  1.0000
  H   H224      1.0  0.77968  0.27606  0.31254  1.0000
  N   N12       1.0  0.74545  0.34247  0.02901  1.0000
  H   H225      1.0  0.61655  0.33435  0.28397  1.0000
  H   H226      1.0  0.77246  0.31801  0.02419  1.0000
  H   H227      1.0  0.80075  0.22975  0.11196  1.0000
  H   H228      1.0  0.59172  0.26938  0.27195  1.0000
  H   H229      1.0  0.53092  0.21532  0.16098  1.0000
  H   H230      1.0  0.80416  0.36267  0.04921  1.0000
  H   H231      1.0  0.64923  0.06740  0.04428  1.0000
  H   H232      1.0  0.93218  0.47492  0.20616  1.0000
  H   H233      1.0  0.52250  0.47659  0.02513  1.0000
  H   H234      1.0  0.74665  0.32116  0.32334  1.0000
  C   C190      1.0  0.75634  0.12726  0.02510  1.0000
  H   H235      1.0  0.56372  0.46671  0.13477  1.0000
  H   H236      1.0  0.71048  0.28952  0.06312  1.0000
  H   H237      1.0  0.74228  0.33676  0.08520  1.0000
  C   C191      1.0  0.59187  0.33622  0.23662  1.0000
  H   H238      1.0  0.70400  0.43120  0.25379  1.0000
  S   S49       1.0  0.98696  0.46155  0.21592  1.0000
  C   C192      1.0  0.72139  0.31946  0.06229  1.0000
  C   C193      1.0  0.52143  0.19220  0.24759  1.0000
  H   H239      1.0  0.84675  0.48515  0.03329  1.0000
  H   H240      1.0  0.60300  0.29130  0.01128  1.0000
  C   C194      1.0  0.84910  0.28877  0.03087  1.0000
  H   H241      1.0  0.69177  0.31319  0.06607  1.0000
  H   H242      1.0  0.56437  0.33041  0.18765  1.0000
  H   H243      1.0  0.54323  0.20218  0.26979  1.0000
  C   C195      1.0  0.80252  0.48477  0.11720  1.0000
  H   H244      1.0  0.68618  0.11348  0.15695  1.0000
  N   N13       1.0  0.71877  0.11982  0.03730  1.0000
  Fe  Fe26      1.0  0.66453  0.48879  0.06958  1.0000
  H   H245      1.0  0.57307  0.19897  0.19825  1.0000
  H   H246      1.0  0.76517  0.44939  0.21862  1.0000
  H   H247      1.0  0.82909  0.42303  0.03325  1.0000
  H   H248      1.0  0.53715  0.26515  0.17484  1.0000
  H   H249      1.0  0.74987  0.46072  0.18190  1.0000
  N   N14       1.0  0.54497  0.21995  0.21607  1.0000
  S   S50       1.0  0.96028  0.49190  0.13175  1.0000
  C   C196      1.0  0.71116  0.45586  0.23837  1.0000
  C   C197      1.0  0.73711  0.41808  0.02774  1.0000
  C   C198      1.0  0.72602  0.38176  0.02768  1.0000
  C   C199      1.0  0.81309  0.45622  0.03080  1.0000
  C   C200      1.0  0.78317  0.34776  0.02590  1.0000
  C   C201      1.0  0.75826  0.38152  0.02876  1.0000
  H   H250      1.0  0.87327  0.29235  0.01677  1.0000
  H   H251      1.0  0.69507  0.31850  0.33908  1.0000
  C   C202      1.0  0.78057  0.45526  0.02928  1.0000
  C   C203      1.0  0.80750  0.26455  0.01738  1.0000
  H   H252      1.0  0.67375  0.06279  0.01037  1.0000
  H   H253      1.0  0.68493  0.13502  0.02006  1.0000
  C   C204      1.0  0.92164  0.48516  0.25781  1.0000
  H   H254      1.0  0.64415  0.32379  0.33898  1.0000
  C   C205      1.0  0.67870  0.35136  0.33959  1.0000
  C   C206      1.0  0.70859  0.34874  0.33982  1.0000
  C   C207      1.0  0.58603  0.49068  0.20510  1.0000
  C   C208      1.0  0.58312  0.49017  0.24171  1.0000
  H   H255      1.0  0.88674  0.49313  0.12103  1.0000
  C   C209      1.0  0.59990  0.49089  0.13182  1.0000
  H   H256      1.0  0.74168  0.17293  0.00879  1.0000
  Fe  Fe27      1.0  0.61759  0.22177  0.43220  1.0000
  H   H257      1.0  0.80183  0.45060  0.34214  1.0000
  S   S51       1.0  0.61658  0.26145  0.46418  1.0000
  Fe  Fe28      1.0  0.59614  0.14356  0.43369  1.0000
  S   S52       1.0  0.63110  0.15905  0.38200  1.0000
  S   S53       1.0  0.55637  0.08459  0.46581  1.0000
  Fe  Fe29      1.0  0.68246  0.22241  0.40222  1.0000
  C   C210      1.0  0.74460  0.38871  0.45028  1.0000
  H   H258      1.0  0.58568  0.01486  0.62936  1.0000
  S   S54       1.0  0.65043  0.20517  0.45567  1.0000
  H   H259      1.0  0.55196  0.40839  0.50754  1.0000
  Fe  Fe30      1.0  0.63092  0.43081  0.40713  1.0000
  C   C211      1.0  0.50615  0.25178  0.50196  1.0000
  S   S55       1.0  0.59582  0.36819  0.38885  1.0000
  N   N15       1.0  0.51170  0.34728  0.48880  1.0000
  C   C212      1.0  0.65665  0.11572  0.56848  1.0000
  H   H260      1.0  0.57632  0.29872  0.36722  1.0000
  S   S56       1.0  0.60397  0.45468  0.38808  1.0000
  H   H261      1.0  0.74725  0.32550  0.37052  1.0000
  C   C213      1.0  0.70605  0.12924  0.62450  1.0000
  S   S57       1.0  0.86250  0.41900  0.48327  1.0000
  H   H262      1.0  0.70066  0.37770  0.41343  1.0000
  H   H263      1.0  0.85842  0.47456  0.49980  1.0000
  C   C214      1.0  0.57762  0.06635  0.48257  1.0000
  C   C215      1.0  0.55059  0.03089  0.50411  1.0000
  S   S58       1.0  0.56901  0.47482  0.47088  1.0000
  C   C216      1.0  0.60567  0.03033  0.50451  1.0000
  C   C217      1.0  0.63344  0.06669  0.48410  1.0000
  C   C218      1.0  0.61966  0.08490  0.47342  1.0000
  S   S59       1.0  0.56032  0.15861  0.41401  1.0000
  H   H264      1.0  0.66558  0.08060  0.47623  1.0000
  H   H265      1.0  0.64115  0.11271  0.45742  1.0000
  C   C219      1.0  0.78464  0.30704  0.41618  1.0000
  C   C220      1.0  0.76402  0.30916  0.44260  1.0000
  C   C221      1.0  0.78835  0.34306  0.46381  1.0000
  C   C222      1.0  0.83322  0.37593  0.45764  1.0000
  C   C223      1.0  0.85392  0.37439  0.43067  1.0000
  C   C224      1.0  0.82970  0.33973  0.41018  1.0000
  H   H266      1.0  0.72932  0.28464  0.44701  1.0000
  H   H267      1.0  0.77215  0.34380  0.48480  1.0000
  H   H268      1.0  0.88874  0.39933  0.42629  1.0000
  H   H269      1.0  0.84586  0.33825  0.38980  1.0000
  C   C225      1.0  0.60219  0.33919  0.41023  1.0000
  C   C226      1.0  0.58975  0.30606  0.39308  1.0000
  H   H270      1.0  0.68711  0.04765  0.59631  1.0000
  C   C227      1.0  0.61093  0.29106  0.44293  1.0000
  C   C228      1.0  0.62184  0.32328  0.46061  1.0000
  C   C229      1.0  0.61811  0.34773  0.44411  1.0000
  H   H271      1.0  0.63391  0.32976  0.48694  1.0000
  H   H272      1.0  0.62700  0.37274  0.45779  1.0000
  H   H273      1.0  0.51818  0.01655  0.51154  1.0000
  C   C230      1.0  0.77261  0.41262  0.47766  1.0000
  H   H274      1.0  0.78941  0.40576  0.48876  1.0000
  H   H275      1.0  0.76165  0.41958  0.55748  1.0000
  H   H276      1.0  0.59883  0.07694  0.36197  1.0000
  H   H277      1.0  0.75758  0.47492  0.48195  1.0000
  H   H278      1.0  0.52856  0.05101  0.35423  1.0000
  C   C231      1.0  0.51211  0.29737  0.46362  1.0000
  C   C232      1.0  0.59494  0.28253  0.40906  1.0000
  H   H279      1.0  0.57602  0.38943  0.50978  1.0000
  H   H280      1.0  0.63066  0.01566  0.58900  1.0000
  H   H281      1.0  0.58990  0.07254  0.40835  1.0000
  H   H282      1.0  0.58573  0.25727  0.39555  1.0000
  C   C233      1.0  0.72845  0.42822  0.44586  1.0000
  H   H283      1.0  0.81606  0.45914  0.57350  1.0000
  C   C234      1.0  0.64435  0.08270  0.58700  1.0000
  S   S60       1.0  0.75392  0.26454  0.38951  1.0000
  H   H284      1.0  0.51079  0.47303  0.50955  1.0000
  C   C235      1.0  0.52423  0.36539  0.45261  1.0000
  S   S61       1.0  0.95394  0.48556  0.40749  1.0000
  Fe  Fe31      1.0  0.59991  0.17906  0.36402  1.0000
  H   H285      1.0  0.74698  0.19310  0.61262  1.0000
  H   H286      1.0  0.79256  0.34057  0.34720  1.0000
  H   H287      1.0  0.80437  0.42397  0.54373  1.0000
  S   S62       1.0  0.64201  0.45466  0.46109  1.0000
  C   C236      1.0  0.75545  0.45156  0.47393  1.0000
  C   C237      1.0  0.50874  0.31381  0.49265  1.0000
  H   H288      1.0  0.72668  0.13666  0.64569  1.0000
  C   C238      1.0  0.72286  0.39672  0.43424  1.0000
  C   C239      1.0  0.81733  0.40640  0.37039  1.0000
  C   C240      1.0  0.77848  0.44441  0.49076  1.0000
  H   H289      1.0  0.71104  0.43407  0.43353  1.0000
  C   C241      1.0  0.60998  0.02670  0.64976  1.0000
  C   C242      1.0  0.51093  0.26692  0.46844  1.0000
  Fe  Fe32      1.0  0.91278  0.47647  0.45107  1.0000
  C   C243      1.0  0.56460  0.01304  0.51520  1.0000
  H   H290      1.0  0.53418  0.37199  0.54079  1.0000
  N   N16       1.0  0.80797  0.46885  0.52019  1.0000
  S   S63       1.0  0.65375  0.24347  0.38052  1.0000
  H   H291      1.0  0.79970  0.39532  0.39629  1.0000
  H   H292      1.0  0.60859  0.04392  0.66824  1.0000
  C   C244      1.0  0.69353  0.15536  0.57773  1.0000
  C   C245      1.0  0.66859  0.08837  0.61564  1.0000
  H   H293      1.0  0.51675  0.30810  0.43690  1.0000
  H   H294      1.0  0.74839  0.45368  0.34346  1.0000
  H   H295      1.0  0.64631  0.00238  0.62326  1.0000
  N   N17       1.0  0.65470  0.05267  0.63464  1.0000
  H   H296      1.0  0.51744  0.04446  0.40031  1.0000
  H   H297      1.0  0.50649  0.22896  0.50547  1.0000
  C   C246      1.0  0.79691  0.44167  0.54994  1.0000
  H   H298      1.0  0.73918  0.36339  0.44188  1.0000
  C   C247      1.0  0.65471  0.02861  0.60982  1.0000
  C   C248      1.0  0.76718  0.34059  0.34568  1.0000
  H   H299      1.0  0.83728  0.43928  0.36730  1.0000
  H   H300      1.0  0.51494  0.25571  0.44605  1.0000
  H   H301      1.0  0.52855  0.39190  0.45079  1.0000
  C   C249      1.0  0.53425  0.99785  0.34917  1.0000
  H   H302      1.0  0.84133  0.40456  0.37168  1.0000
  H   H303      1.0  0.71708  0.08140  0.65424  1.0000
  S   S64       1.0  0.69930  0.48470  0.38732  1.0000
  C   C250      1.0  0.58551  0.05594  0.38524  1.0000
  C   C251      1.0  0.54477  0.38053  0.51273  1.0000
  H   H304      1.0  0.61581  0.05257  0.57841  1.0000
  H   H305      1.0  0.70308  0.18086  0.56306  1.0000
  C   C252      1.0  0.76767  0.42220  0.34186  1.0000
  Fe  Fe33      1.0  0.62087  0.48363  0.44062  1.0000
  C   C253      1.0  0.51494  0.02907  0.37682  1.0000
  N   N18       1.0  0.53883  0.01761  0.38157  1.0000
  C   C254      1.0  0.71817  0.16212  0.60566  1.0000
  C   C255      1.0  0.68322  0.06332  0.66390  1.0000
  H   H306      1.0  0.77214  0.48038  0.54243  1.0000
  S   S65       1.0  0.62304  0.00709  0.51587  1.0000
  H   H307      1.0  0.55564  0.37662  0.44368  1.0000
  H   H308      1.0  0.60658  0.05093  0.38861  1.0000
  N   N19       1.0  0.78674  0.38251  0.34132  1.0000
  H   H309      1.0  0.63759  0.11047  0.54661  1.0000
  H   H310      1.0  0.66946  0.39074  0.34211  1.0000
  C   C256      1.0  0.75414  0.38417  0.34145  1.0000
  C   C257      1.0  0.50218  0.29652  0.52636  1.0000
  H   H311      1.0  0.49907  0.34319  0.43340  1.0000
  H   H312      1.0  0.49819  0.30667  0.54955  1.0000
  C   C258      1.0  0.50129  0.26622  0.53086  1.0000
  H   H313      1.0  0.59836  0.99949  0.66439  1.0000
  C   C259      1.0  0.73739  0.42441  0.34207  1.0000
  C   C260      1.0  0.69295  0.38903  0.34110  1.0000
  C   C261      1.0  0.94544  0.38689  0.98736  1.0000
  H   H314      1.0  0.68385  0.08049  0.68425  1.0000
  H   H315      1.0  0.68440  0.30680  0.00224  1.0000
  H   H316      1.0  0.56077  0.02474  0.89813  1.0000
  C   C262      1.0  0.52632  0.99837  0.89412  1.0000
  H   H317      1.0  0.70567  0.12697  0.98514  1.0000
  H   H318      1.0  0.92852  0.38442  0.96417  1.0000
  N   N20       1.0  0.99343  0.42255  0.98380  1.0000
  H   H319      1.0  0.60851  0.09157  0.99690  1.0000
  H   H320      1.0  0.95392  0.36338  0.93195  1.0000
  C   C263      1.0  0.60689  0.04789  0.97565  1.0000
  H   H321      1.0  0.79985  0.24998  0.99262  1.0000
  H   H322      1.0  0.70905  0.28919  0.99735  1.0000
  H   H323      1.0  0.63560  0.07018  0.95894  1.0000
  H   H324      1.0  0.98823  0.45919  0.95579  1.0000
  H   H325      1.0  0.98851  0.46244  0.00285  1.0000
  H   H326      1.0  0.73199  0.33488  0.97395  1.0000
  C   C264      1.0  0.58494  0.00697  0.97534  1.0000
  H   H327      1.0  0.53680  0.47221  0.92318  1.0000
  C   C265      1.0  0.71655  0.31741  0.99935  1.0000
  C   C266      1.0  0.58062  0.47320  0.94764  1.0000
  H   H328      1.0  0.93660  0.35814  0.99136  1.0000
  C   C267      1.0  0.98883  0.38894  0.92921  1.0000
  C   C268      1.0  0.59168  0.06006  0.99720  1.0000
  H   H329      1.0  0.67131  0.03542  0.67747  1.0000
  H   H330      1.0  0.80346  0.36602  0.00186  1.0000
  H   H331      1.0  0.98961  0.36486  0.88175  1.0000
  H   H332      1.0  0.55452  0.44349  0.96027  1.0000
  H   H333      1.0  0.75000  0.11277  0.99958  1.0000
  H   H334      1.0  0.63109  0.48201  0.97162  1.0000
  H   H335      1.0  0.50948  0.99504  0.94725  1.0000
  C   C269      1.0  0.57093  0.49024  0.92612  1.0000
  H   H336      1.0  0.53497  0.49354  0.86714  1.0000
  H   H337      1.0  0.60579  0.52585  0.28776  1.0000
  C   C270      1.0  0.68339  0.52127  0.24788  1.0000
  C   C271      1.0  0.55716  0.50321  0.02125  1.0000
  C   C272      1.0  0.53180  0.99024  0.01776  1.0000
  H   H338      1.0  0.87213  0.53572  0.12084  1.0000
  H   H339      1.0  0.60268  0.54310  0.10004  1.0000
  C   C273      1.0  0.66396  0.49482  0.21966  1.0000
  H   H340      1.0  0.65045  0.59104  0.25417  1.0000
  C   C274      1.0  0.79811  0.53777  0.31917  1.0000
  C   C275      1.0  0.58676  0.50179  0.03242  1.0000
  H   H341      1.0  0.70992  0.55382  0.24299  1.0000
  H   H342      1.0  0.75565  0.53414  0.22486  1.0000
  S   S66       1.0  0.79242  0.51517  0.11684  1.0000
  C   C276      1.0  0.84093  0.52598  0.29985  1.0000
  C   C277      1.0  0.83114  0.53999  0.32497  1.0000
  H   H343      1.0  0.82752  0.49998  0.25033  1.0000
  C   C278      1.0  0.66660  0.56131  0.13661  1.0000
  S   S67       1.0  0.69225  0.53961  0.31721  1.0000
  S   S68       1.0  0.67075  0.53594  0.04029  1.0000
  H   H344      1.0  0.80155  0.54848  0.20269  1.0000
  H   H345      1.0  0.68413  0.55633  0.15182  1.0000
  C   C279      1.0  0.76629  0.52224  0.20975  1.0000
  H   H346      1.0  0.86715  0.52831  0.30432  1.0000
  S   S69       1.0  0.69560  0.50585  0.12236  1.0000
  H   H347      1.0  0.61348  0.57161  0.13735  1.0000
  C   C280      1.0  0.81768  0.50959  0.26884  1.0000
  C   C281      1.0  0.66821  0.50580  0.28240  1.0000
  C   C282      1.0  0.59884  0.54138  0.12922  1.0000
  H   H348      1.0  0.50310  0.69612  0.01350  1.0000
  H   H349      1.0  0.51748  0.75201  0.03884  1.0000
  H   H350      1.0  0.80457  0.49856  0.19558  1.0000
  H   H351      1.0  0.56329  0.51868  0.13584  1.0000
  C   C283      1.0  0.61321  0.52788  0.18497  1.0000
  C   C284      1.0  0.78358  0.50669  0.26216  1.0000
  H   H352      1.0  0.60747  0.49399  0.10321  1.0000
  C   C285      1.0  0.60671  0.52629  0.25930  1.0000
  H   H353      1.0  0.67254  0.56092  0.10822  1.0000
  C   C286      1.0  0.63218  0.56301  0.24030  1.0000
  H   H354      1.0  0.68268  0.59281  0.14104  1.0000
  C   C287      1.0  0.77470  0.52151  0.28828  1.0000
  C   C288      1.0  0.63166  0.53588  0.02735  1.0000
  N   N21       1.0  0.61933  0.53001  0.14637  1.0000
  H   H355      1.0  0.74990  0.52119  0.28492  1.0000
  C   C289      1.0  0.64642  0.57125  0.01107  1.0000
  S   S70       1.0  0.91198  0.50196  0.32281  1.0000
  H   H356      1.0  0.65508  0.59309  0.19013  1.0000
  C   C290      1.0  0.63502  0.56387  0.20366  1.0000
  H   H357      1.0  0.74845  0.51097  0.18469  1.0000
  H   H358      1.0  0.50275  0.96778  0.03414  1.0000
  C   C291      1.0  0.84530  0.50294  0.11968  1.0000
  H   H359      1.0  0.67552  0.50709  0.19323  1.0000
  H   H360      1.0  0.79082  0.54911  0.33859  1.0000
  Fe  Fe34      1.0  0.57863  0.94843  0.54891  1.0000
  S   S71       1.0  0.53917  0.93787  0.59516  1.0000
  Fe  Fe35      1.0  0.54930  0.86630  0.56150  1.0000
  C   C292      1.0  0.52707  0.94866  0.44844  1.0000
  S   S72       1.0  0.54830  0.82161  0.53755  1.0000
  C   C293      1.0  0.57890  0.51230  0.49631  1.0000
  Fe  Fe36      1.0  0.56391  0.91520  0.62299  1.0000
  C   C294      1.0  0.59803  0.55979  0.41988  1.0000
  S   S73       1.0  0.52487  0.88615  0.52788  1.0000
  S   S74       1.0  0.60728  0.93007  0.57791  1.0000
  Fe  Fe37      1.0  0.55244  0.60844  0.58373  1.0000
  Fe  Fe38      1.0  0.93620  0.51371  0.37784  1.0000
  S   S75       1.0  0.60114  0.61083  0.55638  1.0000
  Fe  Fe39      1.0  0.54112  0.66227  0.61193  1.0000
  H   H361      1.0  0.79522  0.52343  0.42318  1.0000
  S   S76       1.0  0.56670  0.72135  0.63120  1.0000
  N   N22       1.0  0.54017  0.59871  0.46032  1.0000
  H   H362      1.0  0.49985  0.96802  0.34622  1.0000
  H   H363      1.0  0.62912  0.64189  0.45668  1.0000
  S   S77       1.0  0.56272  0.63527  0.63664  1.0000
  C   C295      1.0  0.51009  0.57188  0.49044  1.0000
  S   S78       1.0  0.68803  0.54169  0.42189  1.0000
  H   H364      1.0  0.59087  0.64519  0.49489  1.0000
  C   C296      1.0  0.56064  0.58580  0.44701  1.0000
  S   S79       1.0  0.53827  0.64171  0.55822  1.0000
  S   S80       1.0  0.76368  0.54329  0.47621  1.0000
  H   H365      1.0  0.52804  0.57418  0.51254  1.0000
  Fe  Fe40      1.0  0.94808  0.55979  0.43997  1.0000
  S   S81       1.0  0.94551  0.60287  0.45982  1.0000
  C   C297      1.0  0.81535  0.56363  0.46523  1.0000
  C   C298      1.0  0.84978  0.59393  0.48650  1.0000
  C   C299      1.0  0.88996  0.60679  0.48323  1.0000
  C   C300      1.0  0.89595  0.58881  0.45923  1.0000
  H   H366      1.0  0.81757  0.52062  0.51369  1.0000
  C   C301      1.0  0.82178  0.54699  0.43962  1.0000
  H   H367      1.0  0.84500  0.60682  0.50635  1.0000
  H   H368      1.0  0.91603  0.62978  0.50033  1.0000
  H   H369      1.0  0.61219  0.54936  0.41068  1.0000
  C   C302      1.0  0.59147  0.57158  0.53460  1.0000
  C   C303      1.0  0.62703  0.58057  0.51921  1.0000
  C   C304      1.0  0.62088  0.55114  0.50035  1.0000
  S   S82       1.0  0.89009  0.49896  0.41969  1.0000
  C   C305      1.0  0.86204  0.55926  0.43692  1.0000
  C   C306      1.0  0.54957  0.53231  0.53143  1.0000
  H   H370      1.0  0.65961  0.61067  0.52165  1.0000
  H   H371      1.0  0.64861  0.55880  0.48846  1.0000
  H   H372      1.0  0.86669  0.54562  0.41799  1.0000
  S   S83       1.0  0.99332  0.57681  0.39594  1.0000
  C   C307      1.0  0.55262  0.79354  0.56428  1.0000
  C   C308      1.0  0.56166  0.80121  0.59991  1.0000
  C   C309      1.0  0.56600  0.77893  0.62019  1.0000
  C   C310      1.0  0.56055  0.74841  0.60512  1.0000
  C   C311      1.0  0.55045  0.74006  0.56970  1.0000
  C   C312      1.0  0.54692  0.76284  0.54930  1.0000
  H   H373      1.0  0.56614  0.82483  0.61166  1.0000
  H   H374      1.0  0.57377  0.78552  0.64757  1.0000
  H   H375      1.0  0.54622  0.71664  0.55785  1.0000
  H   H376      1.0  0.54003  0.75686  0.52172  1.0000
  S   S84       1.0  0.96697  0.53627  0.47580  1.0000
  H   H377      1.0  0.59552  0.66343  0.45087  1.0000
  C   C313      1.0  0.57216  0.64129  0.47236  1.0000
  H   H378      1.0  0.55585  0.65027  0.48172  1.0000
  C   C314      1.0  0.53445  0.54610  0.43402  1.0000
  C   C315      1.0  0.60652  0.61179  0.44614  1.0000
  H   H379      1.0  0.54305  0.98522  0.53114  1.0000
  C   C316      1.0  0.54337  0.50302  0.51223  1.0000
  H   H380      1.0  0.53240  0.50247  0.41227  1.0000
  C   C317      1.0  0.54284  0.97651  0.42069  1.0000
  C   C318      1.0  0.62471  0.59888  0.43246  1.0000
  H   H381      1.0  0.82731  0.51411  0.55654  1.0000
  H   H382      1.0  0.52190  0.52448  0.54367  1.0000
  H   H383      1.0  0.86284  0.51387  0.48530  1.0000
  H   H384      1.0  0.84950  0.55298  0.34885  1.0000
  C   C319      1.0  0.55299  0.53337  0.42084  1.0000
  H   H385      1.0  0.65965  0.61875  0.43288  1.0000
  Fe  Fe41      1.0  0.67306  0.51003  0.37128  1.0000
  S   S85       1.0  0.50805  0.84996  0.60892  1.0000
  H   H386      1.0  0.54384  0.94016  0.45515  1.0000
  H   H387      1.0  0.53590  0.61420  0.40849  1.0000
  H   H388      1.0  0.55489  0.99207  0.34922  1.0000
  H   H389      1.0  0.57119  0.98789  0.40612  1.0000
  C   C320      1.0  0.52271  0.98958  0.41221  1.0000
  C   C321      1.0  0.51482  0.59568  0.43220  1.0000
  H   H390      1.0  0.87723  0.51357  0.52900  1.0000
  Fe  Fe42      1.0  0.70831  0.51112  0.43936  1.0000
  H   H391      1.0  0.49934  0.52432  0.43452  1.0000
  H   H392      1.0  0.50023  0.60658  0.44097  1.0000
  C   C322      1.0  0.80590  0.49700  0.53381  1.0000
  C   C323      1.0  0.85351  0.49370  0.50813  1.0000
  Fe  Fe43      1.0  0.55117  0.61432  0.88245  1.0000
  S   S86       1.0  0.59014  0.64221  0.93164  1.0000
  S   S87       1.0  0.58222  0.62272  0.83043  1.0000
  H   H393      1.0  0.58263  0.77710  0.98918  1.0000
  C   C324      1.0  0.60461  0.52964  0.90998  1.0000
  Fe  Fe44      1.0  0.55002  0.65513  0.94295  1.0000
  S   S88       1.0  0.57029  0.71066  0.96731  1.0000
  Fe  Fe45      1.0  0.53449  0.57971  0.95626  1.0000
  C   C325      1.0  0.65744  0.53363  0.93908  1.0000
  S   S89       1.0  0.51661  0.63273  0.89159  1.0000
  H   H394      1.0  0.61205  0.94245  0.74876  1.0000
  C   C326      1.0  0.59675  0.74452  0.79586  1.0000
  H   H395      1.0  0.62882  0.60018  0.98760  1.0000
  H   H396      1.0  0.60578  0.60110  0.88783  1.0000
  H   H397      1.0  0.56701  0.92174  0.80232  1.0000
  Fe  Fe46      1.0  0.55887  0.92927  0.92859  1.0000
  Fe  Fe47      1.0  0.53447  0.85258  0.90547  1.0000
  C   C327      1.0  0.51081  0.89791  0.77411  1.0000
  H   H398      1.0  0.52708  0.65879  0.74326  1.0000
  S   S90       1.0  0.57035  0.91297  0.87793  1.0000
  H   H399      1.0  0.55158  0.78334  0.75232  1.0000
  C   C328      1.0  0.56083  0.73773  0.94593  1.0000
  C   C329      1.0  0.54409  0.72798  0.91227  1.0000
  H   H400      1.0  0.53954  0.68791  0.70407  1.0000
  C   C330      1.0  0.54742  0.78234  0.91225  1.0000
  C   C331      1.0  0.56272  0.79138  0.94645  1.0000
  C   C332      1.0  0.56967  0.76928  0.96311  1.0000
  C   C333      1.0  0.55347  0.91628  0.77682  1.0000
  Fe  Fe48      1.0  0.50435  0.88541  0.86381  1.0000
  H   H401      1.0  0.57043  0.81609  0.95961  1.0000
  H   H402      1.0  0.59332  0.57664  0.92995  1.0000
  C   C334      1.0  0.61681  0.57259  0.99973  1.0000
  N   N23       1.0  0.59573  0.54891  0.88727  1.0000
  H   H403      1.0  0.60920  0.73446  0.80984  1.0000
  C   C335      1.0  0.57036  0.75195  0.74455  1.0000
  H   H404      1.0  0.52548  0.81567  0.81309  1.0000
  H   H405      1.0  0.56243  0.74786  0.71709  1.0000
  H   H406      1.0  0.55256  0.84497  0.75261  1.0000
  H   H407      1.0  0.52472  0.74228  0.86947  1.0000
  C   C336      1.0  0.54742  0.60113  0.79451  1.0000
  C   C337      1.0  0.56399  0.60566  0.76090  1.0000
  C   C338      1.0  0.53747  0.59048  0.73158  1.0000
  H   H408      1.0  0.67547  0.58148  0.90708  1.0000
  C   C339      1.0  0.51905  0.90258  0.71029  1.0000
  H   H409      1.0  0.59753  0.62122  0.75746  1.0000
  H   H410      1.0  0.55047  0.59394  0.70580  1.0000
  C   C340      1.0  0.56181  0.92111  0.71315  1.0000
  C   C341      1.0  0.57189  0.53844  0.00460  1.0000
  C   C342      1.0  0.62374  0.49479  0.95402  1.0000
  C   C343      1.0  0.61916  0.56186  0.85284  1.0000
  H   H411      1.0  0.61125  0.57466  0.83464  1.0000
  C   C344      1.0  0.54876  0.52165  0.88016  1.0000
  C   C345      1.0  0.57897  0.92808  0.74643  1.0000
  H   H412      1.0  0.56984  0.79525  0.81523  1.0000
  C   C346      1.0  0.62619  0.74480  0.70886  1.0000
  N   N24       1.0  0.59419  0.71670  0.73773  1.0000
  H   H413      1.0  0.54336  0.53685  0.86245  1.0000
  H   H414      1.0  0.65513  0.58622  0.85518  1.0000
  C   C347      1.0  0.61131  0.70311  0.75744  1.0000
  H   H415      1.0  0.64356  0.72916  0.76870  1.0000
  C   C348      1.0  0.57438  0.77914  0.79981  1.0000
  C   C349      1.0  0.58705  0.73749  0.75960  1.0000
  C   C350      1.0  0.61109  0.58528  0.90445  1.0000
  H   H416      1.0  0.53695  0.70388  0.89866  1.0000
  C   C351      1.0  0.59069  0.76528  0.81541  1.0000
  H   H417      1.0  0.61540  0.75558  0.69186  1.0000
  H   H418      1.0  0.61620  0.68756  0.74023  1.0000
  C   C352      1.0  0.64819  0.55092  0.91738  1.0000
  H   H419      1.0  0.64643  0.60809  0.90984  1.0000
  H   H420      1.0  0.55630  0.66287  0.70677  1.0000
  C   C353      1.0  0.55246  0.68011  0.72240  1.0000
  H   H421      1.0  0.59884  0.77078  0.84291  1.0000
  H   H422      1.0  0.50164  0.82808  0.70802  1.0000
  H   H423      1.0  0.65827  0.77236  0.71926  1.0000
  C   C354      1.0  0.53752  0.75014  0.89559  1.0000
  H   H424      1.0  0.63140  0.72981  0.69111  1.0000
  S   S91       1.0  0.53993  0.80977  0.88857  1.0000
  S   S92       1.0  0.52879  0.87119  0.95753  1.0000
  C   C355      1.0  0.56410  0.77238  0.76446  1.0000
  H   H425      1.0  0.58832  0.68093  0.77910  1.0000
  H   H426      1.0  0.69086  0.55079  0.94525  1.0000
  S   S93       1.0  0.53268  0.53805  0.99110  1.0000
  C   C356      1.0  0.51809  0.82381  0.75932  1.0000
  C   C357      1.0  0.54722  0.97815  0.99641  1.0000
  H   H427      1.0  0.53034  0.94662  0.99667  1.0000
  C   C358      1.0  0.51239  0.98083  0.86137  1.0000
  H   H428      1.0  0.61031  0.53572  0.83988  1.0000
  H   H429      1.0  0.50561  0.89717  0.68467  1.0000
  C   C359      1.0  0.50391  0.58065  0.79879  1.0000
  C   C360      1.0  0.50279  0.80736  0.79332  1.0000
  H   H430      1.0  0.52940  0.51290  0.90477  1.0000
  S   S94       1.0  0.49796  0.59509  0.97211  1.0000
  H   H431      1.0  0.53581  0.99356  0.83987  1.0000
  S   S95       1.0  0.60664  0.99317  0.94990  1.0000
  H   H432      1.0  0.68106  0.59781  0.00702  1.0000
  S   S96       1.0  0.59498  0.93638  0.67581  1.0000
