data_image0
_chemical_formula_structural       FeS2HSFeSFeS2H3SNH2CH2C9H3CNCFeHC3H5CH3C2H5CH2SCSH2C2HC2HCFeH2S2CH4SFeS2FeSFeCSHFeS2H2CHCHCHC5H3C5H2C4H2NHC5H9SH3FeCHSHC2HCHC2HNC2HCHCHS2HC2HCSCHCFeS2FeS2FeSFeS3C7H4C3H2C6H8C2H2C2H4NHCHNC2HC4HCHC2H4FeC2H2CH2C2H3NHCH2C2HCH2C2H2CH2CH2CH2CSH4C3H2CHCNH3CHC3HCHCSHC2FeS2FeS2FeSFeS4C6H4C3H2C6H4FeHC4H2CNC7H6C2H3CHCH4NC3H4CH11C4NHC4HCH2C3HCH9CH2CH2NH2CH4CFeS2FeS2FeSFeS3FeS2FeS2FeSFeS4FeSCSFeS2H2CFeH2C7H4C6H4C2H3CH2CHC6H4C6H4C2H2C2HCH3CH2CH7SCFeHCH2C2H2CH2C4H5CHCHC3H2NCHCNCH4CH2CHCHCFeCH2CH2C4HNCH3CH2NHCH5CH2NCH2C3SHC2SC2H2C2H7FeHSCH4CH3C2HC4FeS2FeS2FeSFeS3FeS2FeS2FeSFeS4HSHSFeS2CHC2H2C6HFeH2C6H4CHC2HCH4C6H4C6H5C2H2CH2CHC2HC2HNC4H2CHNC9H14NC2H6CH2CH5CH3CHCHC5HCH3SHCHCNH4CHCH3CH3CH2C2H2CH2FeCHCH2C2HNHC4H3C2H2C2HCH2FeNHCH2CHC3H3C2NCH5C2H3SC2HSH2C2HCH3SHCFeS2FeSHFeS2FeS2FeSFeS3FeS2FeS2FeSFeS4C6H4C3H2C6H5C2H2C11H6C5SH3CH2C2HCFeNC5H14C4HC2HSCHNHCHCH4CSCHC4HC3H2C3SH10NCH2NHCH2FeH2CSCNHCH2CH3CHC6HCH2CHCH3CSCH5C3H3NHCH3C3H2CH2C2HCH4CHC2HCH4CSCHFeS2FeS2FeS2FeS2FeSFeS3FeS2FeS2FeSFeS3HC6H5C2H2C6H4C2H2C3NHC7H4CHC4HCH3SHCH2SHNC3H5CH7NHCH2FeNC9H14CH3CH4C2HC3H2C2SCHCHCNH3CH2NC3H3C4H3CHCH6CHC2HCSCHC4H5FeH2CHC3H2SHSHC2H3SHSHC2FeSCFeS2FeS2FeSFeS3C2H2C3H2C6H6C9H5NH2SH6CH2C4H4CHC2HCNC9H13NCHCHC5HCH3CH2CHNH4C3H5CHC3HCHSHSH2FeSHCFeS2FeS2FeSFeS3C2HC3H3C7H4CHC9H3CH2N2C3HSCH13CH2C3H2CH2CH3FeHC3H3NHC2H3CNC5H2CSH10FeHC4HC2H2NH2C2HSFeS2FeSFeS3HFeCSH2SCHCH2CSHC8H2FeHCHCSCH4CHCHCH4CH4FeCNH2CFeCH2C2HCFeS2HSFeSFeS3FeCSH2CSCHS2CH3CHC7H4C2H3CNH5FeH5CHC3H2CH4CFeNC7HCH2CHCH5C3HFeCH3
_chemical_formula_sum              "Fe96 S192 H864 N48 C720"
_cell_length_a       58.6698
_cell_length_b       58.4405
_cell_length_c       35.8538
_cell_angle_alpha    90.304
_cell_angle_beta     89.4433
_cell_angle_gamma    119.714

_space_group_name_H-M_alt    "P 1"
_space_group_IT_number       1

loop_
  _space_group_symop_operation_xyz
  'x, y, z'

loop_
  _atom_site_type_symbol
  _atom_site_label
  _atom_site_symmetry_multiplicity
  _atom_site_fract_x
  _atom_site_fract_y
  _atom_site_fract_z
  _atom_site_occupancy
  Fe  Fe1       1.0  0.15518  0.46588  0.37502  1.0000
  S   S1        1.0  0.15214  0.44068  0.32502  1.0000
  S   S2        1.0  0.16930  0.46009  0.43131  1.0000
  H   H1        1.0  0.09355  0.48689  0.24821  1.0000
  S   S3        1.0  0.14561  0.48328  0.27550  1.0000
  Fe  Fe2       1.0  0.11853  0.44662  0.30727  1.0000
  S   S4        1.0  0.08446  0.42002  0.26925  1.0000
  Fe  Fe3       1.0  0.17928  0.47909  0.29702  1.0000
  S   S5        1.0  0.21132  0.48555  0.25436  1.0000
  S   S6        1.0  0.11932  0.46844  0.35962  1.0000
  H   H2        1.0  0.05547  0.48508  0.33343  1.0000
  H   H3        1.0  0.16199  0.40213  0.27307  1.0000
  H   H4        1.0  0.23190  0.41805  0.26343  1.0000
  S   S7        1.0  0.30238  0.45623  0.26834  1.0000
  N   N1        1.0  0.06056  0.48791  0.27378  1.0000
  H   H5        1.0  0.20807  0.42891  0.42567  1.0000
  H   H6        1.0  0.22545  0.38562  0.27707  1.0000
  C   C1        1.0  0.21678  0.39679  0.26408  1.0000
  H   H7        1.0  0.23899  0.41332  0.32672  1.0000
  H   H8        1.0  0.18228  0.50731  0.20041  1.0000
  C   C2        1.0  0.19712  0.40141  0.32336  1.0000
  C   C3        1.0  0.22198  0.41186  0.34087  1.0000
  C   C4        1.0  0.23805  0.47951  0.25961  1.0000
  C   C5        1.0  0.25304  0.48078  0.22797  1.0000
  C   C6        1.0  0.27350  0.47473  0.23034  1.0000
  C   C7        1.0  0.27927  0.46742  0.26452  1.0000
  C   C8        1.0  0.26501  0.46722  0.29643  1.0000
  C   C9        1.0  0.24436  0.47296  0.29401  1.0000
  C   C10       1.0  0.03201  0.47649  0.26755  1.0000
  H   H9        1.0  0.28422  0.47492  0.20549  1.0000
  H   H10       1.0  0.15392  0.35920  0.29429  1.0000
  H   H11       1.0  0.23316  0.47205  0.31870  1.0000
  C   C11       1.0  0.15340  0.45590  0.47509  1.0000
  N   N2        1.0  0.19260  0.39244  0.28401  1.0000
  C   C12       1.0  0.12662  0.44756  0.47800  1.0000
  Fe  Fe4       1.0  0.33597  0.46403  0.22758  1.0000
  H   H12       1.0  0.11515  0.44400  0.45301  1.0000
  C   C13       1.0  0.03418  0.39538  0.24236  1.0000
  C   C14       1.0  0.04976  0.40418  0.27454  1.0000
  C   C15       1.0  0.03737  0.39982  0.30942  1.0000
  H   H13       1.0  0.26963  0.46205  0.32312  1.0000
  H   H14       1.0  0.04352  0.39853  0.21525  1.0000
  H   H15       1.0  0.04906  0.40631  0.33445  1.0000
  H   H16       1.0  0.18007  0.40226  0.23282  1.0000
  H   H17       1.0  0.18042  0.35244  0.29910  1.0000
  C   C16       1.0  0.18186  0.40687  0.26317  1.0000
  H   H18       1.0  0.16419  0.40939  0.39774  1.0000
  H   H19       1.0  0.33459  0.51170  0.26113  1.0000
  H   H20       1.0  0.21289  0.39030  0.23443  1.0000
  C   C17       1.0  0.17339  0.36384  0.28269  1.0000
  C   C18       1.0  0.17620  0.39991  0.34544  1.0000
  H   H21       1.0  0.16998  0.35619  0.25356  1.0000
  H   H22       1.0  0.32572  0.42648  0.01824  1.0000
  H   H23       1.0  0.19476  0.42855  0.26611  1.0000
  H   H24       1.0  0.24502  0.43002  0.38995  1.0000
  H   H25       1.0  0.06839  0.48335  0.21625  1.0000
  C   C19       1.0  0.07198  0.47832  0.24467  1.0000
  H   H26       1.0  0.08629  0.48899  0.31731  1.0000
  H   H27       1.0  0.15660  0.39166  0.33443  1.0000
  S   S8        1.0  0.34417  0.43415  0.19894  1.0000
  C   C20       1.0  0.16802  0.46042  0.50788  1.0000
  S   S9        1.0  0.18400  0.50420  0.34732  1.0000
  H   H28       1.0  0.33430  0.49696  0.31981  1.0000
  H   H29       1.0  0.06365  0.45659  0.24567  1.0000
  C   C21       1.0  0.22577  0.42154  0.37743  1.0000
  C   C22       1.0  0.20502  0.42080  0.39768  1.0000
  H   H30       1.0  0.24840  0.48582  0.20119  1.0000
  C   C23       1.0  0.18024  0.40976  0.38185  1.0000
  C   C24       1.0  0.34019  0.44716  0.01606  1.0000
  H   H31       1.0  0.05721  0.45797  0.31244  1.0000
  C   C25       1.0  0.06498  0.47959  0.31080  1.0000
  Fe  Fe5       1.0  0.14799  0.50480  0.32819  1.0000
  H   H32       1.0  0.02296  0.43566  0.27225  1.0000
  H   H33       1.0  0.18874  0.46686  0.50587  1.0000
  S   S10       1.0  0.34372  0.44494  0.09234  1.0000
  S   S11       1.0  0.34746  0.49115  0.17821  1.0000
  C   C26       1.0  0.01995  0.49213  0.26151  1.0000
  H   H34       1.0  0.03090  0.51340  0.26126  1.0000
  H   H35       1.0  0.17101  0.51010  0.46659  1.0000
  H   H36       1.0  0.35134  0.47558  0.35998  1.0000
  H   H37       1.0  0.22236  0.40728  0.81827  1.0000
  S   S12       1.0  0.14220  0.48454  0.74736  1.0000
  Fe  Fe6       1.0  0.12930  0.45569  0.64678  1.0000
  S   S13       1.0  0.13899  0.43663  0.69423  1.0000
  S   S14       1.0  0.11233  0.43883  0.58976  1.0000
  Fe  Fe7       1.0  0.11114  0.44452  0.72851  1.0000
  S   S15       1.0  0.08319  0.41426  0.77032  1.0000
  Fe  Fe8       1.0  0.16957  0.47805  0.70994  1.0000
  C   C27       1.0  0.01981  0.42487  0.76391  1.0000
  S   S16       1.0  0.09927  0.46032  0.68039  1.0000
  H   H38       1.0  0.02863  0.40949  0.67278  1.0000
  Fe  Fe9       1.0  0.32212  0.46481  0.81183  1.0000
  S   S17       1.0  0.21103  0.49534  0.73304  1.0000
  S   S18       1.0  0.27986  0.44563  0.79050  1.0000
  H   H39       1.0  0.29226  0.46308  0.66534  1.0000
  H   H40       1.0  0.18710  0.41379  0.79621  1.0000
  C   C28       1.0  0.22171  0.44558  0.88905  1.0000
  H   H41       1.0  0.15070  0.44181  0.88505  1.0000
  C   C29       1.0  0.22922  0.43038  0.86780  1.0000
  H   H42       1.0  0.19625  0.46155  0.89454  1.0000
  C   C30       1.0  0.14503  0.43292  0.85683  1.0000
  H   H43       1.0  0.16733  0.45939  0.56826  1.0000
  C   C31       1.0  0.22963  0.48087  0.74884  1.0000
  C   C32       1.0  0.22337  0.45518  0.73934  1.0000
  C   C33       1.0  0.23931  0.44497  0.75166  1.0000
  C   C34       1.0  0.26148  0.46015  0.77388  1.0000
  C   C35       1.0  0.26767  0.48581  0.78344  1.0000
  H   H44       1.0  0.04527  0.49071  0.78282  1.0000
  H   H45       1.0  0.20655  0.44335  0.72200  1.0000
  H   H46       1.0  0.23436  0.42510  0.74410  1.0000
  C   C36       1.0  0.26744  0.51309  0.67503  1.0000
  C   C37       1.0  0.19581  0.42279  0.82251  1.0000
  C   C38       1.0  0.15596  0.45630  0.54329  1.0000
  C   C39       1.0  0.12898  0.44695  0.54615  1.0000
  C   C40       1.0  0.28647  0.47790  0.66804  1.0000
  H   H47       1.0  0.31565  0.49382  0.75298  1.0000
  H   H48       1.0  0.14746  0.41146  0.79227  1.0000
  C   C41       1.0  0.21604  0.41872  0.83496  1.0000
  C   C42       1.0  0.03264  0.39021  0.79855  1.0000
  C   C43       1.0  0.05168  0.41092  0.77668  1.0000
  C   C44       1.0  0.04518  0.42836  0.75969  1.0000
  H   H49       1.0  0.03755  0.37668  0.81191  1.0000
  H   H50       1.0  0.05963  0.44444  0.74295  1.0000
  N   N3        1.0  0.16740  0.44436  0.83014  1.0000
  H   H51       1.0  0.12866  0.43599  0.84736  1.0000
  C   C45       1.0  0.33851  0.49185  0.68989  1.0000
  C   C46       1.0  0.17806  0.47328  0.82814  1.0000
  C   C47       1.0  0.18811  0.43879  0.84299  1.0000
  C   C48       1.0  0.15696  0.43333  0.79269  1.0000
  C   C49       1.0  0.20132  0.44958  0.87710  1.0000
  H   H52       1.0  0.33904  0.48899  0.65927  1.0000
  H   H53       1.0  0.13622  0.49415  0.58348  1.0000
  H   H54       1.0  0.13696  0.41128  0.85975  1.0000
  H   H55       1.0  0.14150  0.43790  0.78388  1.0000
  H   H56       1.0  0.16356  0.47827  0.81653  1.0000
  H   H57       1.0  0.28435  0.49757  0.80106  1.0000
  H   H58       1.0  0.19588  0.48276  0.80995  1.0000
  H   H59       1.0  0.03621  0.34703  0.72149  1.0000
  H   H60       1.0  0.09355  0.43552  0.51535  1.0000
  S   S19       1.0  0.33379  0.44549  0.85643  1.0000
  H   H61       1.0  0.32586  0.47239  0.70340  1.0000
  H   H62       1.0  0.24553  0.42788  0.87641  1.0000
  H   H63       1.0  0.17267  0.44173  0.77095  1.0000
  Fe  Fe10      1.0  0.13257  0.49988  0.69633  1.0000
  C   C50       1.0  0.25194  0.49614  0.77073  1.0000
  H   H64       1.0  0.24887  0.45153  0.64373  1.0000
  S   S20       1.0  0.16202  0.49653  0.65969  1.0000
  H   H65       1.0  0.23205  0.45460  0.91464  1.0000
  C   C51       1.0  0.26135  0.47093  0.65542  1.0000
  C   C52       1.0  0.30297  0.50299  0.68438  1.0000
  H   H66       1.0  0.18360  0.48301  0.85580  1.0000
  C   C53       1.0  0.02378  0.35491  0.71295  1.0000
  H   H67       1.0  0.33730  0.44799  0.95601  1.0000
  C   C54       1.0  0.03509  0.37936  0.69544  1.0000
  C   C55       1.0  0.11444  0.44280  0.51339  1.0000
  H   H68       1.0  0.05614  0.39038  0.69060  1.0000
  N   N4        1.0  0.32942  0.51090  0.69889  1.0000
  C   C56       1.0  0.34690  0.45927  0.98065  1.0000
  C   C57       1.0  0.02940  0.49516  0.78132  1.0000
  H   H69       1.0  0.11791  0.50188  0.61581  1.0000
  C   C58       1.0  0.12328  0.50294  0.58571  1.0000
  H   H70       1.0  0.10506  0.48982  0.57004  1.0000
  C   C59       1.0  0.25188  0.48849  0.65886  1.0000
  H   H71       1.0  0.23209  0.48273  0.65022  1.0000
  S   S21       1.0  0.34936  0.50591  0.83269  1.0000
  S   S22       1.0  0.35144  0.46525  0.77074  1.0000
  H   H72       1.0  0.16376  0.51051  0.53368  1.0000
  C   C60       1.0  0.32906  0.51322  0.74002  1.0000
  C   C61       1.0  0.01950  0.39010  0.68544  1.0000
  H   H73       1.0  0.34586  0.76776  0.23684  1.0000
  C   C62       1.0  0.18114  0.59191  0.17293  1.0000
  S   S23       1.0  0.30814  0.83041  0.32297  1.0000
  C   C63       1.0  0.03108  0.64133  0.23244  1.0000
  H   H74       1.0  0.22476  0.56827  0.25214  1.0000
  C   C64       1.0  0.19240  0.55891  0.19460  1.0000
  Fe  Fe11      1.0  0.13546  0.66270  0.21337  1.0000
  S   S24       1.0  0.15200  0.64129  0.18031  1.0000
  S   S25       1.0  0.09657  0.63366  0.24178  1.0000
  Fe  Fe12      1.0  0.18776  0.71546  0.20748  1.0000
  S   S26       1.0  0.20710  0.69682  0.17491  1.0000
  S   S27       1.0  0.21147  0.76034  0.21526  1.0000
  Fe  Fe13      1.0  0.16975  0.67631  0.14197  1.0000
  S   S28       1.0  0.17640  0.67087  0.08032  1.0000
  Fe  Fe14      1.0  0.18760  0.66339  0.21552  1.0000
  S   S29       1.0  0.20915  0.64345  0.23838  1.0000
  S   S30       1.0  0.15081  0.69665  0.17220  1.0000
  S   S31       1.0  0.17082  0.68332  0.25087  1.0000
  C   C65       1.0  0.23668  0.56540  0.18010  1.0000
  C   C66       1.0  0.18941  0.61438  0.26395  1.0000
  C   C67       1.0  0.16304  0.60613  0.27167  1.0000
  C   C68       1.0  0.14753  0.58261  0.29142  1.0000
  C   C69       1.0  0.15815  0.56697  0.30301  1.0000
  C   C70       1.0  0.18455  0.57528  0.29555  1.0000
  C   C71       1.0  0.20019  0.59905  0.27631  1.0000
  H   H75       1.0  0.15461  0.61793  0.26251  1.0000
  H   H76       1.0  0.12723  0.57653  0.29752  1.0000
  H   H77       1.0  0.19300  0.56368  0.30537  1.0000
  H   H78       1.0  0.22070  0.60573  0.27099  1.0000
  C   C72       1.0  0.16254  0.67565  0.03940  1.0000
  C   C73       1.0  0.32643  0.78961  0.21972  1.0000
  C   C74       1.0  0.14192  0.68119  0.04037  1.0000
  H   H79       1.0  0.30728  0.72401  0.23040  1.0000
  H   H80       1.0  0.13392  0.68280  0.06694  1.0000
  C   C75       1.0  0.28230  0.81125  0.29127  1.0000
  C   C76       1.0  0.26714  0.78386  0.29694  1.0000
  C   C77       1.0  0.24570  0.76794  0.27368  1.0000
  C   C78       1.0  0.23887  0.77930  0.24472  1.0000
  C   C79       1.0  0.25414  0.80669  0.23894  1.0000
  C   C80       1.0  0.27585  0.82256  0.26183  1.0000
  H   H81       1.0  0.27188  0.77483  0.31958  1.0000
  H   H82       1.0  0.23423  0.74693  0.27847  1.0000
  H   H83       1.0  0.24900  0.81571  0.21672  1.0000
  H   H84       1.0  0.28707  0.84361  0.25731  1.0000
  H   H85       1.0  0.11766  0.66080  0.32183  1.0000
  H   H86       1.0  0.21868  0.59605  0.16546  1.0000
  H   H87       1.0  0.02856  0.68674  0.33926  1.0000
  H   H88       1.0  0.24726  0.58569  0.19196  1.0000
  C   C81       1.0  0.06416  0.62875  0.24468  1.0000
  C   C82       1.0  0.05689  0.64572  0.22792  1.0000
  H   H89       1.0  0.29726  0.87609  0.48210  1.0000
  H   H90       1.0  0.07118  0.66229  0.21171  1.0000
  C   C83       1.0  0.05023  0.65438  0.35198  1.0000
  C   C84       1.0  0.32783  0.76652  0.22751  1.0000
  H   H91       1.0  0.34375  0.81716  0.28324  1.0000
  H   H92       1.0  0.25000  0.55707  0.18340  1.0000
  H   H93       1.0  0.09353  0.63351  0.37639  1.0000
  H   H94       1.0  0.26147  0.75816  0.19414  1.0000
  N   N5        1.0  0.02444  0.65108  0.36349  1.0000
  H   H95       1.0  0.27767  0.80706  0.44972  1.0000
  C   C85       1.0  0.21641  0.54836  0.23946  1.0000
  H   H96       1.0  0.05787  0.68030  0.30353  1.0000
  N   N6        1.0  0.21107  0.54898  0.19925  1.0000
  C   C86       1.0  0.31569  0.85121  0.48055  1.0000
  C   C87       1.0  0.01948  0.60278  0.26989  1.0000
  H   H97       1.0  0.12923  0.54257  0.21817  1.0000
  C   C88       1.0  0.30592  0.74137  0.22376  1.0000
  C   C89       1.0  0.16650  0.54446  0.20922  1.0000
  C   C90       1.0  0.14857  0.55348  0.20565  1.0000
  C   C91       1.0  0.19928  0.58312  0.17643  1.0000
  H   H98       1.0  0.29642  0.85059  0.38957  1.0000
  C   C92       1.0  0.09937  0.65955  0.33091  1.0000
  H   H99       1.0  0.32942  0.55771  0.29227  1.0000
  C   C93       1.0  0.06147  0.64154  0.37201  1.0000
  C   C94       1.0  0.30685  0.86751  0.49755  1.0000
  H   H100      1.0  0.18703  0.61090  0.16023  1.0000
  H   H101      1.0  0.09675  0.52512  0.27703  1.0000
  H   H102      1.0  0.29853  0.80207  0.20133  1.0000
  H   H103      1.0  0.21372  0.72708  0.05836  1.0000
  Fe  Fe15      1.0  0.34423  0.87170  0.31899  1.0000
  C   C95       1.0  0.19620  0.75136  0.05081  1.0000
  C   C96       1.0  0.30182  0.78587  0.20741  1.0000
  H   H104      1.0  0.23060  0.54124  0.24413  1.0000
  H   H105      1.0  0.05073  0.59408  0.27875  1.0000
  C   C97       1.0  0.06492  0.67024  0.32113  1.0000
  H   H106      1.0  0.30748  0.80548  0.44659  1.0000
  H   H107      1.0  0.03051  0.64986  0.42266  1.0000
  C   C98       1.0  0.08560  0.64402  0.36139  1.0000
  C   C99       1.0  0.29855  0.85600  0.41972  1.0000
  H   H108      1.0  0.33631  0.82966  0.49291  1.0000
  H   H109      1.0  0.07342  0.52491  0.24533  1.0000
  H   H110      1.0  0.27836  0.84876  0.43084  1.0000
  N   N7        1.0  0.31237  0.84449  0.44032  1.0000
  H   H111      1.0  0.05146  0.62913  0.39570  1.0000
  C   C100      1.0  0.29710  0.81549  0.43542  1.0000
  H   H112      1.0  0.23407  0.56670  0.14961  1.0000
  H   H113      1.0  0.04167  0.68223  0.40394  1.0000
  C   C101      1.0  0.15587  0.57714  0.18749  1.0000
  C   C102      1.0  0.04529  0.60729  0.26564  1.0000
  H   H114      1.0  0.19021  0.74991  0.07983  1.0000
  C   C103      1.0  0.08917  0.67280  0.31109  1.0000
  H   H115      1.0  0.34277  0.55773  0.33736  1.0000
  H   H116      1.0  0.19841  0.53492  0.25556  1.0000
  C   C104      1.0  0.15967  0.51881  0.47730  1.0000
  C   C105      1.0  0.34503  0.83808  0.21587  1.0000
  H   H117      1.0  0.09965  0.68416  0.28662  1.0000
  H   H118      1.0  0.32055  0.52729  0.31471  1.0000
  C   C106      1.0  0.19024  0.76563  0.02557  1.0000
  H   H119      1.0  0.14225  0.58457  0.18585  1.0000
  H   H120      1.0  0.29348  0.80995  0.40531  1.0000
  C   C107      1.0  0.28015  0.76060  0.20326  1.0000
  H   H121      1.0  0.33001  0.83806  0.23521  1.0000
  H   H122      1.0  0.02569  0.65464  0.21951  1.0000
  C   C108      1.0  0.02608  0.66119  0.40196  1.0000
  H   H123      1.0  0.26503  0.71893  0.20923  1.0000
  H   H124      1.0  0.17969  0.77543  0.03517  1.0000
  C   C109      1.0  0.28211  0.73843  0.21174  1.0000
  S   S32       1.0  0.13796  0.53743  0.32733  1.0000
  H   H125      1.0  0.16015  0.52643  0.22448  1.0000
  H   H126      1.0  0.33685  0.84995  0.39216  1.0000
  H   H127      1.0  0.15227  0.52868  0.42269  1.0000
  H   H128      1.0  0.06884  0.52584  0.29533  1.0000
  C   C110      1.0  0.14912  0.52926  0.45250  1.0000
  C   C111      1.0  0.13446  0.54037  0.46604  1.0000
  C   C112      1.0  0.33723  0.54755  0.30985  1.0000
  H   H129      1.0  0.33855  0.83732  0.18662  1.0000
  H   H130      1.0  0.30965  0.87793  0.42068  1.0000
  C   C113      1.0  0.33848  0.85443  0.42252  1.0000
  H   H131      1.0  0.34992  0.84582  0.43455  1.0000
  C   C114      1.0  0.19960  0.52184  0.18403  1.0000
  N   N8        1.0  0.34991  0.81601  0.22420  1.0000
  H   H132      1.0  0.12636  0.54851  0.44647  1.0000
  H   H133      1.0  0.21379  0.51440  0.18497  1.0000
  H   H134      1.0  0.34418  0.54134  0.23602  1.0000
  C   C115      1.0  0.20958  0.73858  0.03864  1.0000
  H   H135      1.0  0.19341  0.52099  0.15458  1.0000
  C   C116      1.0  0.32859  0.84171  0.50395  1.0000
  C   C117      1.0  0.13015  0.54099  0.50444  1.0000
  C   C118      1.0  0.07536  0.51719  0.27273  1.0000
  H   H136      1.0  0.35052  0.87612  0.42585  1.0000
  C   C119      1.0  0.35107  0.53201  0.25667  1.0000
  H   H137      1.0  0.05334  0.53305  0.75605  1.0000
  C   C120      1.0  0.03388  0.51898  0.76628  1.0000
  S   S33       1.0  0.29635  0.84975  0.71618  1.0000
  H   H138      1.0  0.18881  0.66959  0.00365  1.0000
  C   C121      1.0  0.11947  0.54179  0.58234  1.0000
  C   C122      1.0  0.21069  0.75375  0.97444  1.0000
  Fe  Fe16      1.0  0.13028  0.67812  0.78878  1.0000
  S   S34       1.0  0.12013  0.64891  0.83483  1.0000
  S   S35       1.0  0.10062  0.66949  0.74248  1.0000
  Fe  Fe17      1.0  0.18730  0.71281  0.81511  1.0000
  S   S36       1.0  0.18080  0.68495  0.86256  1.0000
  S   S37       1.0  0.22950  0.74750  0.81743  1.0000
  Fe  Fe18      1.0  0.15902  0.65222  0.82173  1.0000
  S   S38       1.0  0.16418  0.61653  0.82582  1.0000
  Fe  Fe19      1.0  0.14264  0.68380  0.87230  1.0000
  S   S39       1.0  0.12732  0.68546  0.93036  1.0000
  S   S40       1.0  0.16856  0.67966  0.77327  1.0000
  S   S41       1.0  0.14978  0.71351  0.82723  1.0000
  S   S42       1.0  0.12624  0.53493  0.69146  1.0000
  C   C123      1.0  0.15327  0.59403  0.78832  1.0000
  C   C124      1.0  0.15763  0.57252  0.78923  1.0000
  C   C125      1.0  0.14937  0.55431  0.75971  1.0000
  C   C126      1.0  0.13651  0.55737  0.72914  1.0000
  C   C127      1.0  0.13186  0.57874  0.72840  1.0000
  C   C128      1.0  0.14024  0.59706  0.75790  1.0000
  H   H139      1.0  0.16776  0.57012  0.81263  1.0000
  H   H140      1.0  0.15328  0.53812  0.76048  1.0000
  H   H141      1.0  0.12196  0.58128  0.70483  1.0000
  H   H142      1.0  0.13675  0.61358  0.75701  1.0000
  C   C129      1.0  0.16267  0.67743  0.97119  1.0000
  C   C130      1.0  0.14173  0.68246  0.97205  1.0000
  C   C131      1.0  0.02242  0.69093  0.56637  1.0000
  H   H143      1.0  0.17096  0.67614  0.94480  1.0000
  H   H144      1.0  0.19227  0.77817  0.96949  1.0000
  C   C132      1.0  0.27798  0.82191  0.74554  1.0000
  C   C133      1.0  0.28912  0.81634  0.77604  1.0000
  C   C134      1.0  0.27392  0.79359  0.79776  1.0000
  C   C135      1.0  0.24734  0.77623  0.78955  1.0000
  C   C136      1.0  0.23603  0.78208  0.75958  1.0000
  C   C137      1.0  0.25129  0.80479  0.73774  1.0000
  H   H145      1.0  0.30932  0.82973  0.78316  1.0000
  H   H146      1.0  0.28283  0.78936  0.82102  1.0000
  H   H147      1.0  0.21560  0.76905  0.75301  1.0000
  H   H148      1.0  0.24238  0.80903  0.71446  1.0000
  Fe  Fe20      1.0  0.34018  0.87909  0.70849  1.0000
  H   H149      1.0  0.09954  0.53049  0.57007  1.0000
  C   C138      1.0  0.02698  0.62608  0.78667  1.0000
  C   C139      1.0  0.06646  0.64753  0.74818  1.0000
  C   C140      1.0  0.05447  0.64171  0.78340  1.0000
  C   C141      1.0  0.05074  0.63664  0.71643  1.0000
  H   H150      1.0  0.06630  0.65006  0.80802  1.0000
  H   H151      1.0  0.05993  0.64081  0.68913  1.0000
  C   C142      1.0  0.28669  0.73447  0.75440  1.0000
  N   N9        1.0  0.10565  0.60031  0.92763  1.0000
  C   C143      1.0  0.09637  0.61166  0.95735  1.0000
  C   C144      1.0  0.10410  0.57598  0.94267  1.0000
  C   C145      1.0  0.13357  0.61972  0.91987  1.0000
  C   C146      1.0  0.09041  0.59416  0.89266  1.0000
  C   C147      1.0  0.09701  0.58327  0.86165  1.0000
  C   C148      1.0  0.06928  0.59927  0.88783  1.0000
  C   C149      1.0  0.15542  0.51921  0.51571  1.0000
  H   H152      1.0  0.30341  0.53917  0.70135  1.0000
  H   H153      1.0  0.04198  0.70570  0.55752  1.0000
  H   H154      1.0  0.11312  0.57926  0.86286  1.0000
  H   H155      1.0  0.32695  0.86954  0.58682  1.0000
  H   H156      1.0  0.05427  0.58168  0.79687  1.0000
  H   H157      1.0  0.11438  0.57968  0.96988  1.0000
  C   C150      1.0  0.31074  0.87374  0.53554  1.0000
  C   C151      1.0  0.13147  0.68441  0.00678  1.0000
  H   H158      1.0  0.14280  0.61237  0.89943  1.0000
  H   H159      1.0  0.13553  0.63825  0.90830  1.0000
  H   H160      1.0  0.14568  0.62497  0.94553  1.0000
  C   C152      1.0  0.17277  0.67373  0.00463  1.0000
  H   H161      1.0  0.06298  0.60785  0.90951  1.0000
  C   C153      1.0  0.29255  0.52026  0.68778  1.0000
  H   H162      1.0  0.09770  0.63047  0.94816  1.0000
  H   H163      1.0  0.11660  0.54133  0.61321  1.0000
  H   H164      1.0  0.12859  0.56286  0.57406  1.0000
  H   H165      1.0  0.10862  0.61669  0.98292  1.0000
  N   N10       1.0  0.21750  0.75493  0.93430  1.0000
  C   C154      1.0  0.19340  0.74471  0.91158  1.0000
  C   C155      1.0  0.23568  0.78260  0.92319  1.0000
  C   C156      1.0  0.23032  0.73920  0.92457  1.0000
  H   H166      1.0  0.17472  0.53706  0.58638  1.0000
  H   H167      1.0  0.22642  0.72862  0.99368  1.0000
  H   H168      1.0  0.29908  0.79388  0.69302  1.0000
  H   H169      1.0  0.25700  0.51607  0.77812  1.0000
  C   C157      1.0  0.14048  0.53027  0.53054  1.0000
  H   H170      1.0  0.24576  0.72090  0.74479  1.0000
  H   H171      1.0  0.18333  0.75644  0.91472  1.0000
  H   H172      1.0  0.19771  0.74477  0.88125  1.0000
  H   H173      1.0  0.17907  0.72416  0.91958  1.0000
  H   H174      1.0  0.22659  0.79527  0.92637  1.0000
  H   H175      1.0  0.24169  0.78397  0.89325  1.0000
  H   H176      1.0  0.25379  0.79136  0.94033  1.0000
  H   H177      1.0  0.21731  0.71796  0.93120  1.0000
  H   H178      1.0  0.23485  0.74016  0.89418  1.0000
  H   H179      1.0  0.24930  0.74655  0.93925  1.0000
  H   H180      1.0  0.17260  0.56638  0.57958  1.0000
  C   C158      1.0  0.26584  0.73589  0.73859  1.0000
  C   C159      1.0  0.21673  0.73961  0.00109  1.0000
  C   C160      1.0  0.33242  0.84813  0.54186  1.0000
  C   C161      1.0  0.08392  0.57860  0.82767  1.0000
  N   N11       1.0  0.13621  0.53033  0.57137  1.0000
  H   H181      1.0  0.34296  0.84129  0.55898  1.0000
  C   C162      1.0  0.29649  0.77718  0.70925  1.0000
  C   C163      1.0  0.16181  0.54582  0.59030  1.0000
  C   C164      1.0  0.31258  0.75429  0.74762  1.0000
  C   C165      1.0  0.27076  0.75706  0.71575  1.0000
  H   H182      1.0  0.15925  0.54680  0.62106  1.0000
  C   C166      1.0  0.34796  0.82243  0.73637  1.0000
  H   H183      1.0  0.08331  0.56037  0.94703  1.0000
  H   H184      1.0  0.02518  0.66439  0.67183  1.0000
  C   C167      1.0  0.32342  0.86404  0.55763  1.0000
  C   C168      1.0  0.19746  0.76697  0.98798  1.0000
  C   C169      1.0  0.06369  0.58434  0.82363  1.0000
  H   H185      1.0  0.03387  0.69297  0.62262  1.0000
  C   C170      1.0  0.31826  0.77636  0.72476  1.0000
  H   H186      1.0  0.25445  0.75841  0.70423  1.0000
  H   H187      1.0  0.25949  0.52620  0.67910  1.0000
  H   H188      1.0  0.07577  0.59775  0.96588  1.0000
  H   H189      1.0  0.34868  0.53647  0.65217  1.0000
  H   H190      1.0  0.11347  0.56789  0.92367  1.0000
  H   H191      1.0  0.04082  0.59933  0.85022  1.0000
  H   H192      1.0  0.28263  0.71806  0.77254  1.0000
  H   H193      1.0  0.09023  0.57140  0.80402  1.0000
  H   H194      1.0  0.11859  0.54986  0.51290  1.0000
  C   C171      1.0  0.05623  0.59440  0.85373  1.0000
  H   H195      1.0  0.33803  0.81041  0.66467  1.0000
  H   H196      1.0  0.30450  0.88673  0.54791  1.0000
  C   C172      1.0  0.02329  0.62042  0.71980  1.0000
  H   H197      1.0  0.34711  0.78520  0.66281  1.0000
  H   H198      1.0  0.32255  0.52724  0.74934  1.0000
  N   N12       1.0  0.34527  0.79837  0.71834  1.0000
  H   H199      1.0  0.34878  0.52023  0.75205  1.0000
  H   H200      1.0  0.34614  0.55316  0.69305  1.0000
  C   C173      1.0  0.34914  0.53681  0.68319  1.0000
  H   H201      1.0  0.33458  0.82873  0.72414  1.0000
  H   H202      1.0  0.32773  0.75206  0.76109  1.0000
  H   H203      1.0  0.34343  0.81927  0.76674  1.0000
  H   H204      1.0  0.11533  0.68840  0.00778  1.0000
  C   C174      1.0  0.35050  0.80335  0.67773  1.0000
  Fe  Fe21      1.0  0.53384  0.15958  0.18366  1.0000
  S   S43       1.0  0.51006  0.15214  0.23589  1.0000
  S   S44       1.0  0.57750  0.17525  0.17855  1.0000
  Fe  Fe22      1.0  0.48576  0.13129  0.13443  1.0000
  S   S45       1.0  0.45774  0.12091  0.18330  1.0000
  S   S46       1.0  0.47670  0.11388  0.07588  1.0000
  Fe  Fe23      1.0  0.48479  0.16300  0.20206  1.0000
  S   S47       1.0  0.46579  0.18469  0.23035  1.0000
  Fe  Fe24      1.0  0.48491  0.11101  0.21432  1.0000
  S   S48       1.0  0.47953  0.07882  0.25502  1.0000
  S   S49       1.0  0.51075  0.17387  0.15072  1.0000
  S   S50       1.0  0.51059  0.11798  0.16433  1.0000
  Fe  Fe25      1.0  0.46885  0.35582  0.31396  1.0000
  S   S51       1.0  0.49120  0.37996  0.36372  1.0000
  S   S52       1.0  0.43252  0.35322  0.28689  1.0000
  Fe  Fe26      1.0  0.50486  0.33238  0.30181  1.0000
  S   S53       1.0  0.53077  0.35567  0.34943  1.0000
  S   S54       1.0  0.51618  0.30804  0.26336  1.0000
  Fe  Fe27      1.0  0.49358  0.34434  0.38158  1.0000
  S   S55       1.0  0.49707  0.33123  0.43994  1.0000
  Fe  Fe28      1.0  0.52713  0.38981  0.32912  1.0000
  S   S56       1.0  0.56133  0.43144  0.33445  1.0000
  S   S57       1.0  0.46772  0.31871  0.33512  1.0000
  S   S58       1.0  0.50471  0.36810  0.27819  1.0000
  S   S59       1.0  0.64923  0.47157  0.20837  1.0000
  Fe  Fe29      1.0  0.66051  0.14957  0.32039  1.0000
  S   S60       1.0  0.63228  0.16531  0.32487  1.0000
  C   C175      1.0  0.55840  0.09722  0.22299  1.0000
  S   S61       1.0  0.64267  0.10780  0.33949  1.0000
  Fe  Fe30      1.0  0.38599  0.45763  0.21935  1.0000
  S   S62       1.0  0.39970  0.48400  0.16882  1.0000
  S   S63       1.0  0.41882  0.45200  0.24418  1.0000
  H   H205      1.0  0.63931  0.19362  0.45751  1.0000
  H   H206      1.0  0.54914  0.19252  0.32893  1.0000
  C   C176      1.0  0.63369  0.03678  0.24448  1.0000
  Fe  Fe31      1.0  0.68058  0.12086  0.36942  1.0000
  H   H207      1.0  0.45889  0.48878  0.19238  1.0000
  H   H208      1.0  0.46236  0.50615  0.25427  1.0000
  C   C177      1.0  0.45590  0.23323  0.16737  1.0000
  C   C178      1.0  0.42894  0.38087  0.27522  1.0000
  C   C179      1.0  0.40536  0.37673  0.25920  1.0000
  C   C180      1.0  0.40180  0.39815  0.24952  1.0000
  C   C181      1.0  0.42185  0.42402  0.25573  1.0000
  C   C182      1.0  0.44547  0.42815  0.27158  1.0000
  C   C183      1.0  0.44902  0.40675  0.28129  1.0000
  H   H209      1.0  0.38968  0.35681  0.25442  1.0000
  H   H210      1.0  0.38353  0.39463  0.23737  1.0000
  H   H211      1.0  0.46109  0.44804  0.27662  1.0000
  H   H212      1.0  0.46723  0.41027  0.29361  1.0000
  C   C184      1.0  0.58631  0.44182  0.30030  1.0000
  C   C185      1.0  0.60898  0.46659  0.30375  1.0000
  C   C186      1.0  0.62850  0.47591  0.27576  1.0000
  C   C187      1.0  0.62548  0.46039  0.24434  1.0000
  C   C188      1.0  0.60311  0.43540  0.24138  1.0000
  C   C189      1.0  0.58351  0.42617  0.26919  1.0000
  H   H213      1.0  0.61138  0.47865  0.32800  1.0000
  H   H214      1.0  0.64603  0.49491  0.27862  1.0000
  H   H215      1.0  0.60082  0.42320  0.21732  1.0000
  H   H216      1.0  0.56621  0.40697  0.26642  1.0000
  C   C190      1.0  0.46917  0.34762  0.48497  1.0000
  C   C191      1.0  0.48840  0.34017  0.48275  1.0000
  H   H217      1.0  0.42616  0.27835  0.25506  1.0000
  H   H218      1.0  0.45954  0.34854  0.45989  1.0000
  H   H219      1.0  0.41616  0.20957  0.18630  1.0000
  C   C192      1.0  0.45089  0.04786  0.26240  1.0000
  H   H220      1.0  0.59988  0.02180  0.20882  1.0000
  H   H221      1.0  0.55922  0.12790  0.05191  1.0000
  C   C193      1.0  0.57530  0.49291  0.26172  1.0000
  H   H222      1.0  0.51551  0.40546  0.50309  1.0000
  C   C194      1.0  0.61766  0.16853  0.28388  1.0000
  C   C195      1.0  0.59424  0.16939  0.28676  1.0000
  C   C196      1.0  0.58177  0.17135  0.25464  1.0000
  C   C197      1.0  0.59295  0.17309  0.21938  1.0000
  C   C198      1.0  0.61657  0.17256  0.21651  1.0000
  C   C199      1.0  0.62876  0.17002  0.24861  1.0000
  H   H223      1.0  0.58570  0.16850  0.31395  1.0000
  H   H224      1.0  0.56384  0.17215  0.25728  1.0000
  H   H225      1.0  0.62541  0.17401  0.18938  1.0000
  H   H226      1.0  0.64698  0.16974  0.24611  1.0000
  C   C200      1.0  0.48116  0.21879  0.24201  1.0000
  C   C201      1.0  0.46742  0.22792  0.26431  1.0000
  C   C202      1.0  0.47820  0.25500  0.27241  1.0000
  C   C203      1.0  0.50272  0.27338  0.25770  1.0000
  C   C204      1.0  0.51662  0.26415  0.23594  1.0000
  C   C205      1.0  0.50604  0.23703  0.22836  1.0000
  H   H227      1.0  0.44817  0.21401  0.27503  1.0000
  H   H228      1.0  0.46733  0.26164  0.28950  1.0000
  H   H229      1.0  0.53560  0.27814  0.22445  1.0000
  H   H230      1.0  0.51686  0.23037  0.21115  1.0000
  C   C206      1.0  0.47882  0.13062  0.03383  1.0000
  C   C207      1.0  0.47657  0.15333  0.03325  1.0000
  H   H231      1.0  0.56384  0.38701  0.41965  1.0000
  H   H232      1.0  0.47433  0.16163  0.05915  1.0000
  C   C208      1.0  0.41524  0.08573  0.02334  1.0000
  C   C209      1.0  0.44453  0.29656  0.24728  1.0000
  H   H233      1.0  0.49574  0.26138  0.15320  1.0000
  C   C210      1.0  0.38931  0.43108  0.04205  1.0000
  H   H234      1.0  0.64372  0.16207  0.41612  1.0000
  H   H235      1.0  0.42821  0.30114  0.15821  1.0000
  H   H236      1.0  0.46965  0.34211  0.21031  1.0000
  C   C211      1.0  0.59026  0.17964  0.06026  1.0000
  H   H237      1.0  0.53094  0.08614  0.28643  1.0000
  H   H238      1.0  0.47707  0.32929  0.16927  1.0000
  C   C212      1.0  0.40381  0.01804  0.25807  1.0000
  H   H239      1.0  0.60064  0.44025  0.45719  1.0000
  H   H240      1.0  0.49055  0.49186  0.19599  1.0000
  H   H241      1.0  0.49291  0.29926  0.17418  1.0000
  H   H242      1.0  0.59388  0.08461  0.28540  1.0000
  H   H243      1.0  0.55289  0.17923  0.10163  1.0000
  H   H244      1.0  0.41900  0.07719  0.33261  1.0000
  H   H245      1.0  0.66741  0.04593  0.27792  1.0000
  S   S64       1.0  0.37632  0.48457  0.25242  1.0000
  C   C213      1.0  0.35208  0.46154  0.04865  1.0000
  Fe  Fe32      1.0  0.38841  0.50976  0.20144  1.0000
  H   H246      1.0  0.56411  0.09121  0.19660  1.0000
  C   C214      1.0  0.43241  0.22944  0.18275  1.0000
  H   H247      1.0  0.46102  0.29573  0.26106  1.0000
  H   H248      1.0  0.47167  0.03302  0.29455  1.0000
  C   C215      1.0  0.49458  0.13169  0.33185  1.0000
  C   C216      1.0  0.45147  0.27720  0.19180  1.0000
  H   H249      1.0  0.48999  0.32762  0.21421  1.0000
  H   H250      1.0  0.45792  0.21639  0.15933  1.0000
  C   C217      1.0  0.51858  0.04207  0.24373  1.0000
  H   H251      1.0  0.59896  0.08956  0.23557  1.0000
  H   H252      1.0  0.52833  0.16948  0.06663  1.0000
  C   C218      1.0  0.52857  0.17755  0.32793  1.0000
  C   C219      1.0  0.54994  0.17954  0.07100  1.0000
  C   C220      1.0  0.52102  0.15121  0.33422  1.0000
  C   C221      1.0  0.56351  0.38982  0.45040  1.0000
  H   H253      1.0  0.60100  0.11515  0.26513  1.0000
  H   H254      1.0  0.56342  0.11218  0.29534  1.0000
  H   H255      1.0  0.53793  0.09335  0.21990  1.0000
  H   H256      1.0  0.58347  0.43686  0.41497  1.0000
  H   H257      1.0  0.45211  0.10833  0.26367  1.0000
  C   C222      1.0  0.55628  0.41328  0.50086  1.0000
  H   H258      1.0  0.41284  0.47301  0.04738  1.0000
  C   C223      1.0  0.58998  0.09346  0.26056  1.0000
  H   H259      1.0  0.44618  0.09300  0.36411  1.0000
  C   C224      1.0  0.43012  0.25103  0.19476  1.0000
  C   C225      1.0  0.47720  0.25861  0.16391  1.0000
  C   C226      1.0  0.64014  0.13614  0.46096  1.0000
  H   H260      1.0  0.58240  0.39272  0.46130  1.0000
  H   H261      1.0  0.64215  0.12241  0.44261  1.0000
  N   N13       1.0  0.56144  0.08341  0.25556  1.0000
  C   C227      1.0  0.64108  0.15852  0.44600  1.0000
  H   H262      1.0  0.41173  0.24700  0.20744  1.0000
  C   C228      1.0  0.55164  0.09066  0.28936  1.0000
  N   N14       1.0  0.44890  0.29958  0.20645  1.0000
  C   C229      1.0  0.55747  0.03798  0.24980  1.0000
  H   H263      1.0  0.44331  0.13356  0.26673  1.0000
  H   H264      1.0  0.60072  0.20037  0.05010  1.0000
  H   H265      1.0  0.43612  0.13166  0.36907  1.0000
  H   H266      1.0  0.46978  0.17159  0.30797  1.0000
  C   C230      1.0  0.47479  0.13818  0.32350  1.0000
  H   H267      1.0  0.42445  0.05684  0.23302  1.0000
  H   H268      1.0  0.42976  0.14339  0.32624  1.0000
  C   C231      1.0  0.42628  0.04235  0.24939  1.0000
  H   H269      1.0  0.53105  0.42414  0.44442  1.0000
  C   C232      1.0  0.67946  0.10011  0.50180  1.0000
  H   H270      1.0  0.57941  0.45415  0.45381  1.0000
  C   C233      1.0  0.53555  0.40803  0.43900  1.0000
  Fe  Fe33      1.0  0.35767  0.46268  0.15025  1.0000
  C   C234      1.0  0.44036  0.09172  0.33440  1.0000
  H   H271      1.0  0.42447  0.31723  0.19900  1.0000
  H   H272      1.0  0.38441  0.42813  0.07155  1.0000
  C   C235      1.0  0.43991  0.11479  0.27953  1.0000
  H   H273      1.0  0.49027  0.11162  0.33565  1.0000
  H   H274      1.0  0.40877  0.11037  0.34003  1.0000
  C   C236      1.0  0.36391  0.49604  0.35224  1.0000
  C   C237      1.0  0.48330  0.16518  0.31664  1.0000
  C   C238      1.0  0.42972  0.12625  0.33966  1.0000
  C   C239      1.0  0.48026  0.50268  0.18761  1.0000
  H   H275      1.0  0.57819  0.04556  0.25406  1.0000
  N   N15       1.0  0.44673  0.11797  0.31958  1.0000
  C   C240      1.0  0.50975  0.18450  0.31904  1.0000
  H   H276      1.0  0.58664  0.48465  0.24750  1.0000
  H   H277      1.0  0.41899  0.09979  0.27488  1.0000
  H   H278      1.0  0.55264  0.07994  0.31430  1.0000
  C   C241      1.0  0.65217  0.03138  0.26037  1.0000
  H   H279      1.0  0.45012  0.08276  0.31793  1.0000
  H   H280      1.0  0.67487  0.07176  0.18317  1.0000
  N   N16       1.0  0.55900  0.41201  0.45985  1.0000
  H   H281      1.0  0.59282  0.18018  0.09117  1.0000
  C   C242      1.0  0.40542  0.45641  0.02835  1.0000
  H   H282      1.0  0.60055  0.16956  0.04857  1.0000
  H   H283      1.0  0.42855  0.05759  0.02283  1.0000
  H   H284      1.0  0.53585  0.14582  0.34004  1.0000
  H   H285      1.0  0.57081  0.11897  0.22555  1.0000
  H   H286      1.0  0.54928  0.13722  0.09389  1.0000
  C   C243      1.0  0.54604  0.05453  0.24970  1.0000
  H   H287      1.0  0.49442  0.50976  0.25888  1.0000
  H   H288      1.0  0.54763  0.37098  0.46219  1.0000
  N   N17       1.0  0.56211  0.16631  0.04999  1.0000
  C   C244      1.0  0.54932  0.13856  0.06286  1.0000
  H   H289      1.0  0.53854  0.40772  0.40832  1.0000
  H   H290      1.0  0.51796  0.38882  0.44597  1.0000
  C   C245      1.0  0.58164  0.43689  0.44602  1.0000
  C   C246      1.0  0.61407  0.01765  0.22160  1.0000
  C   C247      1.0  0.47522  0.28035  0.17610  1.0000
  S   S65       1.0  0.67729  0.14274  0.26780  1.0000
  H   H291      1.0  0.52850  0.12748  0.05371  1.0000
  C   C248      1.0  0.47246  0.32572  0.19955  1.0000
  C   C249      1.0  0.45283  0.02882  0.28379  1.0000
  S   S66       1.0  0.63509  0.06759  0.25044  1.0000
  C   C250      1.0  0.63683  0.13142  0.49938  1.0000
  C   C251      1.0  0.37077  0.48826  0.04545  1.0000
  H   H292      1.0  0.40721  0.28233  0.19633  1.0000
  H   H293      1.0  0.40238  0.11392  0.01564  1.0000
  C   C252      1.0  0.67489  0.03687  0.16776  1.0000
  C   C253      1.0  0.63861  0.17626  0.46944  1.0000
  H   H294      1.0  0.44310  0.31331  0.25970  1.0000
  H   H295      1.0  0.38478  0.01399  0.24829  1.0000
  H   H296      1.0  0.50854  0.05332  0.24318  1.0000
  H   H297      1.0  0.55873  0.20064  0.06309  1.0000
  H   H298      1.0  0.51571  0.20488  0.31280  1.0000
  H   H299      1.0  0.65554  0.48495  0.01710  1.0000
  H   H300      1.0  0.57145  0.48476  0.29059  1.0000
  Fe  Fe34      1.0  0.66166  0.10139  0.28921  1.0000
  H   H301      1.0  0.41737  0.08863  0.05329  1.0000
  S   S67       1.0  0.67565  0.10085  0.42567  1.0000
  C   C254      1.0  0.42622  0.30000  0.18914  1.0000
  H   H302      1.0  0.55630  0.48485  0.24686  1.0000
  H   H303      1.0  0.48276  0.50655  0.15708  1.0000
  H   H304      1.0  0.54099  0.49761  0.29972  1.0000
  H   H305      1.0  0.38008  0.49958  0.07022  1.0000
  C   C255      1.0  0.37847  0.40978  0.01760  1.0000
  H   H306      1.0  0.65470  0.02747  0.15849  1.0000
  H   H307      1.0  0.36530  0.39022  0.02834  1.0000
  H   H308      1.0  0.66638  0.07911  0.49915  1.0000
  C   C256      1.0  0.50346  0.01488  0.23826  1.0000
  C   C257      1.0  0.38967  0.50968  0.36487  1.0000
  H   H309      1.0  0.39711  0.49991  0.38256  1.0000
  C   C258      1.0  0.35437  0.50847  0.32901  1.0000
  C   C259      1.0  0.63515  0.17171  0.50796  1.0000
  C   C260      1.0  0.55954  0.16699  0.00895  1.0000
  C   C261      1.0  0.37769  0.50031  0.01000  1.0000
  Fe  Fe35      1.0  0.52286  0.14875  0.81532  1.0000
  S   S68       1.0  0.49953  0.14372  0.76357  1.0000
  S   S69       1.0  0.56066  0.14760  0.82115  1.0000
  Fe  Fe36      1.0  0.48577  0.15762  0.86517  1.0000
  S   S70       1.0  0.45948  0.15350  0.81714  1.0000
  S   S71       1.0  0.47739  0.16869  0.92259  1.0000
  Fe  Fe37      1.0  0.46439  0.11896  0.79997  1.0000
  S   S72       1.0  0.42752  0.08210  0.78059  1.0000
  Fe  Fe38      1.0  0.49645  0.17865  0.78463  1.0000
  S   S73       1.0  0.50337  0.21067  0.74225  1.0000
  S   S74       1.0  0.48793  0.12133  0.85046  1.0000
  S   S75       1.0  0.52256  0.18543  0.83385  1.0000
  Fe  Fe39      1.0  0.48534  0.33803  0.72413  1.0000
  S   S76       1.0  0.50923  0.34883  0.67122  1.0000
  S   S77       1.0  0.47243  0.30075  0.75823  1.0000
  Fe  Fe40      1.0  0.48443  0.39062  0.72690  1.0000
  S   S78       1.0  0.50799  0.40468  0.67373  1.0000
  S   S79       1.0  0.47922  0.42177  0.75821  1.0000
  Fe  Fe41      1.0  0.48243  0.36362  0.65218  1.0000
  S   S80       1.0  0.46208  0.35624  0.59626  1.0000
  Fe  Fe42      1.0  0.53250  0.38890  0.69773  1.0000
  S   S81       1.0  0.57679  0.41230  0.69445  1.0000
  S   S82       1.0  0.45676  0.35045  0.70383  1.0000
  S   S83       1.0  0.51058  0.37697  0.75205  1.0000
  S   S84       1.0  0.63293  0.48735  0.83195  1.0000
  H   H310      1.0  0.42216  0.48092  0.98133  1.0000
  S   S85       1.0  0.61434  0.12528  0.68172  1.0000
  H   H311      1.0  0.45085  0.23750  0.60190  1.0000
  S   S86       1.0  0.66380  0.10215  0.66066  1.0000
  Fe  Fe43      1.0  0.36534  0.44930  0.81632  1.0000
  S   S87       1.0  0.39574  0.48929  0.83643  1.0000
  S   S88       1.0  0.37089  0.41383  0.80716  1.0000
  C   C262      1.0  0.47623  0.16477  0.99893  1.0000
  H   H312      1.0  0.65955  0.03017  0.80815  1.0000
  C   C263      1.0  0.66071  0.03624  0.74873  1.0000
  C   C264      1.0  0.37912  0.43666  0.90595  1.0000
  H   H313      1.0  0.39853  0.24928  0.61591  1.0000
  H   H314      1.0  0.65261  0.12314  0.56795  1.0000
  C   C265      1.0  0.44871  0.41930  0.77017  1.0000
  C   C266      1.0  0.42513  0.39541  0.76810  1.0000
  C   C267      1.0  0.40142  0.39407  0.77932  1.0000
  C   C268      1.0  0.40098  0.41667  0.79194  1.0000
  C   C269      1.0  0.42452  0.44063  0.79364  1.0000
  C   C270      1.0  0.44830  0.44185  0.78317  1.0000
  H   H315      1.0  0.42521  0.37790  0.75833  1.0000
  Fe  Fe44      1.0  0.36343  0.48656  0.87421  1.0000
  H   H316      1.0  0.42445  0.45815  0.80332  1.0000
  H   H317      1.0  0.46644  0.46038  0.78507  1.0000
  C   C271      1.0  0.59228  0.43494  0.73112  1.0000
  C   C272      1.0  0.57785  0.43526  0.76217  1.0000
  C   C273      1.0  0.59062  0.45130  0.79291  1.0000
  C   C274      1.0  0.61783  0.46815  0.79221  1.0000
  C   C275      1.0  0.63227  0.46890  0.76050  1.0000
  C   C276      1.0  0.61954  0.45198  0.73023  1.0000
  H   H318      1.0  0.55687  0.42287  0.76292  1.0000
  H   H319      1.0  0.57929  0.45079  0.81721  1.0000
  H   H320      1.0  0.65331  0.48190  0.75973  1.0000
  H   H321      1.0  0.63087  0.45198  0.70624  1.0000
  C   C277      1.0  0.47358  0.35123  0.55286  1.0000
  H   H322      1.0  0.36356  0.41592  0.91085  1.0000
  C   C278      1.0  0.49358  0.34483  0.55047  1.0000
  C   C279      1.0  0.42013  0.06526  0.96719  1.0000
  H   H323      1.0  0.50336  0.34409  0.57545  1.0000
  C   C280      1.0  0.42510  0.05087  0.77404  1.0000
  H   H324      1.0  0.37172  0.44966  0.91677  1.0000
  H   H325      1.0  0.41396  0.11548  0.89080  1.0000
  H   H326      1.0  0.38630  0.03364  0.75075  1.0000
  H   H327      1.0  0.62422  0.04861  0.78798  1.0000
  C   C281      1.0  0.57543  0.14213  0.78157  1.0000
  C   C282      1.0  0.60118  0.14665  0.78421  1.0000
  C   C283      1.0  0.61347  0.14212  0.75348  1.0000
  C   C284      1.0  0.59989  0.13255  0.72005  1.0000
  C   C285      1.0  0.57410  0.12795  0.71735  1.0000
  C   C286      1.0  0.56193  0.13284  0.74797  1.0000
  H   H328      1.0  0.61175  0.15391  0.81008  1.0000
  H   H329      1.0  0.63341  0.14599  0.75581  1.0000
  H   H330      1.0  0.56347  0.12055  0.69158  1.0000
  H   H331      1.0  0.54205  0.12922  0.74572  1.0000
  C   C287      1.0  0.49472  0.23565  0.74731  1.0000
  C   C288      1.0  0.50162  0.25452  0.71886  1.0000
  C   C289      1.0  0.49503  0.27463  0.72167  1.0000
  C   C290      1.0  0.48145  0.27606  0.75310  1.0000
  C   C291      1.0  0.47461  0.25722  0.78153  1.0000
  C   C292      1.0  0.48127  0.23717  0.77876  1.0000
  H   H332      1.0  0.51199  0.25345  0.69439  1.0000
  H   H333      1.0  0.50022  0.28879  0.69941  1.0000
  H   H334      1.0  0.46407  0.25813  0.80593  1.0000
  H   H335      1.0  0.47588  0.22282  0.80088  1.0000
  H   H336      1.0  0.37264  0.07500  0.90096  1.0000
  C   C293      1.0  0.47848  0.15386  0.96499  1.0000
  C   C294      1.0  0.48139  0.13153  0.96563  1.0000
  H   H337      1.0  0.42238  0.06198  0.85664  1.0000
  H   H338      1.0  0.48340  0.12307  0.93977  1.0000
  C   C295      1.0  0.42274  0.06240  0.88774  1.0000
  H   H339      1.0  0.42754  0.47236  0.88202  1.0000
  H   H340      1.0  0.59403  0.08833  0.76388  1.0000
  C   C296      1.0  0.55213  0.41532  0.57975  1.0000
  H   H341      1.0  0.46922  0.28177  0.59451  1.0000
  C   C297      1.0  0.48148  0.11994  0.99992  1.0000
  C   C298      1.0  0.42162  0.06825  0.00600  1.0000
  H   H342      1.0  0.44615  0.29548  0.68533  1.0000
  C   C299      1.0  0.44538  0.04619  0.78416  1.0000
  C   C300      1.0  0.40012  0.43929  0.96437  1.0000
  H   H343      1.0  0.47253  0.02466  0.66885  1.0000
  N   N18       1.0  0.40429  0.44308  0.92355  1.0000
  C   C301      1.0  0.65342  0.02371  0.71401  1.0000
  C   C302      1.0  0.42697  0.04494  0.66410  1.0000
  C   C303      1.0  0.63766  0.50721  0.96408  1.0000
  C   C304      1.0  0.42409  0.10396  0.88580  1.0000
  H   H344      1.0  0.62491  0.46306  0.92360  1.0000
  H   H345      1.0  0.67121  0.15814  0.57414  1.0000
  C   C305      1.0  0.44574  0.23343  0.63108  1.0000
  H   H346      1.0  0.46592  0.30897  0.60951  1.0000
  N   N19       1.0  0.56506  0.34792  0.77763  1.0000
  C   C306      1.0  0.54480  0.34504  0.80537  1.0000
  C   C307      1.0  0.58760  0.37515  0.78113  1.0000
  C   C308      1.0  0.55422  0.34517  0.73968  1.0000
  C   C309      1.0  0.57222  0.32719  0.78334  1.0000
  C   C310      1.0  0.55246  0.30025  0.78440  1.0000
  C   C311      1.0  0.59866  0.33280  0.78655  1.0000
  C   C312      1.0  0.55865  0.28019  0.78871  1.0000
  C   C313      1.0  0.60464  0.31256  0.79098  1.0000
  C   C314      1.0  0.58468  0.28633  0.79204  1.0000
  H   H347      1.0  0.55112  0.34433  0.83429  1.0000
  H   H348      1.0  0.54064  0.36165  0.80387  1.0000
  H   H349      1.0  0.52551  0.32696  0.80082  1.0000
  H   H350      1.0  0.58133  0.39018  0.77808  1.0000
  H   H351      1.0  0.60252  0.37977  0.75869  1.0000
  H   H352      1.0  0.59708  0.37848  0.80886  1.0000
  H   H353      1.0  0.53557  0.32631  0.73615  1.0000
  H   H354      1.0  0.54993  0.36125  0.73338  1.0000
  H   H355      1.0  0.56831  0.34599  0.71799  1.0000
  H   H356      1.0  0.53201  0.29441  0.78152  1.0000
  H   H357      1.0  0.61508  0.35262  0.78552  1.0000
  H   H358      1.0  0.54314  0.25971  0.78913  1.0000
  H   H359      1.0  0.62490  0.31721  0.79337  1.0000
  H   H360      1.0  0.58932  0.27064  0.79520  1.0000
  N   N20       1.0  0.62999  0.14317  0.56462  1.0000
  C   C315      1.0  0.43310  0.22100  0.70622  1.0000
  C   C316      1.0  0.53105  0.41087  0.55737  1.0000
  H   H361      1.0  0.51565  0.33332  0.51404  1.0000
  H   H362      1.0  0.64681  0.18318  0.58436  1.0000
  H   H363      1.0  0.59557  0.42021  0.51324  1.0000
  H   H364      1.0  0.44314  0.47696  0.92625  1.0000
  H   H365      1.0  0.41790  0.28010  0.59183  1.0000
  H   H366      1.0  0.41172  0.27581  0.67416  1.0000
  C   C317      1.0  0.44127  0.20646  0.68469  1.0000
  H   H367      1.0  0.38134  0.43930  0.87527  1.0000
  H   H368      1.0  0.58054  0.14574  0.99619  1.0000
  C   C318      1.0  0.57524  0.41874  0.56340  1.0000
  H   H369      1.0  0.45391  0.20124  0.63056  1.0000
  H   H370      1.0  0.60258  0.05321  0.81874  1.0000
  H   H371      1.0  0.66247  0.50193  0.90030  1.0000
  H   H372      1.0  0.62039  0.45587  0.97266  1.0000
  H   H373      1.0  0.46315  0.06190  0.79615  1.0000
  C   C319      1.0  0.61219  0.05841  0.79078  1.0000
  H   H374      1.0  0.44340  0.19082  0.69742  1.0000
  H   H375      1.0  0.39973  0.01561  0.60289  1.0000
  H   H376      1.0  0.61960  0.04905  0.72065  1.0000
  C   C320      1.0  0.56816  0.15559  0.94619  1.0000
  H   H377      1.0  0.41783  0.42887  0.87729  1.0000
  C   C321      1.0  0.46302  0.03634  0.67179  1.0000
  H   H378      1.0  0.53394  0.18811  0.93994  1.0000
  C   C322      1.0  0.46157  0.35277  0.51997  1.0000
  C   C323      1.0  0.47663  0.05979  0.69204  1.0000
  C   C324      1.0  0.50064  0.33892  0.51559  1.0000
  C   C325      1.0  0.43772  0.02826  0.65694  1.0000
  C   C326      1.0  0.40510  0.09702  0.96330  1.0000
  H   H379      1.0  0.51288  0.40770  0.57030  1.0000
  C   C327      1.0  0.67220  0.50599  0.92785  1.0000
  H   H380      1.0  0.64989  0.13709  0.61055  1.0000
  H   H381      1.0  0.42886  0.21651  0.73565  1.0000
  H   H382      1.0  0.59149  0.42201  0.58109  1.0000
  S   S89       1.0  0.67819  0.07108  0.75351  1.0000
  H   H383      1.0  0.37413  0.39669  0.96138  1.0000
  C   C328      1.0  0.66855  0.49512  0.99278  1.0000
  H   H384      1.0  0.42573  0.05166  0.95567  1.0000
  C   C329      1.0  0.57403  0.02189  0.76248  1.0000
  N   N21       1.0  0.65327  0.49376  0.95919  1.0000
  H   H385      1.0  0.60094  0.11341  0.60092  1.0000
  H   H386      1.0  0.47575  0.09347  0.71494  1.0000
  H   H387      1.0  0.42535  0.10272  0.85491  1.0000
  H   H388      1.0  0.65862  0.03539  0.68881  1.0000
  C   C330      1.0  0.60511  0.11808  0.57062  1.0000
  H   H389      1.0  0.39828  0.40423  0.90991  1.0000
  C   C331      1.0  0.63546  0.46560  0.95032  1.0000
  H   H390      1.0  0.44372  0.07145  0.89591  1.0000
  H   H391      1.0  0.62560  0.15897  0.61721  1.0000
  H   H392      1.0  0.43229  0.30507  0.64844  1.0000
  C   C332      1.0  0.65391  0.02070  0.78117  1.0000
  H   H393      1.0  0.40745  0.03965  0.65508  1.0000
  H   H394      1.0  0.43095  0.02296  0.58311  1.0000
  H   H395      1.0  0.68072  0.48560  0.98803  1.0000
  C   C333      1.0  0.65186  0.14032  0.57984  1.0000
  H   H396      1.0  0.68275  0.09860  0.56170  1.0000
  H   H397      1.0  0.59238  0.05058  0.70066  1.0000
  C   C334      1.0  0.43165  0.24213  0.69063  1.0000
  C   C335      1.0  0.40214  0.03021  0.75847  1.0000
  H   H398      1.0  0.44611  0.35775  0.52160  1.0000
  H   H399      1.0  0.63323  0.18621  0.52432  1.0000
  C   C336      1.0  0.42392  0.47048  0.91272  1.0000
  H   H400      1.0  0.61928  0.07930  0.72105  1.0000
  H   H401      1.0  0.49563  0.06538  0.70383  1.0000
  Fe  Fe45      1.0  0.37947  0.50522  0.79386  1.0000
  C   C337      1.0  0.43178  0.28769  0.66210  1.0000
  H   H402      1.0  0.56527  0.06300  0.74239  1.0000
  C   C338      1.0  0.41064  0.46064  0.99010  1.0000
  H   H403      1.0  0.61141  0.16613  0.57850  1.0000
  H   H404      1.0  0.44434  0.11587  0.89668  1.0000
  C   C339      1.0  0.57040  0.15533  0.98502  1.0000
  C   C340      1.0  0.41855  0.26317  0.60505  1.0000
  H   H405      1.0  0.57640  0.14645  0.92831  1.0000
  N   N22       1.0  0.59250  0.05067  0.76071  1.0000
  H   H406      1.0  0.48009  0.29529  0.64023  1.0000
  C   C341      1.0  0.43827  0.24920  0.65252  1.0000
  C   C342      1.0  0.55517  0.16750  0.93006  1.0000
  C   C343      1.0  0.41216  0.07993  0.94453  1.0000
  C   C344      1.0  0.52264  0.49978  0.75031  1.0000
  H   H407      1.0  0.41700  0.48465  0.91994  1.0000
  H   H408      1.0  0.43184  0.08034  0.69067  1.0000
  H   H409      1.0  0.55049  0.41589  0.60989  1.0000
  C   C345      1.0  0.60647  0.05759  0.72421  1.0000
  C   C346      1.0  0.36590  0.48592  0.97738  1.0000
  H   H410      1.0  0.42615  0.25309  0.70948  1.0000
  H   H411      1.0  0.42303  0.25297  0.58230  1.0000
  C   C347      1.0  0.57954  0.06688  0.76512  1.0000
  C   C348      1.0  0.62842  0.16389  0.58687  1.0000
  H   H412      1.0  0.56938  0.06350  0.79260  1.0000
  C   C349      1.0  0.41339  0.42538  0.90776  1.0000
  H   H413      1.0  0.62380  0.50120  0.90663  1.0000
  H   H414      1.0  0.41205  0.04140  0.89657  1.0000
  Fe  Fe46      1.0  0.65514  0.13129  0.68935  1.0000
  N   N23       1.0  0.41055  0.07748  0.90334  1.0000
  H   H415      1.0  0.60562  0.10101  0.55766  1.0000
  C   C350      1.0  0.44739  0.21253  0.64711  1.0000
  H   H416      1.0  0.55332  0.16751  0.89994  1.0000
  H   H417      1.0  0.62645  0.07997  0.79039  1.0000
  C   C351      1.0  0.44077  0.06833  0.68434  1.0000
  H   H418      1.0  0.38329  0.37545  0.77806  1.0000
  C   C352      1.0  0.44263  0.02105  0.77882  1.0000
  C   C353      1.0  0.46554  0.07574  0.69825  1.0000
  C   C354      1.0  0.38372  0.41373  0.97933  1.0000
  H   H419      1.0  0.39845  0.10851  0.94816  1.0000
  H   H420      1.0  0.53741  0.02287  0.77223  1.0000
  H   H421      1.0  0.50720  0.47971  0.74492  1.0000
  C   C355      1.0  0.54437  0.17919  0.95266  1.0000
  C   C356      1.0  0.38264  0.06390  0.89210  1.0000
  N   N24       1.0  0.43818  0.27216  0.63533  1.0000
  C   C357      1.0  0.46447  0.29023  0.61922  1.0000
  H   H422      1.0  0.55120  0.48816  0.75631  1.0000
  H   H423      1.0  0.64644  0.45469  0.94717  1.0000
  H   H424      1.0  0.58819  0.11904  0.55858  1.0000
  H   H425      1.0  0.47400  0.18208  0.99864  1.0000
  H   H426      1.0  0.43144  0.42835  0.92193  1.0000
  C   C358      1.0  0.62357  0.50942  0.93363  1.0000
  C   C359      1.0  0.63416  0.14902  0.52414  1.0000
  H   H427      1.0  0.38067  0.06157  0.86117  1.0000
  H   H428      1.0  0.37166  0.04390  0.90476  1.0000
  H   H429      1.0  0.48323  0.10237  0.00013  1.0000
  S   S90       1.0  0.67438  0.13173  0.74300  1.0000
  C   C360      1.0  0.57736  0.41773  0.52457  1.0000
  C   C361      1.0  0.40695  0.10005  0.00205  1.0000
  H   H430      1.0  0.58789  0.49990  0.79349  1.0000
  S   S91       1.0  0.37604  0.50214  0.93347  1.0000
  H   H431      1.0  0.59479  0.50358  0.74383  1.0000
  H   H432      1.0  0.45834  0.01754  0.78696  1.0000
  C   C362      1.0  0.54627  0.17885  0.99153  1.0000
  C   C363      1.0  0.53290  0.40971  0.51851  1.0000
  H   H433      1.0  0.35874  0.49874  0.70039  1.0000
  C   C364      1.0  0.54825  0.50500  0.75689  1.0000
  H   H434      1.0  0.53673  0.18762  0.00719  1.0000
  H   H435      1.0  0.68500  0.23063  0.61548  1.0000
  H   H436      1.0  0.63645  0.11382  0.50944  1.0000
  S   S92       1.0  0.66290  0.54258  0.18829  1.0000
  H   H437      1.0  0.36316  0.85758  0.21919  1.0000
  C   C365      1.0  0.43049  0.00434  0.29174  1.0000
  Fe  Fe47      1.0  0.37792  0.93229  0.30979  1.0000
  S   S93       1.0  0.41537  0.93320  0.32519  1.0000
  S   S94       1.0  0.37691  0.96893  0.29073  1.0000
  Fe  Fe48      1.0  0.40061  0.89760  0.28819  1.0000
  S   S95       1.0  0.42282  0.89214  0.24026  1.0000
  H   H438      1.0  0.62387  0.83983  0.10371  1.0000
  Fe  Fe49      1.0  0.56509  0.87702  0.14472  1.0000
  S   S96       1.0  0.60640  0.89107  0.16351  1.0000
  S   S97       1.0  0.54980  0.86121  0.08631  1.0000
  Fe  Fe50      1.0  0.54594  0.87646  0.22450  1.0000
  S   S98       1.0  0.58577  0.88981  0.24841  1.0000
  S   S99       1.0  0.51526  0.86817  0.26896  1.0000
  Fe  Fe51      1.0  0.60049  0.91886  0.20129  1.0000
  S   S100      1.0  0.63368  0.95972  0.21731  1.0000
  Fe  Fe52      1.0  0.58798  0.86087  0.20931  1.0000
  S   S101      1.0  0.60716  0.83627  0.22409  1.0000
  S   S102      1.0  0.56029  0.90709  0.17910  1.0000
  S   S103      1.0  0.54692  0.84533  0.18889  1.0000
  Fe  Fe53      1.0  0.59409  0.65931  0.29362  1.0000
  S   S104      1.0  0.57734  0.63723  0.34709  1.0000
  S   S105      1.0  0.61780  0.65019  0.25125  1.0000
  Fe  Fe54      1.0  0.56289  0.68911  0.30019  1.0000
  S   S106      1.0  0.54299  0.66782  0.35333  1.0000
  S   S107      1.0  0.54848  0.71648  0.27874  1.0000
  Fe  Fe55      1.0  0.58286  0.67561  0.37027  1.0000
  S   S108      1.0  0.60066  0.69438  0.42630  1.0000
  Fe  Fe56      1.0  0.53898  0.63159  0.32558  1.0000
  S   S109      1.0  0.50370  0.59083  0.32976  1.0000
  S   S110      1.0  0.60325  0.69870  0.31817  1.0000
  S   S111      1.0  0.55520  0.65172  0.27108  1.0000
  S   S112      1.0  0.41565  0.55383  0.20646  1.0000
  C   C366      1.0  0.47865  0.58166  0.29674  1.0000
  C   C367      1.0  0.47884  0.59960  0.27086  1.0000
  C   C368      1.0  0.45896  0.59110  0.24391  1.0000
  C   C369      1.0  0.43911  0.56460  0.24236  1.0000
  C   C370      1.0  0.43896  0.54687  0.26849  1.0000
  C   C371      1.0  0.45843  0.55542  0.29579  1.0000
  H   H439      1.0  0.49431  0.61996  0.27151  1.0000
  H   H440      1.0  0.45934  0.60498  0.22369  1.0000
  H   H441      1.0  0.47323  0.95206  0.34590  1.0000
  H   H442      1.0  0.45814  0.54144  0.31574  1.0000
  C   C372      1.0  0.58353  0.68497  0.46963  1.0000
  C   C373      1.0  0.55694  0.66594  0.47193  1.0000
  C   C374      1.0  0.48372  0.51986  0.24926  1.0000
  H   H443      1.0  0.54629  0.65644  0.44684  1.0000
  H   H444      1.0  0.59853  0.97934  0.19548  1.0000
  C   C375      1.0  0.59053  0.80289  0.23898  1.0000
  C   C376      1.0  0.60525  0.79065  0.24800  1.0000
  C   C377      1.0  0.59282  0.76429  0.26050  1.0000
  C   C378      1.0  0.56546  0.74991  0.26409  1.0000
  C   C379      1.0  0.55080  0.76219  0.25506  1.0000
  C   C380      1.0  0.56321  0.78850  0.24254  1.0000
  H   H445      1.0  0.62641  0.80163  0.24531  1.0000
  H   H446      1.0  0.60435  0.75505  0.26695  1.0000
  H   H447      1.0  0.52963  0.75122  0.25762  1.0000
  H   H448      1.0  0.55162  0.79763  0.23580  1.0000
  H   H449      1.0  0.58998  0.82168  0.31226  1.0000
  C   C381      1.0  0.56447  0.87411  0.04210  1.0000
  C   C382      1.0  0.58701  0.89877  0.03820  1.0000
  H   H450      1.0  0.51168  0.72767  0.15215  1.0000
  H   H451      1.0  0.59637  0.91042  0.06271  1.0000
  C   C383      1.0  0.51768  0.54669  0.20436  1.0000
  C   C384      1.0  0.63214  0.98843  0.22909  1.0000
  C   C385      1.0  0.61318  0.99352  0.21410  1.0000
  C   C386      1.0  0.59158  0.76015  0.43037  1.0000
  C   C387      1.0  0.37053  0.53491  0.31709  1.0000
  C   C388      1.0  0.44846  0.88553  0.24882  1.0000
  C   C389      1.0  0.46500  0.88713  0.21920  1.0000
  C   C390      1.0  0.48569  0.88199  0.22506  1.0000
  C   C391      1.0  0.48968  0.87492  0.26055  1.0000
  C   C392      1.0  0.47316  0.87335  0.29019  1.0000
  C   C393      1.0  0.45263  0.87874  0.28440  1.0000
  H   H452      1.0  0.46179  0.89236  0.19161  1.0000
  H   H453      1.0  0.49828  0.88313  0.20206  1.0000
  H   H454      1.0  0.47626  0.86798  0.31774  1.0000
  H   H455      1.0  0.44002  0.87756  0.30742  1.0000
  H   H456      1.0  0.54952  0.96385  0.36923  1.0000
  H   H457      1.0  0.36573  0.80520  0.27107  1.0000
  C   C394      1.0  0.66485  0.60707  0.26747  1.0000
  C   C395      1.0  0.65886  0.61194  0.23178  1.0000
  C   C396      1.0  0.64454  0.62525  0.22742  1.0000
  C   C397      1.0  0.63555  0.63332  0.25860  1.0000
  C   C398      1.0  0.64104  0.62792  0.29434  1.0000
  S   S113      1.0  0.38000  0.86933  0.33472  1.0000
  H   H458      1.0  0.62693  0.52341  0.26876  1.0000
  H   H459      1.0  0.64069  0.62961  0.19967  1.0000
  H   H460      1.0  0.52854  0.94680  0.06686  1.0000
  C   C399      1.0  0.57526  0.82176  0.12703  1.0000
  H   H461      1.0  0.51419  0.93623  0.26020  1.0000
  H   H462      1.0  0.62114  0.54056  0.02822  1.0000
  C   C400      1.0  0.40579  0.99885  0.27914  1.0000
  C   C401      1.0  0.57514  0.53403  0.27922  1.0000
  H   H463      1.0  0.59163  0.60041  0.18991  1.0000
  C   C402      1.0  0.55540  0.59031  0.21793  1.0000
  Fe  Fe57      1.0  0.39094  0.90481  0.37083  1.0000
  N   N25       1.0  0.56020  0.94947  0.30099  1.0000
  C   C403      1.0  0.56175  0.92910  0.32356  1.0000
  C   C404      1.0  0.56037  0.94263  0.26107  1.0000
  C   C405      1.0  0.58420  0.97527  0.30739  1.0000
  C   C406      1.0  0.53649  0.95078  0.31228  1.0000
  C   C407      1.0  0.37949  0.57490  0.28157  1.0000
  H   H464      1.0  0.56616  0.60738  0.42920  1.0000
  H   H465      1.0  0.57844  0.92629  0.31454  1.0000
  H   H466      1.0  0.56436  0.93408  0.35372  1.0000
  H   H467      1.0  0.54347  0.90966  0.32080  1.0000
  H   H468      1.0  0.54391  0.92261  0.25464  1.0000
  H   H469      1.0  0.57864  0.94228  0.25332  1.0000
  H   H470      1.0  0.55914  0.95709  0.24239  1.0000
  H   H471      1.0  0.58738  0.98088  0.33730  1.0000
  H   H472      1.0  0.37675  0.83942  0.26746  1.0000
  H   H473      1.0  0.60565  0.52083  0.20750  1.0000
  H   H474      1.0  0.60223  0.97503  0.29785  1.0000
  H   H475      1.0  0.58601  0.73875  0.18697  1.0000
  H   H476      1.0  0.59045  0.81966  0.05673  1.0000
  H   H477      1.0  0.48245  0.00593  0.23392  1.0000
  C   C408      1.0  0.53291  0.73936  0.15184  1.0000
  C   C409      1.0  0.57326  0.77949  0.13284  1.0000
  C   C410      1.0  0.58696  0.79073  0.34810  1.0000
  C   C411      1.0  0.39528  0.90903  0.47185  1.0000
  H   H478      1.0  0.57735  0.76000  0.45118  1.0000
  C   C412      1.0  0.56137  0.81265  0.35577  1.0000
  C   C413      1.0  0.54754  0.73055  0.17124  1.0000
  H   H479      1.0  0.53778  0.71230  0.18698  1.0000
  S   S114      1.0  0.68362  0.59122  0.27433  1.0000
  C   C414      1.0  0.55626  0.72776  0.39307  1.0000
  H   H480      1.0  0.55132  0.99859  0.24408  1.0000
  N   N26       1.0  0.35998  0.54734  0.29179  1.0000
  H   H481      1.0  0.60454  0.57465  0.26615  1.0000
  C   C415      1.0  0.58575  0.56177  0.27905  1.0000
  H   H482      1.0  0.61038  0.55235  0.21965  1.0000
  C   C416      1.0  0.39671  0.54832  0.33063  1.0000
  H   H483      1.0  0.38896  0.83856  0.20084  1.0000
  H   H484      1.0  0.58340  0.99135  0.29201  1.0000
  H   H485      1.0  0.37112  0.58362  0.26224  1.0000
  H   H486      1.0  0.37484  0.92764  0.44872  1.0000
  C   C417      1.0  0.54405  0.65912  0.50689  1.0000
  S   S115      1.0  0.40602  0.90272  0.42846  1.0000
  C   C418      1.0  0.40237  0.90154  0.50508  1.0000
  H   H487      1.0  0.36728  0.53026  0.24333  1.0000
  C   C419      1.0  0.57480  0.74557  0.17127  1.0000
  C   C420      1.0  0.53417  0.95865  0.34902  1.0000
  C   C421      1.0  0.51243  0.88537  0.03781  1.0000
  C   C422      1.0  0.47365  0.53948  0.19738  1.0000
  H   H488      1.0  0.62007  0.82475  0.14819  1.0000
  C   C423      1.0  0.51476  0.94335  0.28821  1.0000
  C   C424      1.0  0.61476  0.53105  0.28195  1.0000
  C   C425      1.0  0.61495  0.82039  0.11810  1.0000
  H   H489      1.0  0.51769  0.57625  0.24229  1.0000
  H   H490      1.0  0.59710  0.74546  0.44029  1.0000
  C   C426      1.0  0.52908  0.57130  0.22332  1.0000
  C   C427      1.0  0.54551  0.76334  0.13265  1.0000
  C   C428      1.0  0.58761  0.76977  0.15265  1.0000
  S   S116      1.0  0.35409  0.90596  0.35790  1.0000
  H   H491      1.0  0.57820  0.52645  0.20666  1.0000
  H   H492      1.0  0.60369  0.73552  0.37799  1.0000
  H   H493      1.0  0.53330  0.76935  0.11810  1.0000
  H   H494      1.0  0.60870  0.78070  0.15505  1.0000
  H   H495      1.0  0.54724  0.72229  0.36484  1.0000
  H   H496      1.0  0.60952  0.77994  0.43121  1.0000
  H   H497      1.0  0.57740  0.82403  0.15779  1.0000
  H   H498      1.0  0.62477  0.80977  0.10649  1.0000
  H   H499      1.0  0.56035  0.71202  0.40254  1.0000
  H   H500      1.0  0.58810  0.78780  0.06098  1.0000
  N   N27       1.0  0.58055  0.75383  0.39223  1.0000
  C   C429      1.0  0.59975  0.75121  0.36785  1.0000
  H   H501      1.0  0.63433  0.63409  0.31857  1.0000
  H   H502      1.0  0.58545  0.84182  0.11443  1.0000
  N   N28       1.0  0.58604  0.80512  0.11304  1.0000
  H   H503      1.0  0.61907  0.76967  0.36706  1.0000
  C   C430      1.0  0.58081  0.80073  0.07251  1.0000
  H   H504      1.0  0.55950  0.79131  0.06630  1.0000
  H   H505      1.0  0.59225  0.74565  0.33886  1.0000
  Fe  Fe58      1.0  0.67774  0.51511  0.20276  1.0000
  H   H506      1.0  0.54119  0.72707  0.41267  1.0000
  H   H507      1.0  0.55415  0.81358  0.12051  1.0000
  C   C431      1.0  0.65579  0.61503  0.29870  1.0000
  S   S117      1.0  0.36436  0.89806  0.27002  1.0000
  C   C432      1.0  0.57447  0.77429  0.37951  1.0000
  N   N29       1.0  0.58987  0.52221  0.26166  1.0000
  H   H508      1.0  0.54553  0.76694  0.42335  1.0000
  C   C433      1.0  0.55558  0.77841  0.39894  1.0000
  H   H509      1.0  0.51866  0.51896  0.32818  1.0000
  H   H510      1.0  0.60164  0.78928  0.33155  1.0000
  C   C434      1.0  0.54906  0.79720  0.38702  1.0000
  H   H511      1.0  0.53817  0.56741  0.32614  1.0000
  H   H512      1.0  0.42416  0.52643  0.26751  1.0000
  H   H513      1.0  0.55611  0.82700  0.34624  1.0000
  C   C435      1.0  0.58042  0.80958  0.33660  1.0000
  H   H514      1.0  0.53425  0.79968  0.40190  1.0000
  C   C436      1.0  0.53445  0.54223  0.18013  1.0000
  C   C437      1.0  0.35938  0.81950  0.26315  1.0000
  C   C438      1.0  0.57516  0.61307  0.45644  1.0000
  C   C439      1.0  0.51693  0.90585  0.06202  1.0000
  C   C440      1.0  0.56083  0.56146  0.17506  1.0000
  C   C441      1.0  0.38035  0.92166  0.47402  1.0000
  H   H515      1.0  0.47708  0.54515  0.16741  1.0000
  C   C442      1.0  0.52505  0.93091  0.04789  1.0000
  H   H516      1.0  0.41073  0.56831  0.32280  1.0000
  H   H517      1.0  0.51435  0.90225  0.09182  1.0000
  C   C443      1.0  0.37119  0.81859  0.19882  1.0000
  H   H518      1.0  0.66644  0.00376  0.26379  1.0000
  C   C444      1.0  0.40594  0.53581  0.35434  1.0000
  H   H519      1.0  0.41392  0.89176  0.50370  1.0000
  H   H520      1.0  0.47842  0.55758  0.21337  1.0000
  H   H521      1.0  0.62808  0.66319  0.49694  1.0000
  C   C445      1.0  0.52911  0.93564  0.00952  1.0000
  S   S118      1.0  0.68305  0.56721  0.08836  1.0000
  C   C446      1.0  0.49238  0.94410  0.30031  1.0000
  H   H522      1.0  0.43228  0.98997  0.30841  1.0000
  H   H523      1.0  0.57326  0.55796  0.15602  1.0000
  H   H524      1.0  0.50653  0.86599  0.04905  1.0000
  H   H525      1.0  0.45220  0.52584  0.20135  1.0000
  H   H526      1.0  0.62725  0.55285  0.28230  1.0000
  C   C447      1.0  0.57255  0.57356  0.29584  1.0000
  C   C448      1.0  0.51169  0.95928  0.36079  1.0000
  C   C449      1.0  0.65154  0.00743  0.25236  1.0000
  H   H527      1.0  0.47578  0.93787  0.28180  1.0000
  H   H528      1.0  0.39673  0.57587  0.26667  1.0000
  H   H529      1.0  0.66029  0.61132  0.32644  1.0000
  N   N30       1.0  0.48942  0.52738  0.20937  1.0000
  H   H530      1.0  0.60811  0.64884  0.43644  1.0000
  C   C450      1.0  0.59884  0.63643  0.46058  1.0000
  H   H531      1.0  0.61102  0.52433  0.31149  1.0000
  H   H532      1.0  0.66581  0.60605  0.20749  1.0000
  H   H533      1.0  0.64594  0.51792  0.02343  1.0000
  C   C451      1.0  0.57126  0.58542  0.19394  1.0000
  C   C452      1.0  0.49084  0.95201  0.33648  1.0000
  C   C453      1.0  0.51525  0.99926  0.23829  1.0000
  H   H534      1.0  0.56362  0.60906  0.23245  1.0000
  H   H535      1.0  0.37782  0.80427  0.20545  1.0000
  C   C454      1.0  0.61016  0.64447  0.49580  1.0000
  H   H536      1.0  0.50344  0.97822  0.23371  1.0000
  H   H537      1.0  0.48935  0.53707  0.26778  1.0000
  C   C455      1.0  0.54835  0.55814  0.31320  1.0000
  C   C456      1.0  0.53737  0.53084  0.31415  1.0000
  H   H538      1.0  0.61763  0.71177  0.50111  1.0000
  C   C457      1.0  0.59622  0.53089  0.22222  1.0000
  H   H539      1.0  0.58117  0.59484  0.29524  1.0000
  H   H540      1.0  0.52756  0.52423  0.16442  1.0000
  H   H541      1.0  0.38652  0.58790  0.30655  1.0000
  H   H542      1.0  0.42608  0.54634  0.36396  1.0000
  C   C458      1.0  0.59707  0.69700  0.50261  1.0000
  H   H543      1.0  0.36466  0.81542  0.16927  1.0000
  C   C459      1.0  0.55047  0.51881  0.29751  1.0000
  C   C460      1.0  0.56296  0.59726  0.48740  1.0000
  H   H544      1.0  0.54444  0.57915  0.48411  1.0000
  C   C461      1.0  0.55260  0.85927  0.00982  1.0000
  H   H545      1.0  0.67845  0.00253  0.15711  1.0000
  H   H546      1.0  0.53519  0.84014  0.01251  1.0000
  H   H547      1.0  0.51016  0.96499  0.38914  1.0000
  H   H548      1.0  0.67281  0.57829  0.01478  1.0000
  C   C462      1.0  0.54218  0.01077  0.24410  1.0000
  S   S119      1.0  0.67271  0.55576  0.86668  1.0000
  C   C463      1.0  0.60932  0.52267  0.93715  1.0000
  H   H549      1.0  0.36948  0.54235  0.69178  1.0000
  Fe  Fe59      1.0  0.39021  0.93288  0.72327  1.0000
  S   S120      1.0  0.41174  0.92734  0.67495  1.0000
  S   S121      1.0  0.41731  0.96903  0.75802  1.0000
  Fe  Fe60      1.0  0.39456  0.88600  0.69586  1.0000
  S   S122      1.0  0.41823  0.86512  0.69811  1.0000
  S   S123      1.0  0.37497  0.89179  0.74624  1.0000
  Fe  Fe61      1.0  0.53711  0.89315  0.82049  1.0000
  S   S124      1.0  0.55280  0.88577  0.76766  1.0000
  S   S125      1.0  0.50345  0.90148  0.82613  1.0000
  Fe  Fe62      1.0  0.58131  0.89575  0.86731  1.0000
  S   S126      1.0  0.60131  0.88898  0.81738  1.0000
  S   S127      1.0  0.59891  0.90758  0.92563  1.0000
  Fe  Fe63      1.0  0.59244  0.91740  0.78689  1.0000
  S   S128      1.0  0.61723  0.94555  0.74041  1.0000
  Fe  Fe64      1.0  0.56053  0.85773  0.80096  1.0000
  S   S129      1.0  0.54669  0.81762  0.77299  1.0000
  S   S130      1.0  0.57613  0.92677  0.83760  1.0000
  S   S131      1.0  0.54115  0.86253  0.85307  1.0000
  Fe  Fe65      1.0  0.59912  0.66509  0.68841  1.0000
  S   S132      1.0  0.55754  0.63607  0.67299  1.0000
  S   S133      1.0  0.62960  0.65188  0.68124  1.0000
  Fe  Fe66      1.0  0.58507  0.70890  0.70509  1.0000
  S   S134      1.0  0.54268  0.68255  0.69035  1.0000
  S   S135      1.0  0.60256  0.75067  0.72918  1.0000
  Fe  Fe67      1.0  0.54595  0.65138  0.72272  1.0000
  S   S136      1.0  0.51991  0.62640  0.77034  1.0000
  Fe  Fe68      1.0  0.55852  0.66982  0.64136  1.0000
  S   S137      1.0  0.54039  0.66161  0.58328  1.0000
  S   S138      1.0  0.58763  0.67842  0.74034  1.0000
  S   S139      1.0  0.60080  0.69818  0.65392  1.0000
  H   H550      1.0  0.61308  0.78368  0.65892  1.0000
  C   C464      1.0  0.48734  0.60091  0.76355  1.0000
  C   C465      1.0  0.47473  0.59739  0.72939  1.0000
  C   C466      1.0  0.44841  0.57743  0.72547  1.0000
  C   C467      1.0  0.43466  0.56073  0.75548  1.0000
  C   C468      1.0  0.44737  0.56412  0.78953  1.0000
  C   C469      1.0  0.47358  0.58426  0.79357  1.0000
  H   H551      1.0  0.48516  0.61013  0.70611  1.0000
  H   H552      1.0  0.43870  0.57488  0.69904  1.0000
  H   H553      1.0  0.43692  0.55143  0.81284  1.0000
  H   H554      1.0  0.48323  0.58691  0.82009  1.0000
  H   H555      1.0  0.53190  0.56177  0.75760  1.0000
  C   C470      1.0  0.55758  0.67104  0.53992  1.0000
  C   C471      1.0  0.58421  0.69004  0.53759  1.0000
  H   H556      1.0  0.60398  0.01073  0.75305  1.0000
  H   H557      1.0  0.59482  0.69954  0.56271  1.0000
  C   C472      1.0  0.56286  0.79954  0.76109  1.0000
  C   C473      1.0  0.58843  0.80731  0.77250  1.0000
  C   C474      1.0  0.60012  0.79199  0.76281  1.0000
  C   C475      1.0  0.58644  0.76867  0.74182  1.0000
  C   C476      1.0  0.56085  0.76088  0.73052  1.0000
  C   C477      1.0  0.54923  0.77628  0.74000  1.0000
  H   H558      1.0  0.59914  0.82497  0.78903  1.0000
  H   H559      1.0  0.61995  0.79826  0.77159  1.0000
  H   H560      1.0  0.55015  0.74321  0.71399  1.0000
  H   H561      1.0  0.52946  0.77007  0.73101  1.0000
  C   C478      1.0  0.58528  0.89390  0.97005  1.0000
  C   C479      1.0  0.56290  0.86908  0.97400  1.0000
  H   H562      1.0  0.64420  0.91363  0.72468  1.0000
  H   H563      1.0  0.55360  0.85739  0.94949  1.0000
  C   C480      1.0  0.59743  0.87068  0.72227  1.0000
  C   C481      1.0  0.53654  0.54592  0.75742  1.0000
  C   C482      1.0  0.63319  0.98041  0.74439  1.0000
  N   N31       1.0  0.59628  0.53748  0.77095  1.0000
  H   H564      1.0  0.67918  0.61323  0.73719  1.0000
  C   C483      1.0  0.36602  0.79363  0.73366  1.0000
  C   C484      1.0  0.44245  0.87600  0.73303  1.0000
  C   C485      1.0  0.45989  0.86610  0.73392  1.0000
  C   C486      1.0  0.47898  0.87408  0.76198  1.0000
  C   C487      1.0  0.48045  0.89174  0.78964  1.0000
  C   C488      1.0  0.46304  0.90167  0.78869  1.0000
  C   C489      1.0  0.44423  0.89399  0.76035  1.0000
  H   H565      1.0  0.45867  0.85223  0.71284  1.0000
  H   H566      1.0  0.49225  0.86625  0.76251  1.0000
  H   H567      1.0  0.46408  0.91536  0.80993  1.0000
  H   H568      1.0  0.43100  0.90186  0.75986  1.0000
  C   C490      1.0  0.39484  0.90679  0.54015  1.0000
  H   H569      1.0  0.40059  0.90106  0.56546  1.0000
  C   C491      1.0  0.63924  0.63917  0.71908  1.0000
  C   C492      1.0  0.62987  0.63845  0.75530  1.0000
  C   C493      1.0  0.63851  0.62901  0.78493  1.0000
  C   C494      1.0  0.65634  0.61987  0.77870  1.0000
  H   H570      1.0  0.57691  0.79221  0.64431  1.0000
  C   C495      1.0  0.65688  0.62977  0.71271  1.0000
  H   H571      1.0  0.61633  0.64562  0.76065  1.0000
  H   H572      1.0  0.63150  0.62902  0.81295  1.0000
  H   H573      1.0  0.57207  0.93541  0.95128  1.0000
  S   S140      1.0  0.40148  0.53636  0.74960  1.0000
  H   H574      1.0  0.56406  0.59194  0.54581  1.0000
  C   C496      1.0  0.41975  0.00040  0.76304  1.0000
  H   H575      1.0  0.44267  0.98309  0.65464  1.0000
  H   H576      1.0  0.36477  0.79195  0.76461  1.0000
  S   S141      1.0  0.35361  0.92086  0.68998  1.0000
  H   H577      1.0  0.53932  0.89017  0.92993  1.0000
  N   N32       1.0  0.53086  0.92116  0.94383  1.0000
  C   C497      1.0  0.55876  0.94167  0.93857  1.0000
  C   C498      1.0  0.52631  0.89793  0.92123  1.0000
  C   C499      1.0  0.51387  0.93096  0.92855  1.0000
  H   H578      1.0  0.42514  0.97063  0.61232  1.0000
  H   H579      1.0  0.57972  0.83405  0.66115  1.0000
  H   H580      1.0  0.52692  0.94532  0.76830  1.0000
  H   H581      1.0  0.62065  0.51953  0.77659  1.0000
  H   H582      1.0  0.57446  0.96331  0.75692  1.0000
  C   C500      1.0  0.59988  0.51404  0.77114  1.0000
  H   H583      1.0  0.61346  0.57445  0.74092  1.0000
  H   H584      1.0  0.56421  0.94558  0.90851  1.0000
  H   H585      1.0  0.64926  0.66511  0.55066  1.0000
  H   H586      1.0  0.38156  0.98928  0.74139  1.0000
  H   H587      1.0  0.53074  0.90305  0.89125  1.0000
  H   H588      1.0  0.40350  0.98987  0.58276  1.0000
  H   H589      1.0  0.38624  0.96665  0.64311  1.0000
  N   N33       1.0  0.42237  0.00326  0.63618  1.0000
  H   H590      1.0  0.62777  0.67886  0.55777  1.0000
  C   C501      1.0  0.59630  0.83148  0.66740  1.0000
  H   H591      1.0  0.59809  0.88912  0.73185  1.0000
  H   H592      1.0  0.39231  0.52095  0.00784  1.0000
  Fe  Fe69      1.0  0.37444  0.91281  0.64285  1.0000
  N   N34       1.0  0.52281  0.69554  0.80646  1.0000
  C   C502      1.0  0.50233  0.68211  0.77760  1.0000
  C   C503      1.0  0.54800  0.69996  0.79016  1.0000
  C   C504      1.0  0.51587  0.67732  0.83858  1.0000
  C   C505      1.0  0.52560  0.72095  0.81921  1.0000
  C   C506      1.0  0.54533  0.73679  0.84525  1.0000
  C   C507      1.0  0.50919  0.73076  0.80642  1.0000
  C   C508      1.0  0.54890  0.76122  0.85690  1.0000
  C   C509      1.0  0.51281  0.75513  0.81855  1.0000
  C   C510      1.0  0.53272  0.77039  0.84348  1.0000
  H   H593      1.0  0.50673  0.69454  0.75219  1.0000
  H   H594      1.0  0.50108  0.66330  0.76817  1.0000
  H   H595      1.0  0.48247  0.67674  0.78842  1.0000
  H   H596      1.0  0.54636  0.68131  0.77967  1.0000
  H   H597      1.0  0.56433  0.70796  0.81042  1.0000
  H   H598      1.0  0.55422  0.71395  0.76638  1.0000
  H   H599      1.0  0.49741  0.67404  0.85236  1.0000
  H   H600      1.0  0.51288  0.65768  0.82970  1.0000
  H   H601      1.0  0.53153  0.68484  0.85996  1.0000
  H   H602      1.0  0.55847  0.73060  0.85631  1.0000
  H   H603      1.0  0.49381  0.72036  0.78640  1.0000
  H   H604      1.0  0.56462  0.77336  0.87587  1.0000
  H   H605      1.0  0.50083  0.76284  0.80741  1.0000
  H   H606      1.0  0.53600  0.78970  0.85157  1.0000
  C   C511      1.0  0.53992  0.96648  0.76662  1.0000
  H   H607      1.0  0.63499  0.98132  0.80431  1.0000
  H   H608      1.0  0.64003  0.66928  0.59663  1.0000
  H   H609      1.0  0.56340  0.96083  0.95127  1.0000
  C   C512      1.0  0.61777  0.89009  0.66346  1.0000
  H   H610      1.0  0.45519  0.00149  0.61163  1.0000
  H   H611      1.0  0.63469  0.56109  0.74623  1.0000
  H   H612      1.0  0.37114  0.81900  0.67201  1.0000
  H   H613      1.0  0.66188  0.90103  0.69906  1.0000
  C   C513      1.0  0.63584  0.51834  0.99861  1.0000
  C   C514      1.0  0.41385  0.00828  0.59973  1.0000
  H   H614      1.0  0.51690  0.93450  0.89786  1.0000
  C   C515      1.0  0.56890  0.53110  0.76392  1.0000
  C   C516      1.0  0.52525  0.91532  0.98410  1.0000
  C   C517      1.0  0.56224  0.55140  0.76390  1.0000
  H   H615      1.0  0.38609  0.81033  0.72732  1.0000
  H   H616      1.0  0.40428  0.98023  0.68526  1.0000
  C   C518      1.0  0.63911  0.84582  0.69401  1.0000
  C   C519      1.0  0.39875  0.98536  0.65827  1.0000
  S   S142      1.0  0.66657  0.60849  0.81736  1.0000
  C   C520      1.0  0.54656  0.01088  0.76877  1.0000
  H   H617      1.0  0.63497  0.98641  0.68490  1.0000
  C   C521      1.0  0.64002  0.99593  0.71189  1.0000
  H   H618      1.0  0.50896  0.97541  0.77554  1.0000
  C   C522      1.0  0.63708  0.82172  0.68386  1.0000
  N   N35       1.0  0.61973  0.87642  0.69699  1.0000
  H   H619      1.0  0.57250  0.61654  0.59694  1.0000
  H   H620      1.0  0.51771  0.94984  0.94144  1.0000
  H   H621      1.0  0.59872  0.87846  0.64900  1.0000
  C   C523      1.0  0.57428  0.60490  0.52268  1.0000
  H   H622      1.0  0.36191  0.93734  0.51047  1.0000
  H   H623      1.0  0.59771  0.85968  0.74730  1.0000
  N   N36       1.0  0.60928  0.63686  0.56594  1.0000
  C   C524      1.0  0.61725  0.61801  0.57970  1.0000
  C   C525      1.0  0.63261  0.66371  0.56754  1.0000
  C   C526      1.0  0.58935  0.63657  0.59196  1.0000
  H   H624      1.0  0.49685  0.51593  0.74565  1.0000
  H   H625      1.0  0.65243  0.81736  0.69116  1.0000
  H   H626      1.0  0.63373  0.89401  0.64307  1.0000
  C   C527      1.0  0.52987  0.98354  0.77076  1.0000
  C   C528      1.0  0.59804  0.62897  0.52811  1.0000
  C   C529      1.0  0.38039  0.91992  0.54231  1.0000
  C   C530      1.0  0.66535  0.62008  0.74235  1.0000
  H   H627      1.0  0.62600  0.62354  0.60811  1.0000
  H   H628      1.0  0.60032  0.59766  0.58198  1.0000
  H   H629      1.0  0.51312  0.87316  0.98252  1.0000
  C   C531      1.0  0.61487  0.80265  0.66559  1.0000
  H   H630      1.0  0.65665  0.85944  0.70867  1.0000
  C   C532      1.0  0.37313  0.92724  0.50909  1.0000
  H   H631      1.0  0.59779  0.64438  0.61981  1.0000
  H   H632      1.0  0.58138  0.64894  0.58134  1.0000
  H   H633      1.0  0.66430  0.63031  0.68481  1.0000
  H   H634      1.0  0.62472  0.55401  0.81520  1.0000
  H   H635      1.0  0.57800  0.85859  0.70896  1.0000
  H   H636      1.0  0.36825  0.83930  0.73340  1.0000
  C   C533      1.0  0.59450  0.80748  0.65745  1.0000
  H   H637      1.0  0.64623  0.88651  0.74338  1.0000
  C   C534      1.0  0.58346  0.00387  0.75811  1.0000
  C   C535      1.0  0.63992  0.99297  0.77909  1.0000
  H   H638      1.0  0.59923  0.52456  0.91320  1.0000
  C   C536      1.0  0.61865  0.85141  0.68605  1.0000
  S   S143      1.0  0.37158  0.92826  0.58573  1.0000
  C   C537      1.0  0.51677  0.52015  0.75066  1.0000
  H   H639      1.0  0.61922  0.90936  0.67087  1.0000
  C   C538      1.0  0.64417  0.89509  0.71681  1.0000
  C   C539      1.0  0.43715  0.98917  0.62839  1.0000
  C   C540      1.0  0.51646  0.88987  0.99941  1.0000
  C   C541      1.0  0.56666  0.97663  0.76025  1.0000
  H   H640      1.0  0.50547  0.88191  0.92259  1.0000
  H   H641      1.0  0.53568  0.95545  0.99990  1.0000
  H   H642      1.0  0.63205  0.61736  0.56074  1.0000
  H   H643      1.0  0.59103  0.53846  0.83031  1.0000
  H   H644      1.0  0.38615  0.99411  0.66483  1.0000
  Fe  Fe70      1.0  0.67064  0.52598  0.82525  1.0000
  H   H645      1.0  0.49273  0.91632  0.93298  1.0000
  H   H646      1.0  0.57691  0.57174  0.76886  1.0000
  C   C542      1.0  0.61383  0.55562  0.74160  1.0000
  H   H647      1.0  0.60646  0.57036  0.80844  1.0000
  C   C543      1.0  0.60486  0.55058  0.80778  1.0000
  C   C544      1.0  0.39948  0.00511  0.75285  1.0000
  C   C545      1.0  0.59736  0.90854  0.00238  1.0000
  H   H648      1.0  0.36500  0.77559  0.72147  1.0000
  H   H649      1.0  0.60807  0.54652  0.71345  1.0000
  S   S144      1.0  0.35897  0.87064  0.65926  1.0000
  H   H650      1.0  0.61478  0.92768  0.99969  1.0000
  S   S145      1.0  0.68240  0.55344  0.77636  1.0000
  H   H651      1.0  0.59769  0.54447  0.97367  1.0000
  C   C546      1.0  0.60839  0.53383  0.97115  1.0000
  C   C547      1.0  0.62148  0.53152  0.00184  1.0000
  H   H652      1.0  0.68361  0.52771  0.93117  1.0000
  H   H653      1.0  0.68237  0.51595  0.00069  1.0000
  H   H654      1.0  0.52347  0.64439  0.50838  1.0000
  S   S146      1.0  0.89338  0.48682  0.32475  1.0000
  H   H655      1.0  0.76413  0.11330  0.18837  1.0000
  S   S147      1.0  0.69862  0.11148  0.32007  1.0000
  H   H656      1.0  0.92011  0.50471  0.25287  1.0000
  C   C548      1.0  0.92809  0.34396  0.02091  1.0000
  C   C549      1.0  0.90354  0.50463  0.44156  1.0000
  Fe  Fe71      1.0  0.71325  0.15377  0.30239  1.0000
  S   S148      1.0  0.75517  0.17519  0.27799  1.0000
  C   C550      1.0  0.72638  0.06028  0.19330  1.0000
  Fe  Fe72      1.0  0.93189  0.35508  0.23624  1.0000
  S   S149      1.0  0.94186  0.38094  0.18606  1.0000
  S   S150      1.0  0.95931  0.35988  0.28412  1.0000
  Fe  Fe73      1.0  0.87278  0.32542  0.21885  1.0000
  S   S151      1.0  0.87835  0.34966  0.16698  1.0000
  S   S152      1.0  0.83195  0.29819  0.24442  1.0000
  Fe  Fe74      1.0  0.91320  0.34448  0.15490  1.0000
  S   S153      1.0  0.92812  0.34074  0.09744  1.0000
  Fe  Fe75      1.0  0.90666  0.38477  0.20081  1.0000
  S   S154      1.0  0.91280  0.42593  0.19213  1.0000
  S   S155      1.0  0.90591  0.31767  0.20437  1.0000
  S   S156      1.0  0.89849  0.36148  0.25337  1.0000
  C   C551      1.0  0.99411  0.37743  0.27970  1.0000
  C   C552      1.0  0.00656  0.38237  0.24484  1.0000
  H   H657      1.0  0.82799  0.51140  0.19559  1.0000
  H   H658      1.0  0.97594  0.41604  0.26179  1.0000
  C   C553      1.0  0.91325  0.33922  0.05394  1.0000
  C   C554      1.0  0.74915  0.11963  0.18982  1.0000
  C   C555      1.0  0.88720  0.33359  0.05153  1.0000
  H   H659      1.0  0.95617  0.44419  0.25102  1.0000
  H   H660      1.0  0.87544  0.32956  0.07663  1.0000
  C   C556      1.0  0.77585  0.20936  0.26741  1.0000
  C   C557      1.0  0.80128  0.21803  0.25298  1.0000
  C   C558      1.0  0.81859  0.24496  0.24512  1.0000
  C   C559      1.0  0.81070  0.26367  0.25173  1.0000
  C   C560      1.0  0.78522  0.25494  0.26591  1.0000
  C   C561      1.0  0.76789  0.22802  0.27362  1.0000
  H   H661      1.0  0.80774  0.20386  0.24807  1.0000
  H   H662      1.0  0.83802  0.25122  0.23414  1.0000
  H   H663      1.0  0.77883  0.26915  0.27112  1.0000
  H   H664      1.0  0.74845  0.22178  0.28463  1.0000
  H   H665      1.0  0.71061  0.15547  0.44879  1.0000
  H   H666      1.0  0.71842  0.08546  0.26818  1.0000
  C   C562      1.0  0.70440  0.14307  0.47332  1.0000
  C   C563      1.0  0.85236  0.49690  0.23932  1.0000
  C   C564      1.0  0.76794  0.50087  0.22008  1.0000
  C   C565      1.0  0.89998  0.47058  0.28816  1.0000
  C   C566      1.0  0.89106  0.44351  0.29143  1.0000
  C   C567      1.0  0.89521  0.42970  0.26239  1.0000
  C   C568      1.0  0.90797  0.44281  0.22961  1.0000
  C   C569      1.0  0.91692  0.46992  0.22632  1.0000
  C   C570      1.0  0.91311  0.48383  0.25562  1.0000
  H   H667      1.0  0.88086  0.43315  0.31653  1.0000
  H   H668      1.0  0.88816  0.40882  0.26515  1.0000
  H   H669      1.0  0.92688  0.48020  0.20106  1.0000
  H   H670      1.0  0.75274  0.50447  0.20944  1.0000
  H   H671      1.0  0.90336  0.37804  0.09177  1.0000
  N   N37       1.0  0.93055  0.41806  0.07670  1.0000
  H   H672      1.0  0.74637  0.06850  0.20269  1.0000
  H   H673      1.0  0.72437  0.02343  0.17859  1.0000
  S   S157      1.0  0.69744  0.16362  0.35421  1.0000
  H   H674      1.0  0.94966  0.39478  0.07045  1.0000
  H   H675      1.0  0.94687  0.44828  0.11901  1.0000
  H   H676      1.0  0.78647  0.20629  0.35509  1.0000
  H   H677      1.0  0.97039  0.42959  0.06069  1.0000
  H   H678      1.0  0.94820  0.34814  0.02250  1.0000
  H   H679      1.0  0.99489  0.37562  0.21979  1.0000
  C   C571      1.0  0.68686  0.06249  0.18214  1.0000
  H   H680      1.0  0.90838  0.50565  0.41208  1.0000
  H   H681      1.0  0.91863  0.39949  0.13040  1.0000
  C   C572      1.0  0.91053  0.39836  0.10220  1.0000
  C   C573      1.0  0.68740  0.11597  0.46963  1.0000
  C   C574      1.0  0.87783  0.48842  0.45376  1.0000
  C   C575      1.0  0.87146  0.48724  0.49170  1.0000
  H   H682      1.0  0.96193  0.41785  0.10764  1.0000
  H   H683      1.0  0.92075  0.44775  0.09398  1.0000
  H   H684      1.0  0.98395  0.49264  0.25109  1.0000
  H   H685      1.0  0.74330  0.12076  0.16074  1.0000
  C   C576      1.0  0.00968  0.38626  0.31195  1.0000
  H   H686      1.0  0.95228  0.46029  0.07161  1.0000
  C   C577      1.0  0.89684  0.41659  0.03242  1.0000
  C   C578      1.0  0.76521  0.48966  0.25516  1.0000
  H   H687      1.0  0.78242  0.47774  0.29716  1.0000
  C   C579      1.0  0.81078  0.50463  0.21307  1.0000
  N   N38       1.0  0.87980  0.29434  0.33089  1.0000
  C   C580      1.0  0.89971  0.29674  0.35823  1.0000
  C   C581      1.0  0.88879  0.29208  0.29301  1.0000
  C   C582      1.0  0.87887  0.31928  0.33230  1.0000
  C   C583      1.0  0.85417  0.27058  0.33888  1.0000
  C   C584      1.0  0.85211  0.24533  0.34016  1.0000
  C   C585      1.0  0.83055  0.27149  0.34415  1.0000
  C   C586      1.0  0.82800  0.22249  0.34638  1.0000
  C   C587      1.0  0.80660  0.24853  0.35067  1.0000
  C   C588      1.0  0.80530  0.22410  0.35161  1.0000
  H   H688      1.0  0.90390  0.28022  0.35626  1.0000
  H   H689      1.0  0.91894  0.31505  0.35347  1.0000
  H   H690      1.0  0.89316  0.29735  0.38727  1.0000
  H   H691      1.0  0.89191  0.27490  0.29012  1.0000
  H   H692      1.0  0.90781  0.30986  0.28560  1.0000
  H   H693      1.0  0.87409  0.28979  0.27174  1.0000
  H   H694      1.0  0.87216  0.32228  0.36008  1.0000
  H   H695      1.0  0.89857  0.33678  0.32687  1.0000
  H   H696      1.0  0.86564  0.31969  0.31052  1.0000
  H   H697      1.0  0.86904  0.24298  0.33535  1.0000
  H   H698      1.0  0.82980  0.28952  0.34199  1.0000
  H   H699      1.0  0.82672  0.20334  0.34621  1.0000
  H   H700      1.0  0.78870  0.24955  0.35334  1.0000
  N   N39       1.0  0.82985  0.48976  0.26516  1.0000
  C   C589      1.0  0.97711  0.45315  0.25561  1.0000
  H   H701      1.0  0.86781  0.49385  0.25245  1.0000
  C   C590      1.0  0.73497  0.10039  0.25091  1.0000
  H   H702      1.0  0.00027  0.38252  0.33907  1.0000
  C   C591      1.0  0.80862  0.49317  0.24879  1.0000
  C   C592      1.0  0.95421  0.41501  0.07869  1.0000
  C   C593      1.0  0.71298  0.07488  0.19589  1.0000
  C   C594      1.0  0.93796  0.44477  0.09072  1.0000
  C   C595      1.0  0.99288  0.48047  0.25562  1.0000
  H   H703      1.0  0.85116  0.47474  0.49966  1.0000
  C   C596      1.0  0.91947  0.41426  0.03874  1.0000
  H   H704      1.0  0.74767  0.48437  0.27159  1.0000
  H   H705      1.0  0.80482  0.45573  0.29924  1.0000
  H   H706      1.0  0.83561  0.45865  0.28718  1.0000
  C   C597      1.0  0.98829  0.43733  0.26163  1.0000
  H   H707      1.0  0.71889  0.13315  0.22911  1.0000
  H   H708      1.0  0.85611  0.50482  0.31198  1.0000
  C   C598      1.0  0.78521  0.48589  0.26944  1.0000
  H   H709      1.0  0.75912  0.14003  0.20156  1.0000
  N   N40       1.0  0.72602  0.10155  0.21272  1.0000
  H   H710      1.0  0.84609  0.48465  0.21357  1.0000
  H   H711      1.0  0.75079  0.09522  0.25102  1.0000
  H   H712      1.0  0.88753  0.42136  0.05493  1.0000
  H   H713      1.0  0.81043  0.44835  0.25242  1.0000
  C   C599      1.0  0.01527  0.44876  0.26757  1.0000
  C   C600      1.0  0.81964  0.46193  0.27645  1.0000
  C   C601      1.0  0.70868  0.11329  0.21582  1.0000
  H   H714      1.0  0.82482  0.50208  0.32035  1.0000
  H   H715      1.0  0.89325  0.40114  0.10623  1.0000
  H   H716      1.0  0.69104  0.10084  0.23330  1.0000
  H   H717      1.0  0.74314  0.11975  0.26553  1.0000
  H   H718      1.0  0.86279  0.47694  0.43351  1.0000
  C   C602      1.0  0.84011  0.50674  0.29860  1.0000
  H   H719      1.0  0.85609  0.32865  0.01501  1.0000
  C   C603      1.0  0.87624  0.33296  0.01652  1.0000
  C   C604      1.0  0.71407  0.03454  0.17931  1.0000
  C   C605      1.0  0.68828  0.02278  0.16687  1.0000
  H   H720      1.0  0.70217  0.11611  0.18802  1.0000
  C   C606      1.0  0.79065  0.50834  0.19913  1.0000
  H   H721      1.0  0.94672  0.40447  0.00959  1.0000
  S   S158      1.0  0.90547  0.48417  0.67596  1.0000
  H   H722      1.0  0.94216  0.48900  0.81907  1.0000
  S   S159      1.0  0.72431  0.13775  0.69311  1.0000
  H   H723      1.0  0.86175  0.27500  0.87655  1.0000
  H   H724      1.0  0.93930  0.35420  0.67632  1.0000
  Fe  Fe76      1.0  0.71176  0.16492  0.71894  1.0000
  S   S160      1.0  0.73577  0.20369  0.75092  1.0000
  H   H725      1.0  0.91190  0.43945  0.69131  1.0000
  C   C607      1.0  0.71258  0.22160  0.58853  1.0000
  Fe  Fe77      1.0  0.89077  0.34675  0.88060  1.0000
  S   S161      1.0  0.91088  0.33129  0.84221  1.0000
  S   S162      1.0  0.87591  0.33656  0.94047  1.0000
  Fe  Fe78      1.0  0.87927  0.37389  0.81666  1.0000
  S   S163      1.0  0.89736  0.35980  0.77371  1.0000
  S   S164      1.0  0.86210  0.40036  0.80711  1.0000
  Fe  Fe79      1.0  0.87694  0.32083  0.80337  1.0000
  S   S165      1.0  0.85907  0.28149  0.77221  1.0000
  Fe  Fe80      1.0  0.92982  0.37168  0.81531  1.0000
  S   S166      1.0  0.96909  0.40095  0.78893  1.0000
  S   S167      1.0  0.85598  0.33397  0.84296  1.0000
  S   S168      1.0  0.91234  0.38774  0.85702  1.0000
  C   C608      1.0  0.00067  0.40409  0.78545  1.0000
  C   C609      1.0  0.99252  0.37651  0.69298  1.0000
  H   H726      1.0  0.88247  0.46371  0.56624  1.0000
  C   C610      1.0  0.00438  0.47685  0.79399  1.0000
  C   C611      1.0  0.91713  0.34338  0.98583  1.0000
  C   C612      1.0  0.89111  0.33788  0.98354  1.0000
  H   H727      1.0  0.81234  0.26582  0.94736  1.0000
  H   H728      1.0  0.92874  0.34708  0.96067  1.0000
  H   H729      1.0  0.80399  0.22224  0.60100  1.0000
  C   C613      1.0  0.77725  0.24844  0.88742  1.0000
  C   C614      1.0  0.77022  0.22487  0.75626  1.0000
  C   C615      1.0  0.78861  0.21714  0.74665  1.0000
  C   C616      1.0  0.81569  0.23471  0.75151  1.0000
  C   C617      1.0  0.82472  0.26004  0.76655  1.0000
  C   C618      1.0  0.80632  0.26762  0.77659  1.0000
  C   C619      1.0  0.77930  0.25018  0.77135  1.0000
  H   H730      1.0  0.78197  0.19750  0.73599  1.0000
  H   H731      1.0  0.82970  0.22850  0.74399  1.0000
  H   H732      1.0  0.81288  0.28701  0.78822  1.0000
  H   H733      1.0  0.76529  0.25632  0.77928  1.0000
  C   C620      1.0  0.93001  0.40741  0.00750  1.0000
  H   H734      1.0  0.98189  0.38646  0.68551  1.0000
  C   C621      1.0  0.74937  0.22654  0.62670  1.0000
  C   C622      1.0  0.94062  0.49197  0.78877  1.0000
  C   C623      1.0  0.87007  0.47291  0.57162  1.0000
  C   C624      1.0  0.89364  0.46108  0.71263  1.0000
  C   C625      1.0  0.87820  0.46280  0.74124  1.0000
  C   C626      1.0  0.86870  0.44407  0.77008  1.0000
  C   C627      1.0  0.87493  0.42380  0.77087  1.0000
  C   C628      1.0  0.89082  0.42239  0.74262  1.0000
  C   C629      1.0  0.89992  0.44084  0.71334  1.0000
  H   H735      1.0  0.87306  0.47819  0.74080  1.0000
  H   H736      1.0  0.85632  0.44519  0.79177  1.0000
  H   H737      1.0  0.89570  0.40683  0.74297  1.0000
  C   C630      1.0  0.84127  0.26371  0.86606  1.0000
  H   H738      1.0  0.74145  0.21293  0.56852  1.0000
  H   H739      1.0  0.82653  0.21728  0.89744  1.0000
  N   N41       1.0  0.88351  0.50071  0.55867  1.0000
  N   N42       1.0  0.95158  0.33583  0.71763  1.0000
  C   C631      1.0  0.94636  0.32952  0.75792  1.0000
  C   C632      1.0  0.93726  0.34975  0.70669  1.0000
  C   C633      1.0  0.94026  0.31080  0.69632  1.0000
  H   H740      1.0  0.96475  0.46675  0.80128  1.0000
  S   S169      1.0  0.71943  0.15273  0.58457  1.0000
  C   C634      1.0  0.73837  0.23378  0.65687  1.0000
  H   H741      1.0  0.95445  0.31712  0.76813  1.0000
  H   H742      1.0  0.84604  0.24183  0.93046  1.0000
  H   H743      1.0  0.84658  0.28149  0.93685  1.0000
  H   H744      1.0  0.95521  0.34782  0.77497  1.0000
  H   H745      1.0  0.92491  0.31855  0.76432  1.0000
  H   H746      1.0  0.86590  0.47140  0.60225  1.0000
  H   H747      1.0  0.94441  0.36853  0.72253  1.0000
  H   H748      1.0  0.91582  0.33770  0.71266  1.0000
  H   H749      1.0  0.92085  0.50883  0.58100  1.0000
  H   H750      1.0  0.94439  0.31465  0.66593  1.0000
  H   H751      1.0  0.94839  0.29809  0.70520  1.0000
  H   H752      1.0  0.91856  0.29891  0.70030  1.0000
  H   H753      1.0  0.99278  0.37090  0.82004  1.0000
  C   C635      1.0  0.78646  0.21656  0.85760  1.0000
  H   H754      1.0  0.84047  0.24870  0.84611  1.0000
  H   H755      1.0  0.92618  0.39699  0.94915  1.0000
  C   C636      1.0  0.82655  0.23230  0.91657  1.0000
  C   C637      1.0  0.76126  0.20394  0.84251  1.0000
  C   C638      1.0  0.75219  0.23583  0.87175  1.0000
  H   H756      1.0  0.95686  0.49688  0.71707  1.0000
  H   H757      1.0  0.78856  0.24969  0.68103  1.0000
  C   C639      1.0  0.79508  0.23891  0.88115  1.0000
  H   H758      1.0  0.83750  0.27754  0.84954  1.0000
  H   H759      1.0  0.98899  0.32207  0.73377  1.0000
  C   C640      1.0  0.98756  0.50632  0.77648  1.0000
  H   H760      1.0  0.74686  0.23757  0.68440  1.0000
  H   H761      1.0  0.70235  0.21647  0.56213  1.0000
  H   H762      1.0  0.78230  0.26583  0.90385  1.0000
  Fe  Fe81      1.0  0.70154  0.13779  0.64229  1.0000
  H   H763      1.0  0.72500  0.20422  0.83657  1.0000
  C   C641      1.0  0.70610  0.13812  0.54088  1.0000
  C   C642      1.0  0.98025  0.35132  0.71043  1.0000
  C   C643      1.0  0.70275  0.22946  0.61848  1.0000
  H   H764      1.0  0.82656  0.29012  0.91041  1.0000
  H   H765      1.0  0.73900  0.24358  0.87638  1.0000
  H   H766      1.0  0.75518  0.18717  0.82402  1.0000
  N   N43       1.0  0.82188  0.25188  0.89685  1.0000
  H   H767      1.0  0.92491  0.49728  0.78577  1.0000
  C   C644      1.0  0.82682  0.27313  0.92398  1.0000
  C   C645      1.0  0.74418  0.21358  0.84949  1.0000
  H   H768      1.0  0.81127  0.22180  0.93843  1.0000
  H   H769      1.0  0.81292  0.24876  0.65302  1.0000
  H   H770      1.0  0.79932  0.20900  0.84991  1.0000
  C   C646      1.0  0.00720  0.38679  0.80300  1.0000
  N   N44       1.0  0.77347  0.22474  0.63199  1.0000
  C   C647      1.0  0.76694  0.20134  0.65504  1.0000
  C   C648      1.0  0.78519  0.22211  0.59639  1.0000
  C   C649      1.0  0.79388  0.24856  0.65149  1.0000
  C   C650      1.0  0.99677  0.34096  0.72018  1.0000
  C   C651      1.0  0.73543  0.21996  0.59247  1.0000
  H   H771      1.0  0.79740  0.26689  0.63716  1.0000
  H   H772      1.0  0.85085  0.46062  0.55795  1.0000
  C   C652      1.0  0.71553  0.23537  0.65265  1.0000
  S   S170      1.0  0.69107  0.16662  0.66753  1.0000
  H   H773      1.0  0.75289  0.18291  0.64056  1.0000
  H   H774      1.0  0.78462  0.19983  0.66176  1.0000
  H   H775      1.0  0.75740  0.20161  0.68174  1.0000
  H   H776      1.0  0.78924  0.23847  0.57690  1.0000
  H   H777      1.0  0.77217  0.20296  0.58229  1.0000
  H   H778      1.0  0.70748  0.24071  0.67634  1.0000
  H   H779      1.0  0.88670  0.40093  0.94017  1.0000
  H   H780      1.0  0.84703  0.50019  0.54766  1.0000
  H   H781      1.0  0.68654  0.49878  0.92590  1.0000
  H   H782      1.0  0.93325  0.47274  0.77419  1.0000
  Fe  Fe82      1.0  0.68523  0.10428  0.71360  1.0000
  H   H783      1.0  0.00088  0.45818  0.80535  1.0000
  C   C653      1.0  0.88534  0.41206  0.99718  1.0000
  C   C654      1.0  0.98366  0.48214  0.79154  1.0000
  C   C655      1.0  0.91841  0.40308  0.97236  1.0000
  C   C656      1.0  0.68864  0.11112  0.53729  1.0000
  H   H784      1.0  0.86775  0.41340  0.99313  1.0000
  C   C657      1.0  0.89083  0.50217  0.51870  1.0000
  C   C658      1.0  0.89604  0.40520  0.96726  1.0000
  H   H785      1.0  0.85970  0.51108  0.59339  1.0000
  H   H786      1.0  0.01492  0.43823  0.75001  1.0000
  N   N45       1.0  0.96606  0.51251  0.77281  1.0000
  H   H787      1.0  0.72743  0.17493  0.51124  1.0000
  H   H788      1.0  0.90027  0.51343  0.61337  1.0000
  C   C659      1.0  0.86546  0.51144  0.56363  1.0000
  C   C660      1.0  0.71387  0.15404  0.50878  1.0000
  H   H789      1.0  0.99529  0.66158  0.34762  1.0000
  S   S171      1.0  0.90720  0.55606  0.28076  1.0000
  Fe  Fe83      1.0  0.93529  0.57645  0.38181  1.0000
  S   S172      1.0  0.93259  0.60459  0.34192  1.0000
  S   S173      1.0  0.95771  0.58865  0.43664  1.0000
  Fe  Fe84      1.0  0.89224  0.57135  0.32717  1.0000
  S   S174      1.0  0.85345  0.57198  0.32906  1.0000
  Fe  Fe85      1.0  0.94791  0.58709  0.29886  1.0000
  S   S175      1.0  0.98030  0.61586  0.25967  1.0000
  S   S176      1.0  0.89404  0.54472  0.37089  1.0000
  S   S177      1.0  0.95256  0.56062  0.33945  1.0000
  H   H790      1.0  0.90680  0.58225  0.45851  1.0000
  Fe  Fe86      1.0  0.73532  0.55802  0.19846  1.0000
  C   C661      1.0  0.81680  0.62701  0.31028  1.0000
  S   S178      1.0  0.77802  0.56673  0.19760  1.0000
  H   H791      1.0  0.00832  0.61078  0.38295  1.0000
  H   H792      1.0  0.00520  0.58601  0.28576  1.0000
  S   S179      1.0  0.72469  0.58919  0.18357  1.0000
  C   C662      1.0  0.81427  0.60548  0.36883  1.0000
  H   H793      1.0  0.79557  0.66884  0.30644  1.0000
  C   C663      1.0  0.00430  0.62277  0.36296  1.0000
  H   H794      1.0  0.73765  0.60083  0.29477  1.0000
  H   H795      1.0  0.84811  0.52778  0.29105  1.0000
  C   C664      1.0  0.78824  0.59940  0.37318  1.0000
  S   S180      1.0  0.70761  0.52901  0.15626  1.0000
  H   H796      1.0  0.75600  0.60145  0.35110  1.0000
  C   C665      1.0  0.01227  0.61993  0.25360  1.0000
  C   C666      1.0  0.77846  0.61675  0.24859  1.0000
  C   C667      1.0  0.83220  0.56839  0.29157  1.0000
  C   C668      1.0  0.80587  0.56096  0.29945  1.0000
  C   C669      1.0  0.78892  0.56009  0.27111  1.0000
  C   C670      1.0  0.79813  0.56658  0.23439  1.0000
  C   C671      1.0  0.82428  0.57337  0.22636  1.0000
  C   C672      1.0  0.84120  0.57416  0.25469  1.0000
  H   H797      1.0  0.82331  0.59892  0.38924  1.0000
  H   H798      1.0  0.76882  0.55454  0.27775  1.0000
  Fe  Fe87      1.0  0.91096  0.53112  0.32521  1.0000
  H   H799      1.0  0.86139  0.58000  0.24812  1.0000
  C   C673      1.0  0.94272  0.58661  0.48052  1.0000
  H   H800      1.0  0.98459  0.61969  0.37068  1.0000
  C   C674      1.0  0.91767  0.58374  0.48349  1.0000
  S   S181      1.0  0.70620  0.54170  0.24585  1.0000
  C   C675      1.0  0.72000  0.56455  0.04204  1.0000
  H   H801      1.0  0.77714  0.58834  0.39743  1.0000
  H   H802      1.0  0.79833  0.62079  0.23979  1.0000
  H   H803      1.0  0.81406  0.66514  0.26892  1.0000
  H   H804      1.0  0.00711  0.65955  0.41110  1.0000
  C   C676      1.0  0.82853  0.61930  0.33749  1.0000
  H   H805      1.0  0.72777  0.56050  0.06683  1.0000
  C   C677      1.0  0.79388  0.65854  0.27953  1.0000
  H   H806      1.0  0.00274  0.61426  0.33474  1.0000
  C   C678      1.0  0.79031  0.62118  0.31374  1.0000
  H   H807      1.0  0.79861  0.55622  0.32780  1.0000
  H   H808      1.0  0.74909  0.63204  0.31850  1.0000
  H   H809      1.0  0.77084  0.62349  0.22531  1.0000
  H   H810      1.0  0.79291  0.51786  0.17237  1.0000
  C   C679      1.0  0.77629  0.60706  0.34614  1.0000
  H   H811      1.0  0.78465  0.66566  0.25899  1.0000
  H   H812      1.0  0.74236  0.62895  0.26968  1.0000
  H   H813      1.0  0.76597  0.59497  0.25071  1.0000
  H   H814      1.0  0.83159  0.57832  0.19803  1.0000
  Fe  Fe88      1.0  0.69504  0.55878  0.14470  1.0000
  C   C680      1.0  0.69872  0.56900  0.04509  1.0000
  N   N46       1.0  0.77840  0.62953  0.28435  1.0000
  H   H815      1.0  0.84851  0.62315  0.33363  1.0000
  H   H816      1.0  0.82854  0.63705  0.28603  1.0000
  C   C681      1.0  0.75079  0.62256  0.29244  1.0000
  Fe  Fe89      1.0  0.69331  0.57055  0.22790  1.0000
  C   C682      1.0  0.92293  0.51983  0.46719  1.0000
  H   H817      1.0  0.94278  0.53297  0.45738  1.0000
  H   H818      1.0  0.86220  0.51810  0.23143  1.0000
  C   C683      1.0  0.91682  0.51875  0.50521  1.0000
  C   C684      1.0  0.01505  0.66507  0.33894  1.0000
  H   H819      1.0  0.01292  0.65795  0.30959  1.0000
  C   C685      1.0  0.68897  0.57439  0.01264  1.0000
  Fe  Fe90      1.0  0.91101  0.57041  0.65064  1.0000
  S   S182      1.0  0.91459  0.59165  0.70510  1.0000
  S   S183      1.0  0.90690  0.58655  0.59519  1.0000
  H   H820      1.0  0.97063  0.68044  0.66864  1.0000
  S   S184      1.0  0.90908  0.53921  0.74567  1.0000
  Fe  Fe91      1.0  0.88152  0.55275  0.72505  1.0000
  S   S185      1.0  0.84859  0.54632  0.76554  1.0000
  Fe  Fe92      1.0  0.94190  0.57663  0.72161  1.0000
  S   S186      1.0  0.97660  0.59757  0.76097  1.0000
  S   S187      1.0  0.87604  0.53253  0.66968  1.0000
  S   S188      1.0  0.94090  0.55865  0.66563  1.0000
  Fe  Fe93      1.0  0.72395  0.56412  0.79179  1.0000
  C   C686      1.0  0.83770  0.57150  0.86003  1.0000
  S   S189      1.0  0.75517  0.57176  0.74753  1.0000
  H   H821      1.0  0.80163  0.53107  0.80808  1.0000
  H   H822      1.0  0.76520  0.54083  0.80238  1.0000
  C   C687      1.0  0.69979  0.57460  0.97735  1.0000
  S   S190      1.0  0.72947  0.59710  0.83041  1.0000
  C   C688      1.0  0.97314  0.53768  0.79214  1.0000
  H   H823      1.0  0.01158  0.61183  0.69527  1.0000
  S   S191      1.0  0.71142  0.53387  0.83731  1.0000
  S   S192      1.0  0.73516  0.57008  0.93036  1.0000
  C   C689      1.0  0.01121  0.61568  0.75492  1.0000
  H   H824      1.0  0.84718  0.64981  0.87525  1.0000
  H   H825      1.0  0.80282  0.63058  0.90785  1.0000
  H   H826      1.0  0.99018  0.55493  0.77895  1.0000
  C   C690      1.0  0.80970  0.56386  0.91361  1.0000
  H   H827      1.0  0.00374  0.66025  0.70981  1.0000
  C   C691      1.0  0.99198  0.66403  0.61625  1.0000
  C   C692      1.0  0.77999  0.56288  0.75146  1.0000
  C   C693      1.0  0.78062  0.54803  0.78150  1.0000
  C   C694      1.0  0.80138  0.54257  0.78470  1.0000
  C   C695      1.0  0.82188  0.55202  0.75821  1.0000
  C   C696      1.0  0.82111  0.56660  0.72789  1.0000
  C   C697      1.0  0.80025  0.57196  0.72457  1.0000
  H   H828      1.0  0.93277  0.53141  0.52329  1.0000
  H   H829      1.0  0.99137  0.62164  0.64314  1.0000
  H   H830      1.0  0.83671  0.57399  0.70727  1.0000
  H   H831      1.0  0.79149  0.62459  0.80696  1.0000
  C   C698      1.0  0.94562  0.58779  0.54867  1.0000
  C   C699      1.0  0.92076  0.58545  0.55157  1.0000
  H   H832      1.0  0.69187  0.57854  0.95262  1.0000
  H   H833      1.0  0.95663  0.58962  0.57360  1.0000
  H   H834      1.0  0.97334  0.61854  0.68551  1.0000
  C   C700      1.0  0.00893  0.66793  0.68069  1.0000
  N   N47       1.0  0.98603  0.65474  0.65536  1.0000
  H   H835      1.0  0.85001  0.56629  0.84330  1.0000
  H   H836      1.0  0.79995  0.58346  0.70123  1.0000
  H   H837      1.0  0.95220  0.63822  0.59606  1.0000
  H   H838      1.0  0.77871  0.59094  0.82072  1.0000
  H   H839      1.0  0.88784  0.58211  0.52081  1.0000
  Fe  Fe94      1.0  0.90617  0.52231  0.68875  1.0000
  H   H840      1.0  0.84110  0.60031  0.82122  1.0000
  H   H841      1.0  0.95793  0.61440  0.64136  1.0000
  H   H842      1.0  0.80929  0.60795  0.79604  1.0000
  H   H843      1.0  0.84839  0.64195  0.82701  1.0000
  H   H844      1.0  0.83239  0.65994  0.83989  1.0000
  C   C701      1.0  0.73127  0.56539  0.00678  1.0000
  H   H845      1.0  0.77409  0.60671  0.88309  1.0000
  C   C702      1.0  0.97729  0.66042  0.55140  1.0000
  C   C703      1.0  0.72106  0.57017  0.97427  1.0000
  C   C704      1.0  0.97677  0.62611  0.65636  1.0000
  H   H846      1.0  0.97800  0.53699  0.82188  1.0000
  H   H847      1.0  0.96069  0.65331  0.70048  1.0000
  C   C705      1.0  0.96499  0.65928  0.67060  1.0000
  H   H848      1.0  0.79116  0.58683  0.91881  1.0000
  H   H849      1.0  0.91621  0.53726  0.57782  1.0000
  H   H850      1.0  0.01651  0.68953  0.68231  1.0000
  H   H851      1.0  0.79057  0.64016  0.86881  1.0000
  C   C706      1.0  0.00243  0.67938  0.54017  1.0000
  Fe  Fe95      1.0  0.71440  0.56604  0.87525  1.0000
  N   N48       1.0  0.81068  0.61867  0.85428  1.0000
  C   C707      1.0  0.79708  0.61029  0.81800  1.0000
  C   C708      1.0  0.79392  0.62428  0.87975  1.0000
  C   C709      1.0  0.83576  0.64365  0.84890  1.0000
  C   C710      1.0  0.81593  0.59792  0.86822  1.0000
  C   C711      1.0  0.80452  0.58356  0.90163  1.0000
  C   C712      1.0  0.83253  0.59110  0.84767  1.0000
  C   C713      1.0  0.97205  0.65300  0.58884  1.0000
  H   H852      1.0  0.97612  0.59105  0.51116  1.0000
  C   C714      1.0  0.82627  0.55786  0.89288  1.0000
  H   H853      1.0  0.97935  0.53179  0.71919  1.0000
  H   H854      1.0  0.94608  0.64767  0.65566  1.0000
  C   C715      1.0  0.01333  0.52456  0.76386  1.0000
  H   H855      1.0  0.87486  0.53231  0.55413  1.0000
  C   C716      1.0  0.90633  0.51577  0.58352  1.0000
  H   H856      1.0  0.95681  0.54225  0.79152  1.0000
  H   H857      1.0  0.94541  0.51929  0.72873  1.0000
  H   H858      1.0  0.96172  0.65118  0.53100  1.0000
  H   H859      1.0  0.80050  0.55297  0.93892  1.0000
  H   H860      1.0  0.74778  0.56202  0.00470  1.0000
  C   C717      1.0  0.95667  0.58870  0.51325  1.0000
  C   C718      1.0  0.01743  0.68341  0.60391  1.0000
  C   C719      1.0  0.90696  0.58361  0.51885  1.0000
  H   H861      1.0  0.82996  0.54234  0.90194  1.0000
  Fe  Fe96      1.0  0.68703  0.58404  0.81839  1.0000
  C   C720      1.0  0.96187  0.51529  0.73276  1.0000
  H   H862      1.0  0.00640  0.68508  0.51109  1.0000
  H   H863      1.0  0.01785  0.62254  0.81398  1.0000
  H   H864      1.0  0.01769  0.54315  0.75153  1.0000
