data_image0
_chemical_formula_structural       FeSCFeS2FeSFeS3CS2FeSFeSHCSFeHSFeSHSC2HCH4CHC3H2C5H5CFeH2CHFeHSHC3HC2HCHCH3C7H4C6H6CHCHCHNCNHNCHCH2CHCHCHCH3CH5CH2SCHCHNHCH3C3H2CH5CFeCFeS2FeS2FeSFe2S2FeS2C2FeCFeS3H2C6H4C6H4C7H3CH2NC9H7CH7SHCHC2HCH2SC2SHSHSCHCHS3HNC9H13CFeHC2H4C3SH2CHC2FeHS2H2C2HCHSC2FeH3CSHCHC2H6SCHNH2CHCNCHC2HFeC2H2C2H2CHCHC2H3NH4CHSCNHCSCHSHC3HCHCHC2HCH2C2HC4H2CHFeH2C2FeCH6SC3H3SH2C2HC2H3SH5SH2SH3CFeS2Fe2S2HCNFeHC2SCHCH2CHSHC2H6C3H2CSCHC6H4CSH5C2HC2HFeH2C2H2CH2CH2C2HSH2NFeCHCSH2SC2H2C2H2S2C2H4SH2CHCHCH4C2SHC2H2NFeH2CH3C2HC2HC2SH2C3SCHC4FeS2FeSCHS2CH2NCHC2H3C2SHCH2NC3H3CHC3NH4CHCH2C2HC2HC2H3C2HCHCH2CH2FeSCH8CH3CNCFeC2HCHCHC2HC2H2C2H2NHFeHC2HCHSH9CHC3HFeHSC4HCH3CH2C2S2HSHSH2CHSCH3FeHSFeHSHCHS2C2SC4SCH3C4H4FeC4FeC2NHCH2C3HNSH2FeNC2NCHSFeS2H2CFeCNHC2HC2HCSH2C2H2CFeCH5C3H2CHC2HCHC2H2CHFeHCH4C4H3C3H2C2H4CH7SNCSH3CHC3SC2HCSH3FeHSCH3CHC2HCHC2H4CH2SCHFeSCHCH2CHSH2CH2FeHC2FeHS2H2S2H2FeHC2H3NC3FeCSCH3SCNHC3H2CHC2H2C2H2C2H2C2HSH4CHC6FeHCH2SH4CH2C3FeC2SC2H2NS3HC3HS2CHC3HC3H2S2C3HSFeH4CFeHFeHC3H3C3H4CH3CH4CH2CH9CFeSCSH2CFeCNSH3C2HCHC2HFeNH2C3HCSHC4HSFeSC2FeS2FeSFeSFeS3FeSCS2CHFeSHSC6H4C6H6FeHCH4CH2CHFeHCHC2HCHC7H3CH9SC2H3C2H2C2H5CHCH2C3FeHC5NH2CH2CH2FeCSHSH2CHCH2NH2NCH4NSC2H4SH3NC6H9C3H4CH3C5HC2HCH2CSC2HNH3CHCHC2HCHFeS2FeCFeHFeNS2C2H2SCSHC6H4CH2S2HCH2SHC2HC4H2NH2C2HCH6SCH2CHCH4CHSCH3C2HC2HC2SCH3NHCH2NSH3CHFe2CH3C2NSHC2HCH2CHCHC2H3C3SFeS2FeSFeSFeS3CHC2FeHSHCH2SH2CNHSC3HCH2C8H4C6HCH2FeHCNHC6H4SHFeHC2HCH2CH2SH4CH2CH2CNC7SCH14NC7H3CH2C2H2FeC3H3N2CSH2CHSHCHCH3C2HC3HCH3SH5C2H3C4H2C2H3CFeS2FeS2FeSFeS3FeS2HC2SFeHSC2FeHS2H3SNFeHSFeCSH4S2C7H3SC5SCHC6H8C2H5CFeHC6H4C6H4C4HCH4CNHC2HFeC2HCNSH7CSC6HCH4NCHCNCH2C2H3NHCHC4HC3H2CHS2CH4FeH2S2HCH2NFeCHC2H2SHCH2SCHC2H2CH2SH5SC3H4FeCFeCHC3H4CH3CSHCH2C2H2C3HC2H2CH3CHSH2CFeCH5CHSCHC6H3CH2C2FeHNCHCH2CHFeCFeSH2FeH2SH4FeCH3C2H2C2H2CHC2H2CSC3H4C3SH3C3HSCHC3SCHCHSH2FeCH3CSCHSH3C3H2SCSCFeSH2C2H3FeSH3C2SCH2SCH5CNH2CSHC3SH3C2H6C4HCH3C6H3C2HSHC2H4CH5CSC2H8CH2C2FeC2NH2C3HNH5C3H2CHC7FeCFeCSCH2CH2SFeNSHSFeSHC2SCH3C2HNCHSHFeSH2CH3SCH3C5HC2HC3HCH2CH2CH2C2H2NCHCH3CFeH2CFeHCHC2H2NH2C2HCH2C2HSCH2SH3SHCSHC2H4CHC2SC2H6C2FeCFeC6FeH3FeHSH3FeH2NCSCSHSC2SH5CH2FeCHCHC4SNC2HCHFeH2CSHCH2CH2CH5C3HCH2C2FeC2HFeHC2H3NH4CSC2HCHCFeSHSNHSCH2C6H4C2FeSCHCHCHSHSC2H3C3SH2CH3FeS2FeSFeSFeS3FeS2FeS2FeSFeS3HCHCSH2C2HSH5C2HC6H4CS2C2H3C6H5CSC2H2FeCSHC3HCH3CNC9H14C3HC2H2CHCH2CNC3HCH2CHNC7SCH11NH2C6H5FeC3HC3FeSH2SC4HCH2SNFeCS2H2CH5CSCH4C2HC4HCN2C2HFeCHCH3C4HSC2H7CSCH2CFeH3SH4CH3C3HCHCHFeH4C3SHCHC4SH2CHCH
_chemical_formula_sum              "Fe144 S288 C1080 H1296 N72"
_cell_length_a       62.8556
_cell_length_b       69.3898
_cell_length_c       46.6887
_cell_angle_alpha    79.2381
_cell_angle_beta     79.949
_cell_angle_gamma    107.808

_space_group_name_H-M_alt    "P 1"
_space_group_IT_number       1

loop_
  _space_group_symop_operation_xyz
  'x, y, z'

loop_
  _atom_site_type_symbol
  _atom_site_label
  _atom_site_symmetry_multiplicity
  _atom_site_fract_x
  _atom_site_fract_y
  _atom_site_fract_z
  _atom_site_occupancy
  Fe  Fe1       1.0  0.37711  0.03193  0.26962  1.0000
  S   S1        1.0  0.37982  0.02694  0.22313  1.0000
  C   C1        1.0  0.28378  0.99108  0.29564  1.0000
  Fe  Fe2       1.0  0.39763  0.07913  0.24697  1.0000
  S   S2        1.0  0.40206  0.07862  0.19854  1.0000
  S   S3        1.0  0.40732  0.10869  0.26211  1.0000
  Fe  Fe3       1.0  0.36707  0.05378  0.21380  1.0000
  S   S4        1.0  0.34067  0.05547  0.18761  1.0000
  Fe  Fe4       1.0  0.41456  0.05212  0.21210  1.0000
  S   S5        1.0  0.44585  0.05137  0.18175  1.0000
  S   S6        1.0  0.36129  0.05671  0.26120  1.0000
  S   S7        1.0  0.41316  0.05470  0.25948  1.0000
  C   C2        1.0  0.47604  0.14510  0.00408  1.0000
  S   S8        1.0  0.44538  0.19986  0.12669  1.0000
  S   S9        1.0  0.38705  0.18388  0.18776  1.0000
  Fe  Fe5       1.0  0.46811  0.23035  0.13146  1.0000
  S   S10       1.0  0.44261  0.20835  0.04343  1.0000
  Fe  Fe6       1.0  0.36472  0.11787  0.01277  1.0000
  S   S11       1.0  0.39358  0.11030  0.02817  1.0000
  H   H1        1.0  0.31994  0.15513  0.15765  1.0000
  C   C3        1.0  0.38684  0.11447  0.12231  1.0000
  S   S12       1.0  0.34575  0.08489  0.01155  1.0000
  Fe  Fe7       1.0  0.44068  0.21908  0.08591  1.0000
  H   H2        1.0  0.46291  0.07069  0.08068  1.0000
  S   S13       1.0  0.35208  0.13867  0.03723  1.0000
  Fe  Fe8       1.0  0.37693  0.07863  0.02188  1.0000
  S   S14       1.0  0.37638  0.05059  0.05513  1.0000
  H   H3        1.0  0.31909  0.98927  0.25725  1.0000
  S   S15       1.0  0.41028  0.22506  0.11023  1.0000
  C   C4        1.0  0.39787  0.16295  0.01858  1.0000
  C   C5        1.0  0.35702  0.13025  0.13505  1.0000
  H   H4        1.0  0.30925  0.03308  0.28472  1.0000
  C   C6        1.0  0.42913  0.07755  0.11856  1.0000
  H   H5        1.0  0.45116  0.14797  0.26704  1.0000
  H   H6        1.0  0.40326  0.11309  0.12654  1.0000
  H   H7        1.0  0.41227  0.07988  0.12326  1.0000
  H   H8        1.0  0.39002  0.12110  0.09765  1.0000
  C   C7        1.0  0.46594  0.13348  0.98540  1.0000
  H   H9        1.0  0.43394  0.18133  0.00423  1.0000
  C   C8        1.0  0.39744  0.14854  0.13118  1.0000
  C   C9        1.0  0.31804  0.01213  0.98245  1.0000
  C   C10       1.0  0.32135  0.02849  0.02399  1.0000
  H   H10       1.0  0.37411  0.09826  0.12871  1.0000
  H   H11       1.0  0.44230  0.15944  0.05944  1.0000
  C   C11       1.0  0.41697  0.18956  0.04187  1.0000
  C   C12       1.0  0.39585  0.18548  0.06207  1.0000
  C   C13       1.0  0.37572  0.17017  0.06035  1.0000
  C   C14       1.0  0.37675  0.15873  0.03870  1.0000
  C   C15       1.0  0.41782  0.17836  0.02002  1.0000
  H   H12       1.0  0.46762  0.15933  0.18182  1.0000
  H   H13       1.0  0.39495  0.19395  0.07912  1.0000
  H   H14       1.0  0.35946  0.16697  0.07605  1.0000
  H   H15       1.0  0.42561  0.06071  0.11917  1.0000
  H   H16       1.0  0.29950  0.13782  0.12337  1.0000
  C   C16       1.0  0.44231  0.12791  0.07225  1.0000
  Fe  Fe9       1.0  0.41675  0.20781  0.15161  1.0000
  H   H17       1.0  0.40055  0.15619  0.10694  1.0000
  H   H18       1.0  0.35084  0.11092  0.10287  1.0000
  C   C17       1.0  0.44833  0.16188  0.25643  1.0000
  H   H19       1.0  0.36168  0.10217  0.17950  1.0000
  Fe  Fe10      1.0  0.41083  0.11921  0.97926  1.0000
  H   H20       1.0  0.42922  0.06955  0.06474  1.0000
  S   S16       1.0  0.36118  0.00721  0.31340  1.0000
  H   H21       1.0  0.43230  0.20921  0.22178  1.0000
  C   C18       1.0  0.31527  0.13559  0.12685  1.0000
  C   C19       1.0  0.32419  0.12312  0.11186  1.0000
  C   C20       1.0  0.29560  0.99703  0.99564  1.0000
  H   H22       1.0  0.39337  0.15942  0.14408  1.0000
  C   C21       1.0  0.32682  0.14537  0.14600  1.0000
  C   C22       1.0  0.43704  0.19617  0.23160  1.0000
  H   H23       1.0  0.28150  0.02911  0.27679  1.0000
  C   C23       1.0  0.29130  0.99351  0.32216  1.0000
  H   H24       1.0  0.33030  0.01016  0.27403  1.0000
  C   C24       1.0  0.37548  0.11794  0.17221  1.0000
  H   H25       1.0  0.44796  0.08647  0.20715  1.0000
  H   H26       1.0  0.32977  0.01605  0.23532  1.0000
  H   H27       1.0  0.39895  0.15448  0.00156  1.0000
  C   C25       1.0  0.34735  0.14276  0.15013  1.0000
  C   C26       1.0  0.35008  0.05356  0.15097  1.0000
  C   C27       1.0  0.34153  0.06193  0.12774  1.0000
  C   C28       1.0  0.34992  0.06145  0.09807  1.0000
  C   C29       1.0  0.36605  0.05170  0.09191  1.0000
  C   C30       1.0  0.37420  0.04294  0.11523  1.0000
  C   C31       1.0  0.36659  0.04425  0.14463  1.0000
  H   H28       1.0  0.32881  0.06921  0.13257  1.0000
  H   H29       1.0  0.34361  0.06829  0.08010  1.0000
  H   H30       1.0  0.38666  0.03538  0.11052  1.0000
  H   H31       1.0  0.37327  0.03777  0.16241  1.0000
  C   C32       1.0  0.40049  0.12814  0.24008  1.0000
  C   C33       1.0  0.38094  0.13274  0.25103  1.0000
  C   C34       1.0  0.37680  0.14975  0.23460  1.0000
  C   C35       1.0  0.39255  0.16254  0.20767  1.0000
  C   C36       1.0  0.41201  0.15776  0.19672  1.0000
  C   C37       1.0  0.41573  0.14035  0.21263  1.0000
  H   H32       1.0  0.36921  0.12337  0.27241  1.0000
  H   H33       1.0  0.36168  0.15330  0.24316  1.0000
  H   H34       1.0  0.42426  0.16742  0.17617  1.0000
  H   H35       1.0  0.43072  0.13662  0.20428  1.0000
  H   H36       1.0  0.39153  0.11602  0.17699  1.0000
  H   H37       1.0  0.37050  0.12739  0.18710  1.0000
  C   C38       1.0  0.46599  0.08676  0.08373  1.0000
  H   H38       1.0  0.44326  0.09604  0.04267  1.0000
  C   C39       1.0  0.46232  0.12143  0.11080  1.0000
  H   H39       1.0  0.41398  0.14728  0.13514  1.0000
  C   C40       1.0  0.29872  0.02797  0.26890  1.0000
  H   H40       1.0  0.35565  0.15070  0.16525  1.0000
  N   N1        1.0  0.44435  0.09149  0.08934  1.0000
  C   C41       1.0  0.34475  0.12043  0.11575  1.0000
  N   N2        1.0  0.33328  0.02007  0.00174  1.0000
  H   H41       1.0  0.46535  0.17222  0.09435  1.0000
  N   N3        1.0  0.37879  0.12776  0.13992  1.0000
  C   C42       1.0  0.44774  0.14873  0.07399  1.0000
  H   H42       1.0  0.43288  0.12358  0.05584  1.0000
  C   C43       1.0  0.46069  0.15595  0.09366  1.0000
  H   H43       1.0  0.31549  0.11592  0.09637  1.0000
  H   H44       1.0  0.43695  0.08028  0.13767  1.0000
  C   C44       1.0  0.44964  0.11362  0.09052  1.0000
  H   H45       1.0  0.40686  0.18357  0.26857  1.0000
  C   C45       1.0  0.43259  0.08618  0.06538  1.0000
  H   H46       1.0  0.47063  0.15781  0.00854  1.0000
  C   C46       1.0  0.42842  0.16478  0.27056  1.0000
  H   H47       1.0  0.26760  0.00309  0.24639  1.0000
  C   C47       1.0  0.42271  0.18179  0.25809  1.0000
  H   H48       1.0  0.41539  0.08794  0.06916  1.0000
  H   H49       1.0  0.47750  0.12150  0.19559  1.0000
  H   H50       1.0  0.41687  0.15323  0.29069  1.0000
  C   C48       1.0  0.46398  0.09023  0.19080  1.0000
  H   H51       1.0  0.36622  0.04281  0.99968  1.0000
  H   H52       1.0  0.31506  0.04044  0.01256  1.0000
  H   H53       1.0  0.46832  0.11147  0.12556  1.0000
  H   H54       1.0  0.47870  0.09795  0.06320  1.0000
  H   H55       1.0  0.32365  0.98991  0.03326  1.0000
  C   C49       1.0  0.46789  0.07544  0.17594  1.0000
  H   H56       1.0  0.29520  0.01507  0.21997  1.0000
  H   H57       1.0  0.47828  0.14789  0.12720  1.0000
  S   S17       1.0  0.43998  0.23688  0.15979  1.0000
  C   C50       1.0  0.33917  0.00276  0.01822  1.0000
  H   H58       1.0  0.47431  0.19796  0.98772  1.0000
  C   C51       1.0  0.46789  0.14229  0.11213  1.0000
  H   H59       1.0  0.30752  0.03981  0.24691  1.0000
  N   N4        1.0  0.29654  0.00645  0.26640  1.0000
  H   H60       1.0  0.30631  0.01619  0.04067  1.0000
  C   C52       1.0  0.31991  0.00545  0.25789  1.0000
  H   H61       1.0  0.47450  0.08757  0.10261  1.0000
  H   H62       1.0  0.33297  0.03603  0.03735  1.0000
  H   H63       1.0  0.30671  0.00621  0.32145  1.0000
  C   C53       1.0  0.46318  0.17610  0.22905  1.0000
  C   C54       1.0  0.45702  0.19348  0.21730  1.0000
  C   C55       1.0  0.28544  0.00277  0.24134  1.0000
  H   H64       1.0  0.47258  0.13987  0.23013  1.0000
  H   H65       1.0  0.46746  0.20502  0.19674  1.0000
  C   C56       1.0  0.35526  0.03706  0.98457  1.0000
  H   H66       1.0  0.35089  0.00832  0.03272  1.0000
  H   H67       1.0  0.27385  0.11696  0.98609  1.0000
  H   H68       1.0  0.28934  0.99095  0.01974  1.0000
  H   H69       1.0  0.41472  0.23696  0.04029  1.0000
  H   H70       1.0  0.34802  0.99588  0.00230  1.0000
  C   C57       1.0  0.47291  0.11703  0.97945  1.0000
  Fe  Fe11      1.0  0.36663  0.09495  0.96356  1.0000
  C   C58       1.0  0.15884  0.00181  0.63271  1.0000
  Fe  Fe12      1.0  0.17078  0.06191  0.67465  1.0000
  S   S18       1.0  0.17941  0.07128  0.62457  1.0000
  S   S19       1.0  0.15096  0.02842  0.69805  1.0000
  Fe  Fe13      1.0  0.19777  0.10477  0.67976  1.0000
  S   S20       1.0  0.20863  0.11826  0.62965  1.0000
  S   S21       1.0  0.20741  0.12510  0.71095  1.0000
  Fe  Fe14      1.0  0.17207  0.10006  0.63074  1.0000
  S   S22       1.0  0.14960  0.11046  0.60346  1.0000
  Fe  Fe15      1.0  0.21482  0.08819  0.62851  1.0000
  Fe  Fe16      1.0  0.99855  0.20603  0.66676  1.0000
  S   S23       1.0  0.16062  0.08934  0.68102  1.0000
  S   S24       1.0  0.20687  0.07614  0.67844  1.0000
  Fe  Fe17      1.0  0.04263  0.11396  0.70404  1.0000
  S   S25       1.0  0.04232  0.08256  0.72742  1.0000
  S   S26       1.0  0.07452  0.14134  0.69948  1.0000
  C   C59       1.0  0.31734  0.11701  0.93175  1.0000
  C   C60       1.0  0.25056  0.99171  0.76752  1.0000
  Fe  Fe18      1.0  0.00528  0.07652  0.74803  1.0000
  C   C61       1.0  0.27191  0.00103  0.77343  1.0000
  Fe  Fe19      1.0  0.02964  0.07204  0.68912  1.0000
  S   S27       1.0  0.04493  0.05457  0.66094  1.0000
  S   S28       1.0  0.00640  0.10888  0.72772  1.0000
  S   S29       1.0  0.03267  0.10387  0.66413  1.0000
  H   H71       1.0  0.07224  0.17491  0.83569  1.0000
  H   H72       1.0  0.02750  0.10142  0.78092  1.0000
  C   C62       1.0  0.12080  0.09427  0.61971  1.0000
  C   C63       1.0  0.10723  0.08473  0.60196  1.0000
  C   C64       1.0  0.08402  0.07215  0.61481  1.0000
  C   C65       1.0  0.07411  0.06985  0.64508  1.0000
  C   C66       1.0  0.08751  0.07999  0.66249  1.0000
  C   C67       1.0  0.11098  0.09169  0.65009  1.0000
  H   H73       1.0  0.11479  0.08673  0.57845  1.0000
  H   H74       1.0  0.07366  0.06443  0.60122  1.0000
  H   H75       1.0  0.07988  0.07860  0.68570  1.0000
  H   H76       1.0  0.12123  0.09944  0.66371  1.0000
  C   C68       1.0  0.21204  0.11349  0.74497  1.0000
  C   C69       1.0  0.20995  0.09236  0.75264  1.0000
  C   C70       1.0  0.21374  0.08369  0.78020  1.0000
  C   C71       1.0  0.21944  0.09611  0.80007  1.0000
  C   C72       1.0  0.22136  0.11713  0.79242  1.0000
  C   C73       1.0  0.21776  0.12580  0.76493  1.0000
  H   H77       1.0  0.20551  0.08279  0.73737  1.0000
  H   H78       1.0  0.21239  0.06751  0.78599  1.0000
  H   H79       1.0  0.22572  0.12678  0.80774  1.0000
  H   H80       1.0  0.21934  0.14211  0.75912  1.0000
  C   C74       1.0  0.07949  0.20334  0.63968  1.0000
  C   C75       1.0  0.09927  0.20025  0.64616  1.0000
  C   C76       1.0  0.09756  0.18112  0.66454  1.0000
  C   C77       1.0  0.07622  0.16478  0.67561  1.0000
  C   C78       1.0  0.05653  0.16760  0.66835  1.0000
  C   C79       1.0  0.05809  0.18704  0.65094  1.0000
  C   C80       1.0  0.27934  0.04406  0.93126  1.0000
  H   H81       1.0  0.11280  0.17896  0.67021  1.0000
  H   H82       1.0  0.04001  0.15498  0.67673  1.0000
  H   H83       1.0  0.04272  0.18922  0.64583  1.0000
  C   C81       1.0  0.30981  0.01124  0.93305  1.0000
  H   H84       1.0  0.09472  0.16013  0.75297  1.0000
  H   H85       1.0  0.08172  0.04738  0.71213  1.0000
  N   N5        1.0  0.05957  0.05070  0.81791  1.0000
  C   C82       1.0  0.03580  0.04293  0.81409  1.0000
  C   C83       1.0  0.06820  0.03291  0.82144  1.0000
  C   C84       1.0  0.05886  0.05749  0.84634  1.0000
  C   C85       1.0  0.07381  0.06841  0.79162  1.0000
  C   C86       1.0  0.08957  0.06622  0.76764  1.0000
  C   C87       1.0  0.07078  0.08811  0.78818  1.0000
  C   C88       1.0  0.10172  0.08287  0.74222  1.0000
  C   C89       1.0  0.08316  0.10469  0.76278  1.0000
  C   C90       1.0  0.09857  0.10207  0.73982  1.0000
  H   H86       1.0  0.03559  0.03804  0.79269  1.0000
  H   H87       1.0  0.02433  0.02930  0.83294  1.0000
  H   H88       1.0  0.02785  0.05525  0.81316  1.0000
  H   H89       1.0  0.06655  0.02509  0.80279  1.0000
  H   H90       1.0  0.05811  0.02035  0.84236  1.0000
  H   H91       1.0  0.08647  0.03813  0.82290  1.0000
  H   H92       1.0  0.04888  0.06814  0.84824  1.0000
  C   C91       1.0  0.15634  0.06363  0.81621  1.0000
  H   H93       1.0  0.07659  0.06558  0.84837  1.0000
  H   H94       1.0  0.09231  0.05164  0.76754  1.0000
  H   H95       1.0  0.05820  0.09068  0.80453  1.0000
  H   H96       1.0  0.11319  0.08070  0.72387  1.0000
  H   H97       1.0  0.08004  0.11937  0.76022  1.0000
  H   H98       1.0  0.10750  0.11475  0.71969  1.0000
  H   H99       1.0  0.15819  0.05373  0.83570  1.0000
  S   S30       1.0  0.21609  0.02878  0.81851  1.0000
  H   H100      1.0  0.12282  0.05425  0.68896  1.0000
  C   C92       1.0  0.01594  0.10070  0.80149  1.0000
  H   H101      1.0  0.03536  0.13178  0.80317  1.0000
  C   C93       1.0  0.15116  0.02147  0.81537  1.0000
  C   C94       1.0  0.28767  0.99694  0.94676  1.0000
  H   H102      1.0  0.26761  0.08654  0.77289  1.0000
  C   C95       1.0  0.08295  0.16519  0.76704  1.0000
  H   H103      1.0  0.00835  0.02204  0.73735  1.0000
  H   H104      1.0  0.16500  0.01389  0.64506  1.0000
  S   S31       1.0  0.44736  0.14175  0.96615  1.0000
  C   C96       1.0  0.29584  0.05175  0.90371  1.0000
  C   C97       1.0  0.00473  0.11768  0.83954  1.0000
  S   S32       1.0  0.25103  0.02727  0.93437  1.0000
  H   H105      1.0  0.05238  0.21273  0.74046  1.0000
  S   S33       1.0  0.00879  0.14041  0.85247  1.0000
  H   H106      1.0  0.14782  0.06730  0.74535  1.0000
  S   S34       1.0  0.27646  0.02088  0.79262  1.0000
  C   C98       1.0  0.15917  0.08427  0.81724  1.0000
  H   H107      1.0  0.04166  0.18378  0.81738  1.0000
  C   C99       1.0  0.15210  0.05659  0.79029  1.0000
  H   H108      1.0  0.06421  0.16810  0.73419  1.0000
  S   S35       1.0  0.08151  0.22775  0.61817  1.0000
  S   S36       1.0  0.20510  0.03170  0.88958  1.0000
  S   S37       1.0  0.22426  0.08599  0.83471  1.0000
  H   H109      1.0  0.23544  0.08306  0.92616  1.0000
  N   N6        1.0  0.10547  0.14925  0.59288  1.0000
  C   C100      1.0  0.12587  0.16859  0.58711  1.0000
  C   C101      1.0  0.10258  0.13645  0.62342  1.0000
  C   C102      1.0  0.11077  0.13759  0.57062  1.0000
  C   C103      1.0  0.08386  0.15328  0.59105  1.0000
  C   C104      1.0  0.08249  0.17368  0.58638  1.0000
  C   C105      1.0  0.06310  0.13637  0.59491  1.0000
  C   C106      1.0  0.06155  0.17676  0.58582  1.0000
  C   C107      1.0  0.04222  0.13960  0.59466  1.0000
  C   C108      1.0  0.04144  0.15975  0.59023  1.0000
  H   H110      1.0  0.14183  0.16489  0.58825  1.0000
  H   H111      1.0  0.12920  0.17897  0.56433  1.0000
  H   H112      1.0  0.12368  0.17743  0.60436  1.0000
  H   H113      1.0  0.09777  0.14426  0.64087  1.0000
  H   H114      1.0  0.11878  0.13382  0.62624  1.0000
  H   H115      1.0  0.08892  0.12077  0.62876  1.0000
  H   H116      1.0  0.12754  0.13520  0.57047  1.0000
  H   H117      1.0  0.09773  0.12162  0.57568  1.0000
  H   H118      1.0  0.11171  0.14608  0.54747  1.0000
  H   H119      1.0  0.09716  0.18751  0.58394  1.0000
  H   H120      1.0  0.06270  0.12037  0.59915  1.0000
  H   H121      1.0  0.06080  0.19239  0.58311  1.0000
  H   H122      1.0  0.11389  0.04773  0.62776  1.0000
  C   C109      1.0  0.28110  0.10792  0.91566  1.0000
  Fe  Fe20      1.0  0.04787  0.23173  0.63426  1.0000
  H   H123      1.0  0.05018  0.04399  0.86655  1.0000
  C   C110      1.0  0.07047  0.17371  0.81334  1.0000
  C   C111      1.0  0.08548  0.16695  0.79559  1.0000
  H   H124      1.0  0.98838  0.17379  0.61446  1.0000
  H   H125      1.0  0.09909  0.16310  0.80396  1.0000
  H   H126      1.0  0.24023  0.05422  0.66647  1.0000
  H   H127      1.0  0.21988  0.03698  0.71976  1.0000
  C   C112      1.0  0.11207  0.03894  0.70284  1.0000
  C   C113      1.0  0.04908  0.17610  0.77428  1.0000
  C   C114      1.0  0.12458  0.02097  0.63573  1.0000
  S   S38       1.0  0.24620  0.08633  0.59981  1.0000
  H   H128      1.0  0.25467  0.06966  0.91617  1.0000
  H   H129      1.0  0.26795  0.11851  0.73856  1.0000
  C   C115      1.0  0.30807  0.06280  0.95491  1.0000
  H   H130      1.0  0.26815  0.03434  0.55640  1.0000
  C   C116      1.0  0.99478  0.00873  0.73355  1.0000
  C   C117      1.0  0.23890  0.01977  0.59468  1.0000
  Fe  Fe21      1.0  0.24800  0.02317  0.82690  1.0000
  H   H131      1.0  0.16332  0.08953  0.83671  1.0000
  S   S39       1.0  0.25845  0.04990  0.84819  1.0000
  S   S40       1.0  0.23042  0.99922  0.87097  1.0000
  H   H132      1.0  0.25968  0.08718  0.66893  1.0000
  H   H133      1.0  0.01138  0.17744  0.72888  1.0000
  C   C118      1.0  0.25609  0.03686  0.57358  1.0000
  C   C119      1.0  0.24258  0.06069  0.59727  1.0000
  H   H134      1.0  0.24573  0.12035  0.90296  1.0000
  C   C120      1.0  0.24824  0.08221  0.90726  1.0000
  H   H135      1.0  0.13700  0.01971  0.83468  1.0000
  S   S41       1.0  0.03013  0.21848  0.68284  1.0000
  C   C121      1.0  0.07471  0.01515  0.73320  1.0000
  C   C122      1.0  0.07808  0.99816  0.66329  1.0000
  Fe  Fe22      1.0  0.99615  0.09519  0.69009  1.0000
  H   H136      1.0  0.02371  0.15779  0.73832  1.0000
  H   H137      1.0  0.03679  0.20973  0.77816  1.0000
  H   H138      1.0  0.33565  0.11947  0.92736  1.0000
  C   C123      1.0  0.32480  0.01891  0.95046  1.0000
  S   S42       1.0  0.01706  0.21691  0.61792  1.0000
  H   H139      1.0  0.00375  0.15338  0.79273  1.0000
  C   C124      1.0  0.32469  0.07005  0.92748  1.0000
  H   H140      1.0  0.02644  0.12631  0.59875  1.0000
  C   C125      1.0  0.31843  0.06462  0.90188  1.0000
  C   C126      1.0  0.27020  0.11017  0.94355  1.0000
  H   H141      1.0  0.25199  0.10769  0.94915  1.0000
  H   H142      1.0  0.23073  0.01633  0.71538  1.0000
  H   H143      1.0  0.98375  0.02430  0.77848  1.0000
  H   H144      1.0  0.27745  0.03636  0.72884  1.0000
  H   H145      1.0  0.07273  0.02751  0.65220  1.0000
  H   H146      1.0  0.14681  0.00758  0.89815  1.0000
  S   S43       1.0  0.99223  0.06237  0.71221  1.0000
  C   C127      1.0  0.11153  0.99898  0.89397  1.0000
  H   H147      1.0  0.30741  0.00312  0.76592  1.0000
  N   N7        1.0  0.03017  0.18122  0.76347  1.0000
  H   H148      1.0  0.27097  0.06082  0.65412  1.0000
  H   H149      1.0  0.33121  0.07016  0.88058  1.0000
  C   C128      1.0  0.02666  0.17478  0.73550  1.0000
  H   H150      1.0  0.25204  0.03413  0.66404  1.0000
  C   C129      1.0  0.27577  0.03953  0.70531  1.0000
  N   N8        1.0  0.25664  0.04737  0.70199  1.0000
  C   C130      1.0  0.02033  0.11795  0.81398  1.0000
  H   H151      1.0  0.29260  0.05112  0.69118  1.0000
  C   C131      1.0  0.30514  0.11146  0.91041  1.0000
  C   C132      1.0  0.25495  0.04929  0.67031  1.0000
  H   H152      1.0  0.16088  0.11457  0.79321  1.0000
  Fe  Fe23      1.0  0.22479  0.05326  0.84421  1.0000
  C   C133      1.0  0.05277  0.17856  0.80272  1.0000
  C   C134      1.0  0.08875  0.03499  0.71536  1.0000
  H   H153      1.0  0.21264  0.04610  0.63475  1.0000
  H   H154      1.0  0.27320  0.02449  0.69874  1.0000
  C   C135      1.0  0.22483  0.04357  0.61775  1.0000
  C   C136      1.0  0.23467  0.03156  0.72156  1.0000
  H   H155      1.0  0.98758  0.01535  0.71554  1.0000
  H   H156      1.0  0.14227  0.03089  0.62540  1.0000
  C   C137      1.0  0.15337  0.09194  0.76728  1.0000
  H   H157      1.0  0.15317  0.10319  0.74786  1.0000
  C   C138      1.0  0.16898  0.03627  0.76282  1.0000
  H   H158      1.0  0.16792  0.02757  0.82124  1.0000
  C   C139      1.0  0.26071  0.06730  0.71106  1.0000
  C   C140      1.0  0.22339  0.02310  0.61696  1.0000
  H   H159      1.0  0.12543  0.03374  0.76030  1.0000
  H   H160      1.0  0.16727  0.02057  0.75886  1.0000
  H   H161      1.0  0.11580  0.21281  0.63768  1.0000
  N   N9        1.0  0.26760  0.10237  0.89346  1.0000
  H   H162      1.0  0.29582  0.11489  0.85357  1.0000
  H   H163      1.0  0.27197  0.13441  0.87418  1.0000
  H   H164      1.0  0.18607  0.04287  0.76756  1.0000
  H   H165      1.0  0.10775  0.01050  0.90472  1.0000
  C   C141      1.0  0.15778  0.09839  0.79280  1.0000
  H   H166      1.0  0.23507  0.02818  0.74563  1.0000
  S   S44       1.0  0.04744  0.01122  0.75475  1.0000
  C   C142      1.0  0.25799  0.11888  0.88397  1.0000
  N   N10       1.0  0.15003  0.03518  0.78768  1.0000
  H   H167      1.0  0.27187  0.07051  0.55934  1.0000
  C   C143      1.0  0.26147  0.08611  0.69173  1.0000
  S   S45       1.0  0.38276  0.12865  0.96379  1.0000
  C   C144      1.0  0.06513  0.16977  0.75642  1.0000
  H   H168      1.0  0.34132  0.03062  0.93822  1.0000
  S   S46       1.0  0.35349  0.08573  0.92411  1.0000
  H   H169      1.0  0.02221  0.20885  0.74873  1.0000
  C   C145      1.0  0.99646  0.08276  0.81531  1.0000
  C   C146      1.0  0.08352  0.99891  0.73701  1.0000
  C   C147      1.0  0.25819  0.05729  0.57523  1.0000
  H   H170      1.0  0.00770  0.17603  0.80737  1.0000
  C   C148      1.0  0.12129  0.02306  0.70869  1.0000
  H   H171      1.0  0.31498  0.10975  0.89025  1.0000
  C   C149      1.0  0.26326  0.06809  0.74052  1.0000
  H   H172      1.0  0.26273  0.05442  0.75660  1.0000
  C   C150      1.0  0.10690  0.00295  0.72539  1.0000
  C   C151      1.0  0.15053  0.07137  0.76598  1.0000
  H   H173      1.0  0.11293  0.02311  0.79991  1.0000
  C   C152      1.0  0.26409  0.10431  0.70171  1.0000
  H   H174      1.0  0.26376  0.11826  0.68699  1.0000
  H   H175      1.0  0.16937  0.04631  0.74111  1.0000
  C   C153      1.0  0.10833  0.03095  0.63683  1.0000
  C   C154      1.0  0.12759  0.02491  0.78125  1.0000
  H   H176      1.0  0.12574  0.00900  0.77817  1.0000
  C   C155      1.0  0.26621  0.08646  0.75007  1.0000
  C   C156      1.0  0.26650  0.10450  0.73075  1.0000
  C   C157      1.0  0.28255  0.11551  0.96484  1.0000
  C   C158      1.0  0.28552  0.04967  0.95685  1.0000
  H   H177      1.0  0.02514  0.16213  0.59077  1.0000
  H   H178      1.0  0.28852  0.08736  0.87127  1.0000
  C   C159      1.0  0.00787  0.17062  0.78642  1.0000
  H   H179      1.0  0.04164  0.18387  0.71603  1.0000
  Fe  Fe24      1.0  0.19887  0.00677  0.86453  1.0000
  H   H180      1.0  0.24822  0.11544  0.86663  1.0000
  H   H181      1.0  0.29145  0.04723  0.88399  1.0000
  C   C160      1.0  0.28139  0.10007  0.86586  1.0000
  C   C161      1.0  0.03566  0.20414  0.75746  1.0000
  Fe  Fe25      1.0  0.23846  0.02651  0.89179  1.0000
  C   C162      1.0  0.08516  0.01960  0.65064  1.0000
  H   H182      1.0  0.16091  0.00988  0.60890  1.0000
  H   H183      1.0  0.23849  0.07690  0.89073  1.0000
  H   H184      1.0  0.21027  0.00993  0.63354  1.0000
  H   H185      1.0  0.27071  0.09587  0.84970  1.0000
  H   H186      1.0  0.14928  0.00542  0.81298  1.0000
  H   H187      1.0  0.46532  0.10811  0.96479  1.0000
  S   S47       1.0  0.98918  0.06248  0.79732  1.0000
  C   C163      1.0  0.11798  0.99909  0.64852  1.0000
  C   C164      1.0  0.13363  0.99737  0.89022  1.0000
  C   C165      1.0  0.30609  0.11893  0.95894  1.0000
  H   H188      1.0  0.36590  0.03167  0.96842  1.0000
  H   H189      1.0  0.31505  0.01708  0.90874  1.0000
  H   H190      1.0  0.00433  0.99920  0.72448  1.0000
  S   S48       1.0  0.98769  0.23388  0.66743  1.0000
  H   H191      1.0  0.23593  0.99574  0.77651  1.0000
  H   H192      1.0  0.00009  0.99733  0.78986  1.0000
  C   C166      1.0  0.98166  0.08195  0.84199  1.0000
  C   C167      1.0  0.98736  0.22262  0.74812  1.0000
  H   H193      1.0  0.99331  0.17364  0.77816  1.0000
  C   C168      1.0  0.98544  0.09962  0.85364  1.0000
  C   C169      1.0  0.29082  0.99577  0.76168  1.0000
  H   H194      1.0  0.99179  0.21798  0.72777  1.0000
  H   H195      1.0  0.17090  0.99297  0.63234  1.0000
  H   H196      1.0  0.11385  0.99061  0.73036  1.0000
  S   S49       1.0  0.23730  0.99430  0.59349  1.0000
  H   H197      1.0  0.28301  0.99248  0.56167  1.0000
  H   H198      1.0  0.98473  0.22816  0.93048  1.0000
  H   H199      1.0  0.27576  0.99185  0.93316  1.0000
  H   H200      1.0  0.35208  0.05078  0.97195  1.0000
  H   H201      1.0  0.06009  0.98954  0.67460  1.0000
  S   S50       1.0  0.39690  0.08663  0.97395  1.0000
  H   H202      1.0  0.14091  0.98853  0.69109  1.0000
  H   H203      1.0  0.28382  0.99113  0.61456  1.0000
  S   S51       1.0  0.06719  0.98868  0.88635  1.0000
  H   H204      1.0  0.27278  0.04390  0.97819  1.0000
  H   H205      1.0  0.31257  0.06738  0.97454  1.0000
  H   H206      1.0  0.31567  0.12299  0.97549  1.0000
  C   C170      1.0  0.28061  0.98978  0.97798  1.0000
  Fe  Fe26      1.0  0.05958  0.40528  0.34059  1.0000
  S   S52       1.0  0.07245  0.42524  0.29329  1.0000
  S   S53       1.0  0.06107  0.37292  0.34678  1.0000
  Fe  Fe27      1.0  0.08790  0.45123  0.31394  1.0000
  Fe  Fe28      1.0  0.03996  0.43256  0.30273  1.0000
  S   S54       1.0  0.02015  0.43269  0.26672  1.0000
  S   S55       1.0  0.02591  0.41061  0.34883  1.0000
  H   H207      1.0  0.13068  0.45983  0.35184  1.0000
  C   C171      1.0  0.14540  0.41179  0.35617  1.0000
  N   N11       1.0  0.14179  0.40528  0.38925  1.0000
  Fe  Fe29      1.0  0.43678  0.25343  0.11557  1.0000
  H   H208      1.0  0.38238  0.27095  0.05651  1.0000
  C   C172      1.0  0.98748  0.40586  0.24700  1.0000
  C   C173      1.0  0.16335  0.41208  0.39954  1.0000
  S   S56       1.0  0.43345  0.28515  0.10978  1.0000
  C   C174      1.0  0.03357  0.47104  0.40585  1.0000
  H   H209      1.0  0.10805  0.40806  0.40091  1.0000
  C   C175      1.0  0.42658  0.28976  0.01847  1.0000
  H   H210      1.0  0.43608  0.25778  0.04832  1.0000
  H   H211      1.0  0.13196  0.43160  0.39577  1.0000
  C   C176      1.0  0.14696  0.46593  0.33522  1.0000
  H   H212      1.0  0.12356  0.41071  0.42906  1.0000
  S   S57       1.0  0.11296  0.43624  0.47177  1.0000
  H   H213      1.0  0.29928  0.47745  0.46699  1.0000
  C   C177      1.0  0.46408  0.32552  0.08937  1.0000
  C   C178      1.0  0.45777  0.30525  0.08514  1.0000
  H   H214      1.0  0.10337  0.47784  0.35426  1.0000
  H   H215      1.0  0.15997  0.40766  0.42455  1.0000
  H   H216      1.0  0.17201  0.42940  0.39205  1.0000
  H   H217      1.0  0.45420  0.32869  0.10819  1.0000
  H   H218      1.0  0.00662  0.33678  0.46004  1.0000
  H   H219      1.0  0.99786  0.41469  0.22463  1.0000
  C   C179      1.0  0.42559  0.25389  0.03196  1.0000
  C   C180      1.0  0.04522  0.42409  0.47758  1.0000
  C   C181      1.0  0.15111  0.42496  0.29309  1.0000
  H   H220      1.0  0.10878  0.40034  0.35672  1.0000
  H   H221      1.0  0.07283  0.37461  0.44726  1.0000
  C   C182      1.0  0.18866  0.47420  0.32240  1.0000
  S   S58       1.0  0.24633  0.48642  0.44493  1.0000
  C   C183      1.0  0.42436  0.30464  0.03497  1.0000
  H   H222      1.0  0.41193  0.30048  0.05627  1.0000
  C   C184      1.0  0.06527  0.36256  0.38162  1.0000
  C   C185      1.0  0.06790  0.34302  0.38708  1.0000
  C   C186      1.0  0.07228  0.33481  0.41429  1.0000
  C   C187      1.0  0.16905  0.48191  0.28364  1.0000
  C   C188      1.0  0.07129  0.36567  0.43073  1.0000
  C   C189      1.0  0.06670  0.37380  0.40358  1.0000
  H   H223      1.0  0.06681  0.33430  0.37011  1.0000
  H   H224      1.0  0.07455  0.31979  0.41825  1.0000
  H   H225      1.0  0.01507  0.35983  0.18166  1.0000
  H   H226      1.0  0.06440  0.38878  0.39964  1.0000
  C   C190      1.0  0.47048  0.30133  0.06061  1.0000
  S   S59       1.0  0.25661  0.47281  0.38198  1.0000
  H   H227      1.0  0.06189  0.37227  0.28172  1.0000
  H   H228      1.0  0.00198  0.36959  0.30604  1.0000
  H   H229      1.0  0.40300  0.26520  0.07607  1.0000
  H   H230      1.0  0.02524  0.32835  0.29153  1.0000
  H   H231      1.0  0.35039  0.45300  0.36227  1.0000
  C   C191      1.0  0.98382  0.34609  0.21667  1.0000
  C   C192      1.0  0.99447  0.41141  0.27214  1.0000
  H   H232      1.0  0.41006  0.26395  0.98363  1.0000
  C   C193      1.0  0.43918  0.32555  0.02498  1.0000
  C   C194      1.0  0.12910  0.41484  0.31206  1.0000
  H   H233      1.0  0.18746  0.43633  0.29030  1.0000
  Fe  Fe30      1.0  0.23546  0.45719  0.42935  1.0000
  H   H234      1.0  0.98906  0.46484  0.28217  1.0000
  H   H235      1.0  0.14360  0.37481  0.38937  1.0000
  C   C195      1.0  0.34413  0.48410  0.45171  1.0000
  C   C196      1.0  0.12566  0.41426  0.40427  1.0000
  H   H236      1.0  0.12777  0.37642  0.42442  1.0000
  H   H237      1.0  0.05651  0.38468  0.24820  1.0000
  C   C197      1.0  0.05175  0.36924  0.26462  1.0000
  H   H238      1.0  0.02382  0.39042  0.27686  1.0000
  H   H239      1.0  0.33439  0.46853  0.46788  1.0000
  C   C198      1.0  0.02041  0.37547  0.29362  1.0000
  H   H240      1.0  0.35987  0.47949  0.39044  1.0000
  H   H241      1.0  0.03354  0.46686  0.45277  1.0000
  C   C199      1.0  0.02217  0.34073  0.30199  1.0000
  C   C200      1.0  0.02172  0.36059  0.22541  1.0000
  H   H242      1.0  0.17578  0.40475  0.39101  1.0000
  S   S60       1.0  0.05671  0.46087  0.31857  1.0000
  H   H243      1.0  0.11529  0.37585  0.39290  1.0000
  H   H244      1.0  0.00440  0.42109  0.46478  1.0000
  N   N12       1.0  0.41144  0.26741  0.02846  1.0000
  Fe  Fe31      1.0  0.04522  0.43829  0.36401  1.0000
  C   C201      1.0  0.12622  0.40819  0.34308  1.0000
  H   H245      1.0  0.11413  0.41238  0.30276  1.0000
  C   C202      1.0  0.13169  0.38212  0.39949  1.0000
  S   S61       1.0  0.03062  0.44492  0.40691  1.0000
  H   H246      1.0  0.38637  0.24562  0.01281  1.0000
  H   H247      1.0  0.02363  0.40302  0.43815  1.0000
  S   S62       1.0  0.20271  0.46052  0.42009  1.0000
  C   C203      1.0  0.01537  0.37016  0.44622  1.0000
  C   C204      1.0  0.29628  0.44471  0.40156  1.0000
  H   H248      1.0  0.15326  0.43072  0.26916  1.0000
  H   H249      1.0  0.18337  0.42508  0.34368  1.0000
  C   C205      1.0  0.07417  0.34620  0.43604  1.0000
  C   C206      1.0  0.16768  0.42150  0.33606  1.0000
  H   H250      1.0  0.38820  0.27249  0.00159  1.0000
  H   H251      1.0  0.03357  0.48004  0.35911  1.0000
  S   S63       1.0  0.07770  0.43064  0.36063  1.0000
  S   S64       1.0  0.21449  0.47296  0.33109  1.0000
  C   C207      1.0  0.39433  0.26201  0.05769  1.0000
  C   C208      1.0  0.17034  0.42804  0.30503  1.0000
  H   H252      1.0  0.99141  0.48103  0.22934  1.0000
  H   H253      1.0  0.12576  0.48060  0.45725  1.0000
  H   H254      1.0  0.36063  0.48337  0.43958  1.0000
  H   H255      1.0  0.05772  0.35846  0.25318  1.0000
  S   S65       1.0  0.23884  0.42841  0.45662  1.0000
  H   H256      1.0  0.03063  0.37929  0.31029  1.0000
  H   H257      1.0  0.16700  0.46092  0.36742  1.0000
  C   C209      1.0  0.33671  0.45494  0.37784  1.0000
  H   H258      1.0  0.10544  0.47707  0.40783  1.0000
  C   C210      1.0  0.44426  0.29725  0.99134  1.0000
  H   H259      1.0  0.19329  0.43078  0.47183  1.0000
  C   C211      1.0  0.00940  0.35112  0.46729  1.0000
  H   H260      1.0  0.08085  0.48824  0.36264  1.0000
  H   H261      1.0  0.43764  0.25540  0.01055  1.0000
  H   H262      1.0  0.00424  0.33433  0.31629  1.0000
  H   H263      1.0  0.03995  0.36829  0.21530  1.0000
  C   C212      1.0  0.01936  0.38873  0.45540  1.0000
  C   C213      1.0  0.03470  0.47774  0.43219  1.0000
  S   S66       1.0  0.12328  0.47526  0.29238  1.0000
  H   H264      1.0  0.43780  0.33644  0.03852  1.0000
  C   C214      1.0  0.01223  0.35558  0.25700  1.0000
  C   C215      1.0  0.16751  0.46654  0.34406  1.0000
  H   H265      1.0  0.03356  0.34349  0.31777  1.0000
  H   H266      1.0  0.98624  0.40402  0.32054  1.0000
  N   N13       1.0  0.02654  0.36020  0.27868  1.0000
  Fe  Fe32      1.0  0.22444  0.47832  0.37380  1.0000
  H   H267      1.0  0.16988  0.48813  0.26026  1.0000
  H   H268      1.0  0.46524  0.28609  0.05636  1.0000
  C   C216      1.0  0.98113  0.39975  0.30101  1.0000
  H   H269      1.0  0.38346  0.24508  0.06487  1.0000
  H   H270      1.0  0.20545  0.48752  0.27535  1.0000
  H   H271      1.0  0.04670  0.42811  0.45306  1.0000
  C   C217      1.0  0.45905  0.31816  0.98169  1.0000
  C   C218      1.0  0.31391  0.44230  0.38158  1.0000
  H   H272      1.0  0.46857  0.34830  0.99161  1.0000
  C   C219      1.0  0.18924  0.48171  0.29223  1.0000
  C   C220      1.0  0.14781  0.47380  0.30489  1.0000
  H   H273      1.0  0.28665  0.46082  0.43268  1.0000
  C   C221      1.0  0.98789  0.34591  0.26731  1.0000
  C   C222      1.0  0.03494  0.48521  0.37936  1.0000
  S   S67       1.0  0.08136  0.33629  0.46889  1.0000
  H   H274      1.0  0.27850  0.43480  0.40459  1.0000
  H   H275      1.0  0.01705  0.37057  0.42256  1.0000
  C   C223      1.0  0.00760  0.35585  0.20569  1.0000
  C   C224      1.0  0.30128  0.45989  0.41772  1.0000
  C   C225      1.0  0.32435  0.47324  0.41421  1.0000
  S   S68       1.0  0.46680  0.24886  0.08776  1.0000
  C   C226      1.0  0.45656  0.33226  0.99854  1.0000
  H   H276      1.0  0.30984  0.43058  0.36899  1.0000
  C   C227      1.0  0.11119  0.47413  0.47666  1.0000
  C   C228      1.0  0.39848  0.26217  0.00562  1.0000
  C   C229      1.0  0.34193  0.47013  0.39399  1.0000
  C   C230      1.0  0.08018  0.26929  0.69109  1.0000
  Fe  Fe33      1.0  0.11891  0.37436  0.53791  1.0000
  S   S69       1.0  0.10118  0.39627  0.54998  1.0000
  S   S70       1.0  0.14837  0.37052  0.55623  1.0000
  Fe  Fe34      1.0  0.06873  0.36984  0.55362  1.0000
  S   S71       1.0  0.03713  0.35726  0.59152  1.0000
  C   C231      1.0  0.10825  0.47060  0.57144  1.0000
  H   H277      1.0  0.10564  0.30218  0.60851  1.0000
  S   S72       1.0  0.08649  0.34713  0.54606  1.0000
  S   S73       1.0  0.04222  0.26220  0.63272  1.0000
  C   C232      1.0  0.06904  0.25738  0.55092  1.0000
  H   H278      1.0  0.15303  0.42082  0.55549  1.0000
  H   H279      1.0  0.04933  0.30552  0.63464  1.0000
  N   N14       1.0  0.15856  0.45389  0.54258  1.0000
  C   C233      1.0  0.08398  0.44437  0.51560  1.0000
  H   H280      1.0  0.07717  0.42773  0.52602  1.0000
  C   C234      1.0  0.02345  0.33170  0.58908  1.0000
  C   C235      1.0  0.02572  0.32731  0.56090  1.0000
  H   H281      1.0  0.03420  0.33983  0.54072  1.0000
  H   H282      1.0  0.07230  0.25954  0.71387  1.0000
  H   H283      1.0  0.06293  0.33236  0.61374  1.0000
  C   C236      1.0  0.08643  0.30136  0.65272  1.0000
  C   C237      1.0  0.10180  0.27446  0.64061  1.0000
  S   S74       1.0  0.00135  0.26433  0.58165  1.0000
  H   H284      1.0  0.06903  0.34334  0.65918  1.0000
  C   C238      1.0  0.07732  0.28860  0.68274  1.0000
  H   H285      1.0  0.08222  0.33046  0.68402  1.0000
  H   H286      1.0  0.11088  0.26863  0.62432  1.0000
  N   N15       1.0  0.07905  0.27955  0.53292  1.0000
  C   C239      1.0  0.06198  0.28964  0.54100  1.0000
  C   C240      1.0  0.10153  0.29131  0.53791  1.0000
  C   C241      1.0  0.09881  0.29368  0.63190  1.0000
  H   H287      1.0  0.02348  0.34141  0.91280  1.0000
  H   H288      1.0  0.06720  0.29277  0.70010  1.0000
  H   H289      1.0  0.47285  0.32346  0.96136  1.0000
  C   C242      1.0  0.06630  0.31781  0.62246  1.0000
  H   H290      1.0  0.07321  0.31283  0.60266  1.0000
  C   C243      1.0  0.10410  0.33825  0.62556  1.0000
  C   C244      1.0  0.07143  0.32820  0.66755  1.0000
  C   C245      1.0  0.09233  0.26220  0.67006  1.0000
  N   N16       1.0  0.08217  0.32107  0.64252  1.0000
  H   H291      1.0  0.01101  0.31859  0.63702  1.0000
  H   H292      1.0  0.11165  0.33573  0.60381  1.0000
  H   H293      1.0  0.16857  0.43617  0.57757  1.0000
  H   H294      1.0  0.11729  0.34006  0.63892  1.0000
  C   C246      1.0  0.09527  0.45405  0.59637  1.0000
  H   H295      1.0  0.05381  0.31689  0.67962  1.0000
  C   C247      1.0  0.12317  0.43695  0.58703  1.0000
  H   H296      1.0  0.19455  0.36925  0.54394  1.0000
  H   H297      1.0  0.05993  0.45141  0.54747  1.0000
  C   C248      1.0  0.13681  0.45361  0.56135  1.0000
  C   C249      1.0  0.17383  0.38699  0.52953  1.0000
  H   H298      1.0  0.03479  0.39959  0.53377  1.0000
  C   C250      1.0  0.00784  0.29017  0.58468  1.0000
  C   C251      1.0  0.19426  0.38266  0.52814  1.0000
  H   H299      1.0  0.17992  0.47529  0.56275  1.0000
  C   C252      1.0  0.01266  0.31530  0.61515  1.0000
  C   C253      1.0  0.16586  0.43622  0.55465  1.0000
  H   H300      1.0  0.05174  0.24922  0.54755  1.0000
  H   H301      1.0  0.02121  0.32960  0.88184  1.0000
  H   H302      1.0  0.18245  0.43714  0.54019  1.0000
  C   C254      1.0  0.01792  0.32618  0.90680  1.0000
  C   C255      1.0  0.07419  0.45773  0.52766  1.0000
  H   H303      1.0  0.00085  0.26454  0.77808  1.0000
  C   C256      1.0  0.01737  0.30665  0.55865  1.0000
  H   H304      1.0  0.04481  0.28094  0.53785  1.0000
  C   C257      1.0  0.00537  0.29448  0.61297  1.0000
  H   H305      1.0  0.10162  0.35358  0.61936  1.0000
  H   H306      1.0  0.16099  0.32400  0.54979  1.0000
  C   C258      1.0  0.08193  0.27960  0.50068  1.0000
  H   H307      1.0  0.14158  0.43826  0.51283  1.0000
  H   H308      1.0  0.12779  0.42340  0.59419  1.0000
  Fe  Fe35      1.0  0.10183  0.40381  0.50090  1.0000
  S   S75       1.0  0.02045  0.26113  0.71953  1.0000
  C   C259      1.0  0.99866  0.24297  0.75010  1.0000
  H   H309      1.0  0.99328  0.35254  0.92600  1.0000
  H   H310      1.0  0.10630  0.26541  0.56815  1.0000
  H   H311      1.0  0.14315  0.28600  0.57462  1.0000
  H   H312      1.0  0.99498  0.32553  0.96102  1.0000
  H   H313      1.0  0.06647  0.25627  0.57544  1.0000
  H   H314      1.0  0.08733  0.29569  0.48582  1.0000
  H   H315      1.0  0.01931  0.30341  0.53673  1.0000
  H   H316      1.0  0.05945  0.29034  0.56492  1.0000
  C   C260      1.0  0.17360  0.40436  0.50905  1.0000
  H   H317      1.0  0.09231  0.42425  0.62330  1.0000
  H   H318      1.0  0.00906  0.36739  0.53105  1.0000
  H   H319      1.0  0.02949  0.31784  0.91386  1.0000
  C   C261      1.0  0.15566  0.45284  0.51201  1.0000
  N   N17       1.0  0.99331  0.31362  0.92131  1.0000
  C   C262      1.0  0.11275  0.31292  0.52331  1.0000
  Fe  Fe36      1.0  0.02084  0.24714  0.68009  1.0000
  C   C263      1.0  0.17760  0.47356  0.54017  1.0000
  C   C264      1.0  0.12848  0.47026  0.55385  1.0000
  H   H320      1.0  0.99796  0.28176  0.63319  1.0000
  C   C265      1.0  0.13384  0.32450  0.52775  1.0000
  H   H321      1.0  0.06690  0.30581  0.52680  1.0000
  C   C266      1.0  0.14464  0.31486  0.54641  1.0000
  H   H322      1.0  0.15803  0.40801  0.51025  1.0000
  C   C267      1.0  0.11320  0.28184  0.55648  1.0000
  C   C268      1.0  0.98964  0.31053  0.95435  1.0000
  H   H323      1.0  0.08014  0.24825  0.54476  1.0000
  C   C269      1.0  0.13449  0.29353  0.56047  1.0000
  C   C270      1.0  0.10266  0.43723  0.60409  1.0000
  H   H324      1.0  0.00458  0.39658  0.54231  1.0000
  H   H325      1.0  0.10530  0.32108  0.50823  1.0000
  C   C271      1.0  0.08281  0.47929  0.51396  1.0000
  C   C272      1.0  0.19365  0.41735  0.48716  1.0000
  H   H326      1.0  0.07929  0.45419  0.60943  1.0000
  H   H327      1.0  0.10222  0.48350  0.56513  1.0000
  N   N18       1.0  0.02223  0.40882  0.49512  1.0000
  H   H328      1.0  0.15132  0.46620  0.50062  1.0000
  Fe  Fe37      1.0  0.00966  0.24629  0.62021  1.0000
  H   H329      1.0  0.09405  0.24699  0.67636  1.0000
  C   C273      1.0  0.98107  0.34515  0.91421  1.0000
  C   C274      1.0  0.99234  0.24880  0.77651  1.0000
  H   H330      1.0  0.02621  0.42193  0.53324  1.0000
  C   C275      1.0  0.02190  0.40652  0.52752  1.0000
  H   H331      1.0  0.14189  0.34109  0.51663  1.0000
  S   S76       1.0  0.06758  0.37956  0.50567  1.0000
  H   H332      1.0  0.09521  0.27281  0.49331  1.0000
  H   H333      1.0  0.06548  0.27048  0.49614  1.0000
  H   H334      1.0  0.19428  0.47415  0.52639  1.0000
  H   H335      1.0  0.99993  0.28457  0.92387  1.0000
  H   H336      1.0  0.98676  0.40670  0.50160  1.0000
  H   H337      1.0  0.99922  0.30089  0.96401  1.0000
  H   H338      1.0  0.99178  0.29377  0.89054  1.0000
  H   H339      1.0  0.13733  0.48304  0.53399  1.0000
  H   H340      1.0  0.22995  0.39188  0.50426  1.0000
  C   C276      1.0  0.98867  0.29268  0.91507  1.0000
  H   H341      1.0  0.00199  0.33562  0.51405  1.0000
  C   C277      1.0  0.21426  0.39544  0.50570  1.0000
  C   C278      1.0  0.01100  0.36905  0.50717  1.0000
  C   C279      1.0  0.00695  0.35054  0.49770  1.0000
  H   H342      1.0  0.17170  0.45326  0.49690  1.0000
  Fe  Fe38      1.0  0.08792  0.35887  0.49759  1.0000
  H   H343      1.0  0.00702  0.43282  0.49544  1.0000
  S   S77       1.0  0.12226  0.38396  0.48837  1.0000
  C   C280      1.0  0.10203  0.45258  0.48947  1.0000
  C   C281      1.0  0.21394  0.41277  0.48506  1.0000
  C   C282      1.0  0.10167  0.48742  0.48898  1.0000
  C   C283      1.0  0.00433  0.41773  0.48903  1.0000
  H   H344      1.0  0.04907  0.43927  0.48389  1.0000
  C   C284      1.0  0.01774  0.38885  0.48610  1.0000
  H   H345      1.0  0.17461  0.48770  0.52877  1.0000
  H   H346      1.0  0.44700  0.28691  0.97758  1.0000
  H   H347      1.0  0.05921  0.41793  0.48096  1.0000
  C   C285      1.0  0.47862  0.69569  0.46884  1.0000
  H   H348      1.0  0.24667  0.55776  0.38790  1.0000
  H   H349      1.0  0.08450  0.48961  0.41166  1.0000
  C   C286      1.0  0.11876  0.63913  0.40025  1.0000
  C   C287      1.0  0.44529  0.70447  0.40956  1.0000
  S   S78       1.0  0.21121  0.72638  0.41216  1.0000
  S   S79       1.0  0.39968  0.60043  0.42023  1.0000
  H   H350      1.0  0.16870  0.62348  0.44154  1.0000
  S   S80       1.0  0.41475  0.65859  0.37298  1.0000
  H   H351      1.0  0.03894  0.60525  0.38404  1.0000
  S   S81       1.0  0.23445  0.50968  0.38421  1.0000
  H   H352      1.0  0.11379  0.53410  0.34536  1.0000
  H   H353      1.0  0.13834  0.53612  0.46615  1.0000
  C   C288      1.0  0.09977  0.49257  0.35399  1.0000
  H   H354      1.0  0.34701  0.52322  0.42075  1.0000
  S   S82       1.0  0.29924  0.52844  0.38260  1.0000
  C   C289      1.0  0.44055  0.70027  0.35243  1.0000
  H   H355      1.0  0.26830  0.56580  0.45481  1.0000
  H   H356      1.0  0.18124  0.53079  0.29616  1.0000
  H   H357      1.0  0.14019  0.52385  0.31471  1.0000
  Fe  Fe39      1.0  0.06686  0.54584  0.43797  1.0000
  H   H358      1.0  0.44719  0.70621  0.43159  1.0000
  S   S83       1.0  0.04556  0.53946  0.40479  1.0000
  Fe  Fe40      1.0  0.11706  0.55711  0.43981  1.0000
  H   H359      1.0  0.29362  0.59358  0.37614  1.0000
  S   S84       1.0  0.15159  0.56517  0.40874  1.0000
  H   H360      1.0  0.07269  0.60080  0.37272  1.0000
  C   C290      1.0  0.16298  0.52060  0.46585  1.0000
  H   H361      1.0  0.09049  0.52260  0.37831  1.0000
  S   S85       1.0  0.08919  0.52680  0.44478  1.0000
  S   S86       1.0  0.09573  0.57626  0.42837  1.0000
  C   C291      1.0  0.45820  0.72085  0.38432  1.0000
  C   C292      1.0  0.18269  0.51889  0.44918  1.0000
  S   S87       1.0  0.22992  0.70925  0.46994  1.0000
  C   C293      1.0  0.15352  0.53486  0.45319  1.0000
  C   C294      1.0  0.16380  0.54756  0.42401  1.0000
  C   C295      1.0  0.18379  0.54618  0.40743  1.0000
  C   C296      1.0  0.19321  0.53179  0.42008  1.0000
  S   S88       1.0  0.38228  0.63188  0.45723  1.0000
  C   C297      1.0  0.14943  0.51925  0.33064  1.0000
  H   H362      1.0  0.19185  0.55612  0.38487  1.0000
  H   H363      1.0  0.20865  0.53086  0.40738  1.0000
  H   H364      1.0  0.26824  0.59578  0.36601  1.0000
  C   C298      1.0  0.33950  0.56814  0.42088  1.0000
  C   C299      1.0  0.33060  0.55789  0.40005  1.0000
  C   C300      1.0  0.30911  0.54173  0.40904  1.0000
  C   C301      1.0  0.29626  0.53621  0.43887  1.0000
  H   H365      1.0  0.46432  0.73195  0.33635  1.0000
  H   H366      1.0  0.35592  0.58073  0.41354  1.0000
  H   H367      1.0  0.34052  0.56246  0.37691  1.0000
  H   H368      1.0  0.27928  0.72758  0.45691  1.0000
  Fe  Fe41      1.0  0.08588  0.57275  0.47797  1.0000
  C   C302      1.0  0.42904  0.68330  0.37756  1.0000
  C   C303      1.0  0.03908  0.61526  0.40008  1.0000
  C   C304      1.0  0.43077  0.68565  0.40623  1.0000
  C   C305      1.0  0.32710  0.56212  0.45096  1.0000
  Fe  Fe42      1.0  0.37482  0.59732  0.46321  1.0000
  C   C306      1.0  0.03961  0.51294  0.40540  1.0000
  C   C307      1.0  0.13792  0.50893  0.36123  1.0000
  N   N19       1.0  0.11295  0.50474  0.37214  1.0000
  H   H369      1.0  0.31482  0.50475  0.46050  1.0000
  C   C308      1.0  0.17511  0.50758  0.36921  1.0000
  H   H370      1.0  0.27378  0.55664  0.39363  1.0000
  H   H371      1.0  0.03910  0.51715  0.35866  1.0000
  C   C309      1.0  0.12512  0.63174  0.37556  1.0000
  C   C310      1.0  0.03784  0.50615  0.37919  1.0000
  C   C311      1.0  0.25769  0.55885  0.40422  1.0000
  H   H372      1.0  0.14795  0.67044  0.47435  1.0000
  N   N20       1.0  0.39351  0.70729  0.47844  1.0000
  S   S89       1.0  0.33812  0.57426  0.47781  1.0000
  H   H373      1.0  0.42147  0.67272  0.42571  1.0000
  H   H374      1.0  0.12868  0.59886  0.45959  1.0000
  Fe  Fe43      1.0  0.40869  0.63487  0.41605  1.0000
  N   N21       1.0  0.05312  0.61185  0.42173  1.0000
  C   C312      1.0  0.18583  0.51768  0.33907  1.0000
  C   C313      1.0  0.04525  0.58915  0.43638  1.0000
  N   N22       1.0  0.33035  0.48954  0.43086  1.0000
  C   C314      1.0  0.27707  0.59585  0.38472  1.0000
  H   H375      1.0  0.28172  0.61163  0.38924  1.0000
  S   S90       1.0  0.19006  0.66541  0.44409  1.0000
  Fe  Fe44      1.0  0.26449  0.50264  0.39686  1.0000
  S   S91       1.0  0.19401  0.50079  0.46543  1.0000
  S   S92       1.0  0.45310  0.58818  0.44673  1.0000
  H   H376      1.0  0.04576  0.63189  0.38674  1.0000
  H   H377      1.0  0.36165  0.51095  0.39817  1.0000
  C   C315      1.0  0.04833  0.62264  0.44547  1.0000
  Fe  Fe45      1.0  0.42545  0.60235  0.44824  1.0000
  C   C316      1.0  0.03791  0.49866  0.43191  1.0000
  N   N23       1.0  0.26258  0.57919  0.41224  1.0000
  H   H378      1.0  0.02663  0.58274  0.44826  1.0000
  C   C317      1.0  0.09553  0.63303  0.41524  1.0000
  C   C318      1.0  0.14382  0.65477  0.47149  1.0000
  H   H379      1.0  0.04768  0.57975  0.41999  1.0000
  C   C319      1.0  0.24053  0.58169  0.42480  1.0000
  C   C320      1.0  0.20408  0.56912  0.46371  1.0000
  H   H380      1.0  0.44740  0.60535  0.38856  1.0000
  C   C321      1.0  0.46487  0.60545  0.38599  1.0000
  S   S93       1.0  0.43726  0.63716  0.43930  1.0000
  H   H381      1.0  0.20396  0.52040  0.33045  1.0000
  H   H382      1.0  0.11941  0.53492  0.38151  1.0000
  C   C322      1.0  0.16114  0.64855  0.45706  1.0000
  C   C323      1.0  0.23334  0.59782  0.41071  1.0000
  H   H383      1.0  0.05680  0.61928  0.46395  1.0000
  H   H384      1.0  0.41051  0.68569  0.46868  1.0000
  C   C324      1.0  0.30535  0.54622  0.45984  1.0000
  Fe  Fe46      1.0  0.21563  0.49131  0.43155  1.0000
  C   C325      1.0  0.30986  0.49194  0.44900  1.0000
  H   H385      1.0  0.11333  0.61212  0.34686  1.0000
  H   H386      1.0  0.43898  0.69858  0.33023  1.0000
  H   H387      1.0  0.24863  0.54524  0.42412  1.0000
  H   H388      1.0  0.34869  0.49589  0.46498  1.0000
  H   H389      1.0  0.24361  0.60934  0.39008  1.0000
  C   C326      1.0  0.47206  0.59770  0.41100  1.0000
  C   C327      1.0  0.48015  0.61291  0.35739  1.0000
  C   C328      1.0  0.34423  0.51018  0.40943  1.0000
  H   H390      1.0  0.47446  0.61863  0.33798  1.0000
  H   H391      1.0  0.37986  0.67519  0.47548  1.0000
  C   C329      1.0  0.47918  0.66890  0.36822  1.0000
  H   H392      1.0  0.38916  0.72966  0.44275  1.0000
  C   C330      1.0  0.11543  0.62027  0.47819  1.0000
  C   C331      1.0  0.27644  0.57953  0.43496  1.0000
  H   H393      1.0  0.11164  0.50131  0.41930  1.0000
  C   C332      1.0  0.45775  0.67874  0.47633  1.0000
  H   H394      1.0  0.27949  0.52408  0.44598  1.0000
  C   C333      1.0  0.10897  0.52494  0.36918  1.0000
  C   C334      1.0  0.13271  0.61430  0.46328  1.0000
  H   H395      1.0  0.29876  0.49596  0.43446  1.0000
  H   H396      1.0  0.18067  0.58579  0.45788  1.0000
  C   C335      1.0  0.10331  0.49263  0.40412  1.0000
  H   H397      1.0  0.46592  0.66208  0.35634  1.0000
  Fe  Fe47      1.0  0.19933  0.69791  0.45094  1.0000
  H   H398      1.0  0.14321  0.63610  0.36456  1.0000
  C   C336      1.0  0.17300  0.52347  0.31980  1.0000
  H   H399      1.0  0.22913  0.55435  0.46319  1.0000
  H   H400      1.0  0.02958  0.61724  0.45646  1.0000
  H   H401      1.0  0.13200  0.64922  0.40837  1.0000
  H   H402      1.0  0.14459  0.49559  0.40394  1.0000
  C   C337      1.0  0.15158  0.50334  0.38034  1.0000
  C   C338      1.0  0.39349  0.71513  0.44657  1.0000
  C   C339      1.0  0.15547  0.62833  0.45292  1.0000
  C   C340      1.0  0.10826  0.61828  0.36560  1.0000
  H   H403      1.0  0.47140  0.67743  0.38224  1.0000
  H   H404      1.0  0.05502  0.58605  0.45338  1.0000
  H   H405      1.0  0.41067  0.71869  0.43127  1.0000
  C   C341      1.0  0.19746  0.58497  0.44922  1.0000
  C   C342      1.0  0.45507  0.71912  0.35586  1.0000
  C   C343      1.0  0.21207  0.59929  0.42285  1.0000
  H   H406      1.0  0.05433  0.63990  0.43606  1.0000
  H   H407      1.0  0.03896  0.50372  0.45234  1.0000
  C   C344      1.0  0.22521  0.56739  0.45170  1.0000
  C   C345      1.0  0.08497  0.61205  0.38044  1.0000
  H   H408      1.0  0.02066  0.61128  0.41168  1.0000
  H   H409      1.0  0.29385  0.57919  0.42555  1.0000
  H   H410      1.0  0.09203  0.63888  0.43475  1.0000
  H   H411      1.0  0.33544  0.51379  0.39144  1.0000
  C   C346      1.0  0.07784  0.61926  0.40575  1.0000
  H   H412      1.0  0.20657  0.61137  0.41147  1.0000
  H   H413      1.0  0.44874  0.67523  0.45929  1.0000
  H   H414      1.0  0.10398  0.50129  0.33003  1.0000
  H   H415      1.0  0.27906  0.59392  0.44324  1.0000
  H   H416      1.0  0.18496  0.50259  0.38399  1.0000
  H   H417      1.0  0.38051  0.70354  0.43905  1.0000
  H   H418      1.0  0.31236  0.72703  0.47890  1.0000
  S   S94       1.0  0.07034  0.49611  0.52824  1.0000
  N   N24       1.0  0.16696  0.65514  0.55204  1.0000
  C   C347      1.0  0.16267  0.62058  0.53939  1.0000
  S   S95       1.0  0.40007  0.59642  0.49179  1.0000
  H   H419      1.0  0.39262  0.67821  0.50634  1.0000
  H   H420      1.0  0.18109  0.62420  0.53472  1.0000
  H   H421      1.0  0.45196  0.66300  0.55150  1.0000
  C   C348      1.0  0.45958  0.67188  0.52831  1.0000
  H   H422      1.0  0.10768  0.64535  0.49350  1.0000
  C   C349      1.0  0.45152  0.61730  0.53886  1.0000
  C   C350      1.0  0.18637  0.66619  0.52496  1.0000
  C   C351      1.0  0.44754  0.72980  0.50607  1.0000
  S   S96       1.0  0.41969  0.64845  0.51634  1.0000
  C   C352      1.0  0.15246  0.63482  0.54852  1.0000
  C   C353      1.0  0.17659  0.65134  0.57844  1.0000
  H   H423      1.0  0.16569  0.68519  0.55724  1.0000
  C   C354      1.0  0.37150  0.70578  0.49808  1.0000
  S   S97       1.0  0.20777  0.72186  0.54456  1.0000
  H   H424      1.0  0.14587  0.67249  0.53757  1.0000
  H   H425      1.0  0.15752  0.59115  0.52759  1.0000
  H   H426      1.0  0.46002  0.72446  0.51544  1.0000
  Fe  Fe48      1.0  0.20830  0.72346  0.49615  1.0000
  H   H427      1.0  0.16259  0.64298  0.59934  1.0000
  S   S98       1.0  0.08700  0.60227  0.49188  1.0000
  C   C355      1.0  0.12544  0.59568  0.54155  1.0000
  H   H428      1.0  0.43289  0.61187  0.54246  1.0000
  H   H429      1.0  0.18749  0.66634  0.58196  1.0000
  H   H430      1.0  0.42904  0.69955  0.50303  1.0000
  C   C356      1.0  0.12099  0.64060  0.48215  1.0000
  H   H431      1.0  0.37094  0.70018  0.52225  1.0000
  C   C357      1.0  0.44778  0.66722  0.50618  1.0000
  C   C358      1.0  0.14932  0.60144  0.53562  1.0000
  H   H432      1.0  0.19654  0.68213  0.52618  1.0000
  C   C359      1.0  0.46128  0.61699  0.56343  1.0000
  H   H433      1.0  0.45673  0.62477  0.49168  1.0000
  C   C360      1.0  0.12797  0.62826  0.55491  1.0000
  C   C361      1.0  0.15412  0.66959  0.55644  1.0000
  H   H434      1.0  0.11511  0.58110  0.53789  1.0000
  H   H435      1.0  0.19900  0.65810  0.52172  1.0000
  H   H436      1.0  0.18763  0.64164  0.57576  1.0000
  H   H437      1.0  0.09621  0.60454  0.55525  1.0000
  C   C362      1.0  0.11479  0.60896  0.55142  1.0000
  H   H438      1.0  0.11854  0.63787  0.56202  1.0000
  H   H439      1.0  0.14071  0.66350  0.57810  1.0000
  S   S99       1.0  0.17673  0.70953  0.48063  1.0000
  C   C363      1.0  0.41301  0.72199  0.48612  1.0000
  H   H440      1.0  0.17990  0.66787  0.50431  1.0000
  Fe  Fe49      1.0  0.07959  0.52660  0.49331  1.0000
  S   S100      1.0  0.05473  0.54360  0.48700  1.0000
  C   C364      1.0  0.42959  0.71555  0.49860  1.0000
  H   H441      1.0  0.29604  0.72380  0.55045  1.0000
  C   C365      1.0  0.46555  0.62500  0.50953  1.0000
  H   H442      1.0  0.45027  0.61124  0.58607  1.0000
  H   H443      1.0  0.35636  0.69483  0.49307  1.0000
  C   C366      1.0  0.39421  0.68574  0.48240  1.0000
  H   H444      1.0  0.25730  0.72458  0.54732  1.0000
  S   S101      1.0  0.10959  0.55561  0.48916  1.0000
  H   H445      1.0  0.15486  0.51080  0.48843  1.0000
  H   H446      1.0  0.36896  0.72114  0.49515  1.0000
  C   C367      1.0  0.29427  0.73794  0.53848  1.0000
  H   H447      1.0  0.10909  0.50403  0.47933  1.0000
  H   H448      1.0  0.29555  0.54166  0.48303  1.0000
  Fe  Fe50      1.0  0.41028  0.63138  0.48110  1.0000
  H   H449      1.0  0.19235  0.55762  0.48373  1.0000
  C   C368      1.0  0.33933  0.77071  0.42108  1.0000
  C   C369      1.0  0.41132  0.80868  0.32085  1.0000
  Fe  Fe51      1.0  0.27063  0.86596  0.40187  1.0000
  H   H450      1.0  0.15122  0.78884  0.47861  1.0000
  S   S102      1.0  0.24850  0.92273  0.43438  1.0000
  S   S103      1.0  0.27597  0.75699  0.40560  1.0000
  H   H451      1.0  0.17646  0.87710  0.40708  1.0000
  H   H452      1.0  0.40347  0.74950  0.47268  1.0000
  S   S104      1.0  0.16555  0.75316  0.42938  1.0000
  S   S105      1.0  0.19815  0.84941  0.36591  1.0000
  H   H453      1.0  0.29442  0.80970  0.44258  1.0000
  H   H454      1.0  0.24337  0.80291  0.38611  1.0000
  Fe  Fe52      1.0  0.25184  0.90079  0.40566  1.0000
  H   H455      1.0  0.41465  0.89166  0.38390  1.0000
  C   C370      1.0  0.42142  0.84452  0.28849  1.0000
  C   C371      1.0  0.27559  0.85294  0.28725  1.0000
  H   H456      1.0  0.16408  0.83992  0.42870  1.0000
  H   H457      1.0  0.29461  0.79144  0.35410  1.0000
  H   H458      1.0  0.20743  0.78745  0.42507  1.0000
  N   N25       1.0  0.26746  0.80337  0.34680  1.0000
  C   C372      1.0  0.39970  0.77205  0.34976  1.0000
  C   C373      1.0  0.29188  0.80457  0.33926  1.0000
  C   C374      1.0  0.41687  0.79118  0.33382  1.0000
  Fe  Fe53      1.0  0.43163  0.82049  0.42669  1.0000
  C   C375      1.0  0.39574  0.89105  0.42723  1.0000
  S   S106      1.0  0.28752  0.84743  0.42771  1.0000
  C   C376      1.0  0.34642  0.98222  0.31009  1.0000
  H   H459      1.0  0.22029  0.82554  0.39984  1.0000
  H   H460      1.0  0.46140  0.84125  0.26955  1.0000
  H   H461      1.0  0.43586  0.85921  0.27555  1.0000
  S   S107      1.0  0.30453  0.91792  0.30219  1.0000
  C   C377      1.0  0.25959  0.91598  0.46521  1.0000
  N   N26       1.0  0.35888  0.92293  0.37775  1.0000
  H   H462      1.0  0.14574  0.77704  0.39343  1.0000
  C   C378      1.0  0.34084  0.85042  0.36220  1.0000
  C   C379      1.0  0.34213  0.92937  0.39682  1.0000
  C   C380      1.0  0.32812  0.96860  0.33391  1.0000
  H   H463      1.0  0.30373  0.81908  0.34267  1.0000
  H   H464      1.0  0.13949  0.80893  0.46793  1.0000
  C   C381      1.0  0.33638  0.75498  0.44655  1.0000
  H   H465      1.0  0.38689  0.93872  0.33762  1.0000
  C   C382      1.0  0.26058  0.96170  0.35217  1.0000
  C   C383      1.0  0.33257  0.85181  0.42248  1.0000
  H   H466      1.0  0.32309  0.78333  0.38911  1.0000
  H   H467      1.0  0.33332  0.93781  0.38310  1.0000
  C   C384      1.0  0.47867  0.82576  0.37869  1.0000
  C   C385      1.0  0.38748  0.80588  0.32543  1.0000
  H   H468      1.0  0.29993  0.93926  0.34894  1.0000
  H   H469      1.0  0.34391  0.84951  0.33906  1.0000
  C   C386      1.0  0.29580  0.79578  0.45704  1.0000
  C   C387      1.0  0.37653  0.76980  0.35360  1.0000
  H   H470      1.0  0.30646  0.85110  0.36460  1.0000
  H   H471      1.0  0.26323  0.97887  0.98850  1.0000
  C   C388      1.0  0.44777  0.82609  0.28270  1.0000
  C   C389      1.0  0.37045  0.78666  0.34143  1.0000
  H   H472      1.0  0.32969  0.85260  0.44567  1.0000
  S   S108      1.0  0.38224  0.84477  0.36275  1.0000
  H   H473      1.0  0.38150  0.81844  0.31761  1.0000
  H   H474      1.0  0.42792  0.84147  0.34393  1.0000
  H   H475      1.0  0.25744  0.76957  0.35834  1.0000
  H   H476      1.0  0.39384  0.90952  0.35580  1.0000
  C   C390      1.0  0.35211  0.97597  0.28386  1.0000
  H   H477      1.0  0.29735  0.80370  0.31570  1.0000
  C   C391      1.0  0.32045  0.94278  0.30498  1.0000
  C   C392      1.0  0.23500  0.83519  0.31035  1.0000
  C   C393      1.0  0.32074  0.77085  0.40844  1.0000
  C   C394      1.0  0.26279  0.81986  0.32645  1.0000
  C   C395      1.0  0.31480  0.94914  0.33108  1.0000
  C   C396      1.0  0.25284  0.78230  0.34559  1.0000
  Fe  Fe54      1.0  0.27861  0.89958  0.34577  1.0000
  H   H478      1.0  0.25469  0.78094  0.32199  1.0000
  C   C397      1.0  0.26187  0.80542  0.37802  1.0000
  H   H479      1.0  0.34370  0.95124  0.26120  1.0000
  H   H480      1.0  0.25198  0.95033  0.37369  1.0000
  S   S109      1.0  0.26481  0.86458  0.35643  1.0000
  H   H481      1.0  0.15850  0.81484  0.36832  1.0000
  H   H482      1.0  0.26580  0.79381  0.39414  1.0000
  H   H483      1.0  0.23423  0.77852  0.35588  1.0000
  H   H484      1.0  0.33633  0.91627  0.34806  1.0000
  C   C398      1.0  0.47174  0.80730  0.36937  1.0000
  H   H485      1.0  0.27179  0.82125  0.37983  1.0000
  H   H486      1.0  0.35240  0.78497  0.34502  1.0000
  C   C399      1.0  0.19700  0.79340  0.41226  1.0000
  C   C400      1.0  0.37541  0.94217  0.35533  1.0000
  C   C401      1.0  0.29900  0.75539  0.42135  1.0000
  Fe  Fe55      1.0  0.39324  0.82960  0.40185  1.0000
  C   C402      1.0  0.31961  0.85113  0.37672  1.0000
  C   C403      1.0  0.25284  0.85193  0.28981  1.0000
  S   S110      1.0  0.40712  0.80333  0.40269  1.0000
  C   C404      1.0  0.35758  0.84978  0.37825  1.0000
  C   C405      1.0  0.26426  0.97306  0.29863  1.0000
  H   H487      1.0  0.38649  0.95272  0.36637  1.0000
  H   H488      1.0  0.24905  0.86443  0.27642  1.0000
  N   N27       1.0  0.42983  0.82904  0.30503  1.0000
  S   S111      1.0  0.22076  0.75423  0.46163  1.0000
  S   S112      1.0  0.36752  0.81405  0.44636  1.0000
  S   S113      1.0  0.23559  0.86589  0.42160  1.0000
  H   H489      1.0  0.35596  0.78286  0.41102  1.0000
  C   C406      1.0  0.19072  0.88575  0.44340  1.0000
  C   C407      1.0  0.34598  0.90876  0.36158  1.0000
  C   C408      1.0  0.33919  0.95617  0.28138  1.0000
  H   H490      1.0  0.22539  0.80712  0.34463  1.0000
  S   S114      1.0  0.24435  0.90306  0.36019  1.0000
  S   S115      1.0  0.42035  0.84829  0.42092  1.0000
  C   C409      1.0  0.15584  0.80580  0.46776  1.0000
  H   H491      1.0  0.28591  0.98119  0.36985  1.0000
  C   C410      1.0  0.35381  0.85158  0.40782  1.0000
  C   C411      1.0  0.20416  0.81491  0.39821  1.0000
  C   C412      1.0  0.16211  0.78755  0.39466  1.0000
  H   H492      1.0  0.29866  0.83930  0.30265  1.0000
  C   C413      1.0  0.28064  0.83721  0.30527  1.0000
  C   C414      1.0  0.16932  0.80891  0.38047  1.0000
  C   C415      1.0  0.23982  0.81941  0.32846  1.0000
  H   H493      1.0  0.36722  0.85253  0.41965  1.0000
  H   H494      1.0  0.28945  0.86636  0.27186  1.0000
  S   S116      1.0  0.35951  0.75583  0.46330  1.0000
  S   S117      1.0  0.28735  0.90057  0.38997  1.0000
  C   C416      1.0  0.19024  0.82262  0.38238  1.0000
  C   C417      1.0  0.17591  0.77975  0.41052  1.0000
  C   C418      1.0  0.27966  0.97914  0.34999  1.0000
  H   H495      1.0  0.23830  0.94485  0.32829  1.0000
  S   S118      1.0  0.46926  0.82538  0.41638  1.0000
  Fe  Fe56      1.0  0.38343  0.78930  0.44886  1.0000
  H   H496      1.0  0.35202  0.90921  0.44085  1.0000
  H   H497      1.0  0.21734  0.83476  0.31296  1.0000
  H   H498      1.0  0.46025  0.79286  0.38532  1.0000
  H   H499      1.0  0.44009  0.81794  0.26659  1.0000
  C   C419      1.0  0.31516  0.85084  0.40731  1.0000
  Fe  Fe57      1.0  0.23114  0.86795  0.37474  1.0000
  H   H500      1.0  0.27747  0.94793  0.46498  1.0000
  Fe  Fe58      1.0  0.39567  0.83089  0.46559  1.0000
  H   H501      1.0  0.40443  0.75903  0.35974  1.0000
  C   C420      1.0  0.38928  0.90642  0.38003  1.0000
  C   C421      1.0  0.37137  0.91209  0.39516  1.0000
  C   C422      1.0  0.40132  0.89616  0.39590  1.0000
  H   H502      1.0  0.33330  0.89419  0.37768  1.0000
  H   H503      1.0  0.45535  0.85316  0.31664  1.0000
  H   H504      1.0  0.40981  0.84945  0.30410  1.0000
  C   C423      1.0  0.37789  0.89585  0.44283  1.0000
  C   C424      1.0  0.25292  0.95866  0.32655  1.0000
  C   C425      1.0  0.17927  0.87150  0.42891  1.0000
  H   H505      1.0  0.25760  0.96952  0.27970  1.0000
  H   H506      1.0  0.44737  0.82752  0.34063  1.0000
  H   H507      1.0  0.35746  0.90394  0.34571  1.0000
  H   H508      1.0  0.41207  0.83810  0.27228  1.0000
  C   C426      1.0  0.17668  0.84206  0.46958  1.0000
  H   H509      1.0  0.32818  0.91561  0.41303  1.0000
  H   H510      1.0  0.36637  0.95128  0.34310  1.0000
  H   H511      1.0  0.43452  0.79230  0.33261  1.0000
  C   C427      1.0  0.44062  0.83824  0.32742  1.0000
  H   H512      1.0  0.24400  0.88274  0.47113  1.0000
  H   H513      1.0  0.36322  0.75511  0.36658  1.0000
  H   H514      1.0  0.35080  0.94013  0.40956  1.0000
  H   H515      1.0  0.32375  0.97342  0.35423  1.0000
  C   C428      1.0  0.36580  0.90622  0.42721  1.0000
  H   H516      1.0  0.16484  0.80800  0.44413  1.0000
  H   H517      1.0  0.20318  0.82047  0.45753  1.0000
  C   C429      1.0  0.17226  0.84997  0.44170  1.0000
  H   H518      1.0  0.28526  0.78182  0.45093  1.0000
  H   H519      1.0  0.36658  0.98627  0.26564  1.0000
  H   H520      1.0  0.40487  0.88286  0.43956  1.0000
  H   H521      1.0  0.28502  0.98759  0.23637  1.0000
  H   H522      1.0  0.31412  0.79688  0.45091  1.0000
  H   H523      1.0  0.45728  0.81687  0.29328  1.0000
  H   H524      1.0  0.19676  0.90243  0.43297  1.0000
  H   H525      1.0  0.37323  0.89118  0.46726  1.0000
  H   H526      1.0  0.23355  0.95130  0.46863  1.0000
  C   C430      1.0  0.19530  0.87854  0.47072  1.0000
  Fe  Fe59      1.0  0.19102  0.73907  0.44339  1.0000
  S   S119      1.0  0.40907  0.80439  0.47324  1.0000
  C   C431      1.0  0.29599  0.73955  0.44677  1.0000
  S   S120      1.0  0.47937  0.74237  0.38906  1.0000
  H   H527      1.0  0.47901  0.76192  0.43921  1.0000
  H   H528      1.0  0.47594  0.79279  0.33286  1.0000
  C   C432      1.0  0.31477  0.73919  0.45914  1.0000
  Fe  Fe60      1.0  0.23992  0.73878  0.43387  1.0000
  C   C433      1.0  0.27335  0.93160  0.47597  1.0000
  N   N28       1.0  0.29659  0.81271  0.67876  1.0000
  S   S121      1.0  0.19969  0.80781  0.56173  1.0000
  H   H529      1.0  0.22917  0.78528  0.57988  1.0000
  H   H530      1.0  0.30541  0.78634  0.69869  1.0000
  H   H531      1.0  0.28257  0.83753  0.67236  1.0000
  C   C434      1.0  0.09414  0.98796  0.66212  1.0000
  C   C435      1.0  0.18616  0.77106  0.54459  1.0000
  H   H532      1.0  0.29981  0.83838  0.69972  1.0000
  C   C436      1.0  0.22975  0.92365  0.78958  1.0000
  H   H533      1.0  0.23342  0.91430  0.77448  1.0000
  C   C437      1.0  0.28967  0.77504  0.50698  1.0000
  C   C438      1.0  0.20334  0.93898  0.81373  1.0000
  H   H534      1.0  0.23546  0.92373  0.59703  1.0000
  Fe  Fe61      1.0  0.23542  0.95396  0.69459  1.0000
  N   N29       1.0  0.00130  0.88050  0.81075  1.0000
  H   H535      1.0  0.03219  0.90317  0.77911  1.0000
  H   H536      1.0  0.32555  0.93485  0.61897  1.0000
  C   C439      1.0  0.19218  0.91119  0.59058  1.0000
  C   C440      1.0  0.15796  0.81374  0.51509  1.0000
  C   C441      1.0  0.98641  0.98590  0.78313  1.0000
  H   H537      1.0  0.21889  0.95942  0.84058  1.0000
  C   C442      1.0  0.32810  0.84489  0.64207  1.0000
  S   S122      1.0  0.26521  0.95462  0.71470  1.0000
  H   H538      1.0  0.19272  0.89217  0.54589  1.0000
  C   C443      1.0  0.32944  0.81041  0.64168  1.0000
  C   C444      1.0  0.27846  0.79911  0.66757  1.0000
  C   C445      1.0  0.31159  0.77380  0.50845  1.0000
  C   C446      1.0  0.12121  0.96912  0.86650  1.0000
  H   H539      1.0  0.14295  0.81913  0.51763  1.0000
  S   S123      1.0  0.02755  0.95176  0.79034  1.0000
  Fe  Fe62      1.0  0.05442  0.94591  0.81275  1.0000
  S   S124      1.0  0.07229  0.92516  0.79576  1.0000
  C   C447      1.0  0.31378  0.75559  0.52420  1.0000
  C   C448      1.0  0.20104  0.78326  0.55866  1.0000
  Fe  Fe63      1.0  0.27000  0.86407  0.56877  1.0000
  S   S125      1.0  0.28220  0.85116  0.60765  1.0000
  S   S126      1.0  0.28745  0.89823  0.54610  1.0000
  Fe  Fe64      1.0  0.22879  0.82430  0.58032  1.0000
  S   S127      1.0  0.23670  0.80842  0.62153  1.0000
  Fe  Fe65      1.0  0.24512  0.83951  0.63235  1.0000
  S   S128      1.0  0.23935  0.84590  0.67772  1.0000
  Fe  Fe66      1.0  0.27288  0.82145  0.59281  1.0000
  S   S129      1.0  0.29368  0.80049  0.59183  1.0000
  S   S130      1.0  0.23327  0.85431  0.59423  1.0000
  S   S131      1.0  0.26465  0.83554  0.55084  1.0000
  Fe  Fe67      1.0  0.19356  0.96628  0.70193  1.0000
  S   S132      1.0  0.18461  0.95789  0.66031  1.0000
  C   C449      1.0  0.35885  0.84111  0.60680  1.0000
  S   S133      1.0  0.03249  0.93773  0.85973  1.0000
  S   S134      1.0  0.23083  0.94420  0.65233  1.0000
  C   C450      1.0  0.09441  0.98588  0.88348  1.0000
  H   H540      1.0  0.16728  0.91901  0.86131  1.0000
  Fe  Fe68      1.0  0.19353  0.92960  0.67647  1.0000
  S   S135      1.0  0.17415  0.89864  0.66996  1.0000
  H   H541      1.0  0.14394  0.98314  0.78170  1.0000
  S   S136      1.0  0.19883  0.93640  0.72028  1.0000
  C   C451      1.0  0.19075  0.88269  0.67482  1.0000
  C   C452      1.0  0.20811  0.88754  0.69022  1.0000
  C   C453      1.0  0.22227  0.87545  0.69258  1.0000
  C   C454      1.0  0.21952  0.85893  0.67874  1.0000
  C   C455      1.0  0.20201  0.85395  0.66364  1.0000
  C   C456      1.0  0.18746  0.86568  0.66197  1.0000
  H   H542      1.0  0.21059  0.90056  0.70041  1.0000
  H   H543      1.0  0.23577  0.87930  0.70432  1.0000
  H   H544      1.0  0.19955  0.84091  0.65346  1.0000
  H   H545      1.0  0.17389  0.86175  0.65035  1.0000
  C   C457      1.0  0.10167  0.93943  0.77970  1.0000
  C   C458      1.0  0.11272  0.95699  0.78910  1.0000
  C   C459      1.0  0.13556  0.96948  0.77460  1.0000
  C   C460      1.0  0.14765  0.96425  0.75105  1.0000
  C   C461      1.0  0.13716  0.94599  0.74266  1.0000
  C   C462      1.0  0.11407  0.93361  0.75692  1.0000
  H   H546      1.0  0.10377  0.96081  0.80785  1.0000
  H   H547      1.0  0.30322  0.97720  0.73544  1.0000
  H   H548      1.0  0.14665  0.94160  0.72491  1.0000
  H   H549      1.0  0.10569  0.91980  0.74992  1.0000
  H   H550      1.0  0.20019  0.87822  0.57646  1.0000
  H   H551      1.0  0.26395  0.93288  0.79666  1.0000
  Fe  Fe69      1.0  0.04206  0.98457  0.79333  1.0000
  H   H552      1.0  0.08615  0.96040  0.86240  1.0000
  C   C463      1.0  0.27021  0.75655  0.52094  1.0000
  H   H553      1.0  0.28325  0.78630  0.66027  1.0000
  H   H554      1.0  0.24690  0.91154  0.57034  1.0000
  H   H555      1.0  0.11121  0.95953  0.64156  1.0000
  H   H556      1.0  0.28686  0.90910  0.67790  1.0000
  C   C464      1.0  0.21850  0.75653  0.56665  1.0000
  H   H557      1.0  0.98180  0.85855  0.77283  1.0000
  H   H558      1.0  0.25634  0.95526  0.82975  1.0000
  C   C465      1.0  0.20815  0.92588  0.79537  1.0000
  H   H559      1.0  0.22188  0.89199  0.54236  1.0000
  Fe  Fe70      1.0  0.00659  0.94637  0.83688  1.0000
  H   H560      1.0  0.16899  0.82052  0.52949  1.0000
  C   C466      1.0  0.24700  0.93409  0.80208  1.0000
  H   H561      1.0  0.19625  0.97499  0.82018  1.0000
  C   C467      1.0  0.23857  0.97019  0.50017  1.0000
  C   C468      1.0  0.18821  0.75219  0.54019  1.0000
  H   H562      1.0  0.15974  0.91398  0.81171  1.0000
  C   C469      1.0  0.30089  0.79964  0.70455  1.0000
  H   H563      1.0  0.16908  0.96865  0.81110  1.0000
  C   C470      1.0  0.26386  0.79456  0.49500  1.0000
  C   C471      1.0  0.17015  0.93582  0.85197  1.0000
  C   C472      1.0  0.34881  0.84695  0.53470  1.0000
  C   C473      1.0  0.32754  0.83596  0.55550  1.0000
  C   C474      1.0  0.32025  0.81418  0.56592  1.0000
  C   C475      1.0  0.33393  0.80331  0.55498  1.0000
  C   C476      1.0  0.35487  0.81425  0.53337  1.0000
  H   H564      1.0  0.24195  0.98497  0.53645  1.0000
  H   H565      1.0  0.31696  0.84441  0.56366  1.0000
  H   H566      1.0  0.32817  0.78644  0.56286  1.0000
  C   C477      1.0  0.01392  0.89420  0.78015  1.0000
  H   H567      1.0  0.23191  0.97039  0.74470  1.0000
  H   H568      1.0  0.37398  0.84799  0.58798  1.0000
  H   H569      1.0  0.22759  0.95223  0.57561  1.0000
  H   H570      1.0  0.28907  0.93211  0.57180  1.0000
  H   H571      1.0  0.29950  0.82759  0.48565  1.0000
  H   H572      1.0  0.46299  0.76160  0.50815  1.0000
  H   H573      1.0  0.99847  0.88400  0.85623  1.0000
  H   H574      1.0  0.08777  0.97134  0.67241  1.0000
  H   H575      1.0  0.14100  0.96386  0.62742  1.0000
  S   S137      1.0  0.07146  0.97977  0.81057  1.0000
  C   C478      1.0  0.31807  0.82281  0.65433  1.0000
  C   C479      1.0  0.13850  0.98247  0.87629  1.0000
  H   H576      1.0  0.27037  0.92586  0.67426  1.0000
  H   H577      1.0  0.17889  0.91343  0.57871  1.0000
  H   H578      1.0  0.27532  0.80833  0.64765  1.0000
  C   C480      1.0  0.22120  0.94910  0.82654  1.0000
  C   C481      1.0  0.34816  0.85378  0.61859  1.0000
  H   H579      1.0  0.19605  0.92342  0.60324  1.0000
  H   H580      1.0  0.17103  0.93633  0.77911  1.0000
  C   C482      1.0  0.28729  0.82785  0.69027  1.0000
  C   C483      1.0  0.24270  0.94671  0.82066  1.0000
  H   H581      1.0  0.99851  0.90621  0.82897  1.0000
  H   H582      1.0  0.32102  0.81637  0.48905  1.0000
  H   H583      1.0  0.28536  0.79259  0.72387  1.0000
  H   H584      1.0  0.17314  0.77619  0.53691  1.0000
  H   H585      1.0  0.32241  0.79352  0.64893  1.0000
  C   C484      1.0  0.21729  0.77596  0.56952  1.0000
  H   H586      1.0  0.19570  0.91751  0.78471  1.0000
  C   C485      1.0  0.18543  0.96527  0.80808  1.0000
  H   H587      1.0  0.35745  0.80966  0.60836  1.0000
  H   H588      1.0  0.21937  0.91832  0.50621  1.0000
  C   C486      1.0  0.16430  0.93122  0.80401  1.0000
  C   C487      1.0  0.34955  0.81949  0.61839  1.0000
  C   C488      1.0  0.44935  0.75071  0.50178  1.0000
  Fe  Fe71      1.0  0.04819  0.97224  0.85611  1.0000
  H   H589      1.0  0.00203  0.85305  0.84017  1.0000
  C   C489      1.0  0.22185  0.93170  0.54520  1.0000
  C   C490      1.0  0.30224  0.81316  0.49667  1.0000
  C   C491      1.0  0.23084  0.91078  0.58583  1.0000
  C   C492      1.0  0.28606  0.96218  0.56387  1.0000
  C   C493      1.0  0.09934  0.97089  0.86993  1.0000
  N   N30       1.0  0.28778  0.79427  0.48937  1.0000
  H   H590      1.0  0.12731  0.97930  0.60728  1.0000
  H   H591      1.0  0.32057  0.85561  0.64975  1.0000
  C   C494      1.0  0.22864  0.95129  0.55255  1.0000
  H   H592      1.0  0.33079  0.75508  0.52465  1.0000
  H   H593      1.0  0.12476  0.95748  0.85588  1.0000
  C   C495      1.0  0.01110  0.86375  0.81741  1.0000
  H   H594      1.0  0.01468  0.88532  0.76280  1.0000
  H   H595      1.0  0.19433  0.97104  0.78372  1.0000
  Fe  Fe72      1.0  0.22244  0.97320  0.63972  1.0000
  C   C496      1.0  0.18864  0.85704  0.48356  1.0000
  S   S138      1.0  0.17594  0.98066  0.73285  1.0000
  H   H596      1.0  0.35525  0.87057  0.60897  1.0000
  S   S139      1.0  0.01988  0.98005  0.83857  1.0000
  H   H597      1.0  0.25298  0.75562  0.51975  1.0000
  H   H598      1.0  0.19366  0.85220  0.50396  1.0000
  C   C497      1.0  0.19225  0.81465  0.48099  1.0000
  H   H599      1.0  0.02462  0.90109  0.83018  1.0000
  C   C498      1.0  0.28214  0.92612  0.50067  1.0000
  H   H600      1.0  0.30143  0.93681  0.66664  1.0000
  H   H601      1.0  0.18414  0.89597  0.60798  1.0000
  N   N31       1.0  0.13461  0.98787  0.64736  1.0000
  H   H602      1.0  0.29304  0.93821  0.50870  1.0000
  H   H603      1.0  0.15319  0.93803  0.85698  1.0000
  N   N32       1.0  0.21302  0.91189  0.56921  1.0000
  C   C499      1.0  0.22374  0.93228  0.51422  1.0000
  H   H604      1.0  0.29788  0.81154  0.52132  1.0000
  H   H605      1.0  0.25655  0.79228  0.51939  1.0000
  H   H606      1.0  0.31533  0.80911  0.71256  1.0000
  H   H607      1.0  0.07247  0.98329  0.74966  1.0000
  N   N33       1.0  0.18113  0.94262  0.81922  1.0000
  S   S140      1.0  0.38872  0.84998  0.49729  1.0000
  C   C500      1.0  0.20668  0.89281  0.55780  1.0000
  C   C501      1.0  0.12822  0.97194  0.63016  1.0000
  H   H608      1.0  0.22477  0.89593  0.60396  1.0000
  H   H609      1.0  0.18072  0.94499  0.86490  1.0000
  H   H610      1.0  0.28686  0.96099  0.64695  1.0000
  H   H611      1.0  0.27108  0.81981  0.70845  1.0000
  S   S141      1.0  0.16591  0.98001  0.87010  1.0000
  H   H612      1.0  0.32730  0.78675  0.49696  1.0000
  H   H613      1.0  0.26172  0.79166  0.68484  1.0000
  H   H614      1.0  0.14783  0.93436  0.80876  1.0000
  N   N34       1.0  0.28850  0.92364  0.63190  1.0000
  C   C502      1.0  0.26916  0.90511  0.63124  1.0000
  C   C503      1.0  0.31054  0.92087  0.62003  1.0000
  C   C504      1.0  0.28676  0.92395  0.66398  1.0000
  C   C505      1.0  0.28761  0.94290  0.61288  1.0000
  C   C506      1.0  0.28771  0.94452  0.58208  1.0000
  C   C507      1.0  0.28685  0.96053  0.62393  1.0000
  H   H615      1.0  0.20285  0.82201  0.49548  1.0000
  H   H616      1.0  0.20499  0.88972  0.48124  1.0000
  H   H617      1.0  0.11656  0.96671  0.69164  1.0000
  H   H618      1.0  0.27041  0.90213  0.60854  1.0000
  H   H619      1.0  0.26872  0.89045  0.64639  1.0000
  H   H620      1.0  0.25226  0.90698  0.63875  1.0000
  H   H621      1.0  0.31202  0.91847  0.59691  1.0000
  H   H622      1.0  0.31223  0.90691  0.63429  1.0000
  H   H623      1.0  0.25895  0.87309  0.51505  1.0000
  C   C508      1.0  0.26299  0.88941  0.50427  1.0000
  C   C509      1.0  0.36240  0.83610  0.52355  1.0000
  C   C510      1.0  0.26739  0.97217  0.73777  1.0000
  H   H624      1.0  0.00959  0.85405  0.80091  1.0000
  H   H625      1.0  0.36537  0.80585  0.52466  1.0000
  H   H626      1.0  0.35456  0.86383  0.52691  1.0000
  H   H627      1.0  0.17714  0.74316  0.52846  1.0000
  C   C511      1.0  0.00581  0.89348  0.83249  1.0000
  H   H628      1.0  0.14498  0.96724  0.67805  1.0000
  H   H629      1.0  0.24506  0.98489  0.48298  1.0000
  H   H630      1.0  0.98678  0.92778  0.78687  1.0000
  C   C512      1.0  0.28521  0.97813  0.60549  1.0000
  C   C513      1.0  0.27693  0.90501  0.51482  1.0000
  C   C514      1.0  0.13408  0.97711  0.67824  1.0000
  C   C515      1.0  0.24838  0.97749  0.74933  1.0000
  C   C516      1.0  0.43350  0.75757  0.48943  1.0000
  H   H631      1.0  0.18881  0.79754  0.48795  1.0000
  C   C517      1.0  0.23194  0.95129  0.49218  1.0000
  C   C518      1.0  0.28467  0.97890  0.57562  1.0000
  H   H632      1.0  0.25226  0.78239  0.48685  1.0000
  C   C519      1.0  0.23689  0.97020  0.53029  1.0000
  H   H633      1.0  0.26317  0.80972  0.48287  1.0000
  H   H634      1.0  0.00572  0.90578  0.77305  1.0000
  C   C520      1.0  0.27253  0.73840  0.53670  1.0000
  S   S142      1.0  0.23067  0.98447  0.67955  1.0000
  C   C521      1.0  0.25456  0.89490  0.47928  1.0000
  C   C522      1.0  0.20428  0.74484  0.55144  1.0000
  H   H635      1.0  0.28580  0.96291  0.54052  1.0000
  N   N35       1.0  0.17066  0.81941  0.48300  1.0000
  H   H636      1.0  0.99450  0.97559  0.77345  1.0000
  H   H637      1.0  0.15133  0.79654  0.52510  1.0000
  H   H638      1.0  0.02980  0.87042  0.81677  1.0000
  C   C523      1.0  0.28848  0.98116  0.74434  1.0000
  H   H639      1.0  0.23108  0.75100  0.57522  1.0000
  C   C524      1.0  0.41555  0.74347  0.48177  1.0000
  H   H640      1.0  0.43501  0.77389  0.48591  1.0000
  C   C525      1.0  0.94338  0.20631  0.99624  1.0000
  C   C526      1.0  0.50173  0.11527  0.16340  1.0000
  H   H641      1.0  0.49050  0.18430  0.02884  1.0000
  C   C527      1.0  0.87022  0.22589  0.18325  1.0000
  H   H642      1.0  0.82985  0.20131  0.10128  1.0000
  Fe  Fe73      1.0  0.58986  0.15759  0.06427  1.0000
  S   S143      1.0  0.57700  0.17651  0.09203  1.0000
  S   S144      1.0  0.62723  0.16083  0.05791  1.0000
  Fe  Fe74      1.0  0.54459  0.14195  0.04578  1.0000
  C   C528      1.0  0.50479  0.19150  0.21176  1.0000
  Fe  Fe75      1.0  0.56265  0.18597  0.05333  1.0000
  H   H643      1.0  0.70119  0.16394  0.16813  1.0000
  Fe  Fe76      1.0  0.54407  0.14897  0.10775  1.0000
  N   N36       1.0  0.48423  0.17341  0.21312  1.0000
  S   S145      1.0  0.57776  0.16902  0.02403  1.0000
  S   S146      1.0  0.55818  0.12872  0.08348  1.0000
  C   C529      1.0  0.49074  0.11294  0.99099  1.0000
  C   C530      1.0  0.50579  0.10040  0.14880  1.0000
  H   H644      1.0  0.70691  0.18193  0.13271  1.0000
  H   H645      1.0  0.50186  0.15037  0.02944  1.0000
  S   S147      1.0  0.67622  0.20189  0.15048  1.0000
  C   C531      1.0  0.48892  0.08043  0.15520  1.0000
  S   S148      1.0  0.78471  0.20324  0.12034  1.0000
  H   H646      1.0  0.55191  0.20085  0.10036  1.0000
  C   C532      1.0  0.64056  0.17202  0.08393  1.0000
  C   C533      1.0  0.66427  0.18341  0.07538  1.0000
  C   C534      1.0  0.67532  0.19259  0.09564  1.0000
  C   C535      1.0  0.66285  0.19014  0.12480  1.0000
  C   C536      1.0  0.63916  0.17845  0.13351  1.0000
  C   C537      1.0  0.62798  0.16956  0.11304  1.0000
  H   H647      1.0  0.67407  0.18527  0.05293  1.0000
  H   H648      1.0  0.69341  0.20169  0.08847  1.0000
  H   H649      1.0  0.62938  0.17640  0.15607  1.0000
  H   H650      1.0  0.60975  0.16040  0.12003  1.0000
  C   C538      1.0  0.64516  0.12665  0.11407  1.0000
  H   H651      1.0  0.86469  0.18309  0.01539  1.0000
  H   H652      1.0  0.66220  0.13417  0.06739  1.0000
  S   S149      1.0  0.50116  0.23333  0.14458  1.0000
  S   S150      1.0  0.56433  0.21895  0.03664  1.0000
  H   H653      1.0  0.80621  0.20166  0.16941  1.0000
  C   C539      1.0  0.83769  0.22967  0.02990  1.0000
  H   H654      1.0  0.50586  0.19330  0.23472  1.0000
  H   H655      1.0  0.49661  0.10064  0.98550  1.0000
  S   S151      1.0  0.52204  0.14065  0.15466  1.0000
  H   H656      1.0  0.64176  0.21078  0.04183  1.0000
  C   C540      1.0  0.50166  0.12525  0.00849  1.0000
  C   C541      1.0  0.50423  0.20001  0.02201  1.0000
  H   H657      1.0  0.54462  0.22817  0.98789  1.0000
  C   C542      1.0  0.64772  0.12751  0.14287  1.0000
  C   C543      1.0  0.54436  0.21265  0.09589  1.0000
  C   C544      1.0  0.71827  0.13697  0.14785  1.0000
  C   C545      1.0  0.73167  0.16333  0.10100  1.0000
  H   H658      1.0  0.74863  0.17068  0.10587  1.0000
  H   H659      1.0  0.67065  0.13648  0.17034  1.0000
  N   N37       1.0  0.71276  0.15358  0.12897  1.0000
  H   H660      1.0  0.72848  0.17602  0.08583  1.0000
  H   H661      1.0  0.73570  0.14320  0.15209  1.0000
  C   C546      1.0  0.48770  0.15408  0.22789  1.0000
  C   C547      1.0  0.71279  0.17008  0.14512  1.0000
  H   H662      1.0  0.70059  0.14912  0.07435  1.0000
  C   C548      1.0  0.80464  0.21258  0.08521  1.0000
  H   H663      1.0  0.92233  0.17354  0.01208  1.0000
  H   H664      1.0  0.83175  0.19684  0.17475  1.0000
  H   H665      1.0  0.49796  0.21011  0.03474  1.0000
  H   H666      1.0  0.62809  0.12058  0.11025  1.0000
  H   H667      1.0  0.71796  0.12403  0.13677  1.0000
  H   H668      1.0  0.87882  0.21015  0.99774  1.0000
  S   S152      1.0  0.52843  0.16017  0.07148  1.0000
  C   C549      1.0  0.68652  0.14312  0.09425  1.0000
  H   H669      1.0  0.73391  0.15160  0.08857  1.0000
  H   H670      1.0  0.63254  0.12185  0.16153  1.0000
  C   C550      1.0  0.66964  0.13612  0.14758  1.0000
  H   H671      1.0  0.61353  0.21200  0.10002  1.0000
  C   C551      1.0  0.68974  0.14443  0.12336  1.0000
  H   H672      1.0  0.52197  0.10411  0.13287  1.0000
  H   H673      1.0  0.63475  0.22897  0.01566  1.0000
  H   H674      1.0  0.51925  0.19817  0.03009  1.0000
  H   H675      1.0  0.70573  0.12999  0.17022  1.0000
  C   C552      1.0  0.52898  0.22950  0.98098  1.0000
  H   H676      1.0  0.73028  0.17839  0.14778  1.0000
  S   S153      1.0  0.52512  0.12067  0.02061  1.0000
  C   C553      1.0  0.66450  0.13435  0.08987  1.0000
  H   H677      1.0  0.61269  0.20949  0.04583  1.0000
  H   H678      1.0  0.89559  0.19377  0.00319  1.0000
  H   H679      1.0  0.49208  0.06898  0.14381  1.0000
  C   C554      1.0  0.51985  0.23068  0.11452  1.0000
  C   C555      1.0  0.54795  0.22426  0.06648  1.0000
  H   H680      1.0  0.50450  0.20648  0.19856  1.0000
  C   C556      1.0  0.48939  0.21281  0.98155  1.0000
  C   C557      1.0  0.93576  0.18550  0.99411  1.0000
  H   H681      1.0  0.52104  0.18969  0.20077  1.0000
  C   C558      1.0  0.53074  0.21614  0.11993  1.0000
  C   C559      1.0  0.84265  0.21874  0.05473  1.0000
  S   S154      1.0  0.73707  0.22173  0.09250  1.0000
  C   C560      1.0  0.49378  0.14095  0.01576  1.0000
  H   H682      1.0  0.81275  0.19996  0.20562  1.0000
  H   H683      1.0  0.90284  0.22587  0.19169  1.0000
  H   H684      1.0  0.52812  0.20707  0.14256  1.0000
  N   N38       1.0  0.51002  0.20896  0.98896  1.0000
  H   H685      1.0  0.78322  0.22566  0.06248  1.0000
  C   C561      1.0  0.82046  0.20578  0.18092  1.0000
  H   H686      1.0  0.83054  0.23432  0.12617  1.0000
  H   H687      1.0  0.54590  0.19477  0.99411  1.0000
  N   N39       1.0  0.63410  0.23555  0.05904  1.0000
  S   S155      1.0  0.73856  0.22156  0.16370  1.0000
  H   H688      1.0  0.64321  0.21523  0.09194  1.0000
  H   H689      1.0  0.50304  0.15191  0.21469  1.0000
  H   H690      1.0  0.85926  0.21694  0.05278  1.0000
  C   C562      1.0  0.63076  0.22061  0.03980  1.0000
  H   H691      1.0  0.67518  0.22869  0.05346  1.0000
  Fe  Fe77      1.0  0.76229  0.22275  0.12107  1.0000
  Fe  Fe78      1.0  0.71380  0.22259  0.13426  1.0000
  C   C563      1.0  0.82597  0.20983  0.08219  1.0000
  H   H692      1.0  0.49844  0.16987  0.16959  1.0000
  H   H693      1.0  0.87145  0.21680  0.16699  1.0000
  H   H694      1.0  0.93604  0.21028  0.01600  1.0000
  C   C564      1.0  0.87949  0.19446  0.99712  1.0000
  C   C565      1.0  0.48307  0.17241  0.18190  1.0000
  N   N40       1.0  0.83327  0.22865  0.17235  1.0000
  S   S156      1.0  0.90839  0.23483  0.03346  1.0000
  H   H695      1.0  0.49051  0.15442  0.25070  1.0000
  C   C566      1.0  0.79968  0.22353  0.06039  1.0000
  C   C567      1.0  0.63114  0.22391  0.09039  1.0000
  H   H696      1.0  0.48243  0.18706  0.16824  1.0000
  C   C568      1.0  0.81601  0.23167  0.03258  1.0000
  H   H697      1.0  0.59813  0.23223  0.06883  1.0000
  H   H698      1.0  0.63431  0.23467  0.10536  1.0000
  C   C569      1.0  0.88830  0.23094  0.19739  1.0000
  H   H699      1.0  0.85380  0.22589  0.13180  1.0000
  C   C570      1.0  0.85155  0.23325  0.18889  1.0000
  H   H700      1.0  0.80656  0.23383  0.20258  1.0000
  C   C571      1.0  0.48087  0.11008  0.18452  1.0000
  C   C572      1.0  0.84378  0.23550  0.13942  1.0000
  H   H701      1.0  0.48403  0.22336  0.99420  1.0000
  H   H702      1.0  0.80312  0.23590  0.16523  1.0000
  H   H703      1.0  0.86086  0.15701  0.98894  1.0000
  C   C573      1.0  0.94511  0.13396  0.60473  1.0000
  C   C574      1.0  0.97015  0.20807  0.77257  1.0000
  C   C575      1.0  0.94514  0.18020  0.96853  1.0000
  S   S157      1.0  0.93329  0.15456  0.96486  1.0000
  Fe  Fe79      1.0  0.85394  0.11753  0.70172  1.0000
  S   S158      1.0  0.86340  0.10124  0.74107  1.0000
  S   S159      1.0  0.87656  0.14912  0.67156  1.0000
  Fe  Fe80      1.0  0.80660  0.08421  0.71633  1.0000
  S   S160      1.0  0.81199  0.06498  0.75691  1.0000
  Fe  Fe81      1.0  0.82780  0.09597  0.76671  1.0000
  S   S161      1.0  0.82316  0.10508  0.81034  1.0000
  Fe  Fe82      1.0  0.84709  0.07213  0.72710  1.0000
  S   S162      1.0  0.86562  0.04912  0.72635  1.0000
  S   S163      1.0  0.81959  0.11461  0.72861  1.0000
  S   S164      1.0  0.84036  0.08882  0.68546  1.0000
  C   C576      1.0  0.90947  0.12315  0.56915  1.0000
  H   H704      1.0  0.95682  0.00449  0.79766  1.0000
  C   C577      1.0  0.85693  0.98961  0.73349  1.0000
  C   C578      1.0  0.80025  0.03191  0.84229  1.0000
  Fe  Fe83      1.0  0.92395  0.12224  0.87805  1.0000
  H   H705      1.0  0.96262  0.19302  0.60186  1.0000
  S   S165      1.0  0.90087  0.09223  0.87212  1.0000
  H   H706      1.0  0.90218  0.10285  0.62621  1.0000
  C   C579      1.0  0.93770  0.23351  0.89796  1.0000
  H   H707      1.0  0.72571  0.05632  0.70716  1.0000
  H   H708      1.0  0.96063  0.02030  0.76020  1.0000
  S   S166      1.0  0.91478  0.14844  0.89202  1.0000
  H   H709      1.0  0.89258  0.11445  0.56522  1.0000
  H   H710      1.0  0.90659  0.10808  0.77105  1.0000
  C   C580      1.0  0.96312  0.19558  0.94593  1.0000
  N   N41       1.0  0.97642  0.99666  0.76152  1.0000
  H   H711      1.0  0.78724  0.04135  0.70594  1.0000
  S   S167      1.0  0.97721  0.17281  0.69022  1.0000
  C   C581      1.0  0.91372  0.19780  0.92435  1.0000
  C   C582      1.0  0.77083  0.01861  0.81538  1.0000
  C   C583      1.0  0.79366  0.04925  0.84312  1.0000
  H   H712      1.0  0.50393  0.16512  0.92288  1.0000
  C   C584      1.0  0.92925  0.14414  0.59904  1.0000
  H   H713      1.0  0.93080  0.09793  0.73400  1.0000
  H   H714      1.0  0.89682  0.07470  0.76266  1.0000
  C   C585      1.0  0.50636  0.18620  0.95170  1.0000
  C   C586      1.0  0.97245  0.16583  0.60906  1.0000
  C   C587      1.0  0.84369  0.10071  0.82903  1.0000
  C   C588      1.0  0.85252  0.08498  0.82473  1.0000
  C   C589      1.0  0.86919  0.08176  0.83949  1.0000
  C   C590      1.0  0.87806  0.09502  0.85703  1.0000
  C   C591      1.0  0.86930  0.11081  0.86124  1.0000
  C   C592      1.0  0.85167  0.11330  0.84783  1.0000
  H   H715      1.0  0.84621  0.07505  0.81048  1.0000
  H   H716      1.0  0.87556  0.06925  0.83693  1.0000
  H   H717      1.0  0.87579  0.12082  0.87524  1.0000
  H   H718      1.0  0.84459  0.12526  0.85154  1.0000
  C   C593      1.0  0.89468  0.06291  0.70761  1.0000
  C   C594      1.0  0.91168  0.05425  0.71181  1.0000
  C   C595      1.0  0.93510  0.06626  0.69878  1.0000
  C   C596      1.0  0.94146  0.08680  0.68125  1.0000
  C   C597      1.0  0.92435  0.09508  0.67644  1.0000
  C   C598      1.0  0.90107  0.08325  0.68976  1.0000
  H   H719      1.0  0.90680  0.03852  0.72576  1.0000
  C   C599      1.0  0.89374  0.11473  0.62275  1.0000
  H   H720      1.0  0.92919  0.11104  0.66353  1.0000
  H   H721      1.0  0.88801  0.08996  0.68656  1.0000
  Fe  Fe84      1.0  0.94440  0.16940  0.85356  1.0000
  H   H722      1.0  0.81433  0.03037  0.85193  1.0000
  C   C600      1.0  0.72144  0.02380  0.71180  1.0000
  N   N42       1.0  0.75962  0.00256  0.80056  1.0000
  H   H723      1.0  0.94096  0.11742  0.60640  1.0000
  C   C601      1.0  0.94961  0.16649  0.68393  1.0000
  C   C602      1.0  0.94229  0.18191  0.66938  1.0000
  C   C603      1.0  0.92001  0.17645  0.66472  1.0000
  C   C604      1.0  0.90495  0.15569  0.67518  1.0000
  C   C605      1.0  0.91251  0.14031  0.68904  1.0000
  C   C606      1.0  0.93478  0.14569  0.69344  1.0000
  H   H724      1.0  0.95377  0.19798  0.66149  1.0000
  H   H725      1.0  0.91439  0.18833  0.65329  1.0000
  H   H726      1.0  0.90142  0.12419  0.69583  1.0000
  H   H727      1.0  0.94071  0.13369  0.70363  1.0000
  S   S168      1.0  0.77303  0.07760  0.70325  1.0000
  H   H728      1.0  0.92556  0.17508  0.59351  1.0000
  Fe  Fe85      1.0  0.97479  0.14415  0.86803  1.0000
  H   H729      1.0  0.89947  0.15778  0.56953  1.0000
  C   C607      1.0  0.93248  0.21208  0.90164  1.0000
  C   C608      1.0  0.73422  0.04489  0.70822  1.0000
  H   H730      1.0  0.87148  0.03861  0.78584  1.0000
  C   C609      1.0  0.76888  0.03644  0.70771  1.0000
  H   H731      1.0  0.53661  0.15503  0.93432  1.0000
  H   H732      1.0  0.91961  0.13569  0.54829  1.0000
  C   C610      1.0  0.90500  0.22666  0.93937  1.0000
  H   H733      1.0  0.94323  0.20642  0.88701  1.0000
  H   H734      1.0  0.90942  0.03405  0.85318  1.0000
  S   S169      1.0  0.93918  0.19726  0.82695  1.0000
  H   H735      1.0  0.55733  0.17000  0.96974  1.0000
  H   H736      1.0  0.89467  0.23309  0.95306  1.0000
  H   H737      1.0  0.94814  0.05965  0.70244  1.0000
  H   H738      1.0  0.76465  0.00404  0.71126  1.0000
  C   C611      1.0  0.95780  0.17655  0.60218  1.0000
  H   H739      1.0  0.87431  0.13533  0.58855  1.0000
  H   H740      1.0  0.86083  0.00640  0.72882  1.0000
  C   C612      1.0  0.75786  0.05121  0.70653  1.0000
  H   H741      1.0  0.93522  0.06966  0.83101  1.0000
  H   H742      1.0  0.79057  0.99640  0.78329  1.0000
  C   C613      1.0  0.93641  0.16595  0.59743  1.0000
  N   N43       1.0  0.88684  0.16710  0.77058  1.0000
  C   C614      1.0  0.89630  0.16571  0.79764  1.0000
  C   C615      1.0  0.86201  0.16393  0.78070  1.0000
  C   C616      1.0  0.88896  0.14968  0.75750  1.0000
  C   C617      1.0  0.89877  0.18727  0.74749  1.0000
  C   C618      1.0  0.89166  0.19105  0.72039  1.0000
  C   C619      1.0  0.91773  0.20350  0.75084  1.0000
  C   C620      1.0  0.85775  0.19283  0.95940  1.0000
  S   S170      1.0  0.97104  0.17294  0.88019  1.0000
  C   C621      1.0  0.89934  0.20468  0.94400  1.0000
  H   H743      1.0  0.89462  0.17797  0.80932  1.0000
  H   H744      1.0  0.88712  0.15039  0.81449  1.0000
  H   H745      1.0  0.91482  0.16730  0.79183  1.0000
  H   H746      1.0  0.85293  0.16229  0.76239  1.0000
  H   H747      1.0  0.85963  0.17723  0.78932  1.0000
  H   H748      1.0  0.85268  0.14929  0.79899  1.0000
  H   H749      1.0  0.88020  0.14828  0.73885  1.0000
  H   H750      1.0  0.90739  0.15203  0.74817  1.0000
  H   H751      1.0  0.88088  0.13429  0.77456  1.0000
  H   H752      1.0  0.87754  0.17936  0.71602  1.0000
  H   H753      1.0  0.92413  0.20231  0.77081  1.0000
  H   H754      1.0  0.97344  0.09922  0.87358  1.0000
  H   H755      1.0  0.77145  0.06552  0.83016  1.0000
  H   H756      1.0  0.91114  0.18147  0.92623  1.0000
  N   N44       1.0  0.93466  0.09774  0.77907  1.0000
  C   C622      1.0  0.96624  0.14465  0.60998  1.0000
  C   C623      1.0  0.94423  0.09975  0.74686  1.0000
  C   C624      1.0  0.92155  0.11212  0.78125  1.0000
  C   C625      1.0  0.91915  0.07588  0.79377  1.0000
  C   C626      1.0  0.92192  0.06360  0.81992  1.0000
  C   C627      1.0  0.90042  0.06623  0.78201  1.0000
  C   C628      1.0  0.90706  0.04294  0.83303  1.0000
  H   H757      1.0  0.87390  0.16270  0.94976  1.0000
  H   H758      1.0  0.95218  0.08768  0.74414  1.0000
  H   H759      1.0  0.94405  0.23389  0.73086  1.0000
  C   C629      1.0  0.54339  0.17491  0.96434  1.0000
  H   H760      1.0  0.88816  0.15176  0.60980  1.0000
  H   H761      1.0  0.80257  0.06114  0.85329  1.0000
  C   C630      1.0  0.77594  0.05160  0.83024  1.0000
  C   C631      1.0  0.97446  0.23449  0.80056  1.0000
  H   H762      1.0  0.91471  0.11147  0.80520  1.0000
  H   H763      1.0  0.93258  0.12864  0.76956  1.0000
  Fe  Fe86      1.0  0.94181  0.15025  0.91807  1.0000
  C   C632      1.0  0.89156  0.14489  0.59050  1.0000
  C   C633      1.0  0.95449  0.10484  0.79251  1.0000
  C   C634      1.0  0.96890  0.01201  0.77501  1.0000
  H   H764      1.0  0.79494  0.00371  0.82824  1.0000
  H   H765      1.0  0.89248  0.12076  0.64323  1.0000
  H   H766      1.0  0.72669  0.00692  0.80571  1.0000
  N   N45       1.0  0.87864  0.19003  0.96736  1.0000
  N   N46       1.0  0.90638  0.13211  0.59538  1.0000
  C   C635      1.0  0.75608  0.01530  0.71080  1.0000
  S   S171      1.0  0.95123  0.14313  0.83694  1.0000
  H   H767      1.0  0.94869  0.10446  0.81663  1.0000
  H   H768      1.0  0.96135  0.19248  0.77068  1.0000
  C   C636      1.0  0.76456  0.03655  0.81659  1.0000
  H   H769      1.0  0.91868  0.11184  0.57227  1.0000
  S   S172      1.0  0.94795  0.12163  0.90820  1.0000
  H   H770      1.0  0.73281  0.99433  0.77683  1.0000
  C   C637      1.0  0.97100  0.21631  0.94824  1.0000
  H   H771      1.0  0.75134  0.03966  0.80652  1.0000
  C   C638      1.0  0.96343  0.21410  0.79863  1.0000
  H   H772      1.0  0.89148  0.16462  0.97660  1.0000
  H   H773      1.0  0.85747  0.20884  0.95910  1.0000
  H   H774      1.0  0.87746  0.01795  0.83105  1.0000
  C   C639      1.0  0.92192  0.22510  0.70162  1.0000
  C   C640      1.0  0.88905  0.03390  0.82066  1.0000
  H   H775      1.0  0.78580  0.01722  0.75898  1.0000
  C   C641      1.0  0.88571  0.04553  0.79523  1.0000
  C   C642      1.0  0.53178  0.16649  0.94424  1.0000
  C   C643      1.0  0.51750  0.19472  0.97291  1.0000
  H   H776      1.0  0.95775  0.11535  0.73546  1.0000
  C   C644      1.0  0.51345  0.17225  0.93776  1.0000
  H   H777      1.0  0.87581  0.10615  0.62188  1.0000
  H   H778      1.0  0.96596  0.12122  0.78090  1.0000
  H   H779      1.0  0.97102  0.19157  0.92669  1.0000
  S   S173      1.0  0.97048  0.10315  0.66668  1.0000
  H   H780      1.0  0.74736  0.02176  0.77035  1.0000
  H   H781      1.0  0.49266  0.22037  0.95722  1.0000
  H   H782      1.0  0.70308  0.01900  0.71359  1.0000
  H   H783      1.0  0.49145  0.18922  0.94639  1.0000
  H   H784      1.0  0.85685  0.19036  0.93668  1.0000
  C   C645      1.0  0.92925  0.22198  0.72803  1.0000
  C   C646      1.0  0.90297  0.20978  0.69798  1.0000
  H   H785      1.0  0.97753  0.13628  0.61580  1.0000
  H   H786      1.0  0.96528  0.09488  0.79074  1.0000
  H   H787      1.0  0.89732  0.21217  0.67737  1.0000
  C   C647      1.0  0.73227  0.00892  0.71330  1.0000
  C   C648      1.0  0.87614  0.16766  0.97072  1.0000
  C   C649      1.0  0.74082  0.00665  0.78794  1.0000
  C   C650      1.0  0.78904  0.01677  0.82867  1.0000
  H   H788      1.0  0.76905  0.99027  0.76314  1.0000
  H   H789      1.0  0.96671  0.06804  0.85295  1.0000
  C   C651      1.0  0.96076  0.22179  0.97306  1.0000
  C   C652      1.0  0.77705  0.00165  0.77546  1.0000
  H   H790      1.0  0.84168  0.18169  0.97589  1.0000
  H   H791      1.0  0.53417  0.23654  0.95624  1.0000
  H   H792      1.0  0.85375  0.98898  0.68937  1.0000
  C   C653      1.0  0.53651  0.18890  0.97839  1.0000
  Fe  Fe87      1.0  0.89492  0.36590  0.19537  1.0000
  S   S174      1.0  0.87844  0.34749  0.24318  1.0000
  S   S175      1.0  0.88513  0.39304  0.17577  1.0000
  Fe  Fe88      1.0  0.92371  0.33900  0.18429  1.0000
  S   S176      1.0  0.90993  0.31850  0.23132  1.0000
  S   S177      1.0  0.95013  0.33410  0.15029  1.0000
  Fe  Fe89      1.0  0.87559  0.31939  0.22467  1.0000
  S   S178      1.0  0.84421  0.28978  0.23915  1.0000
  Fe  Fe90      1.0  0.91437  0.34868  0.24487  1.0000
  S   S179      1.0  0.92808  0.35593  0.28488  1.0000
  S   S180      1.0  0.88923  0.33789  0.17655  1.0000
  S   S181      1.0  0.93098  0.36909  0.19810  1.0000
  Fe  Fe91      1.0  0.91480  0.25947  0.05920  1.0000
  S   S182      1.0  0.89657  0.27796  0.03549  1.0000
  S   S183      1.0  0.90401  0.25278  0.10943  1.0000
  H   H793      1.0  0.90175  0.40446  0.26176  1.0000
  C   C654      1.0  0.54830  0.28666  0.11689  1.0000
  C   C655      1.0  0.75856  0.39181  0.12392  1.0000
  S   S184      1.0  0.94980  0.27878  0.02928  1.0000
  Fe  Fe92      1.0  0.57472  0.39394  0.06988  1.0000
  H   H794      1.0  0.86634  0.45998  0.02060  1.0000
  S   S185      1.0  0.59504  0.38070  0.09788  1.0000
  C   C656      1.0  0.95385  0.37718  0.27947  1.0000
  C   C657      1.0  0.68108  0.46985  0.02241  1.0000
  Fe  Fe93      1.0  0.71790  0.44620  0.06715  1.0000
  H   H795      1.0  0.63623  0.47875  0.11942  1.0000
  S   S186      1.0  0.70150  0.42661  0.03833  1.0000
  S   S187      1.0  0.73139  0.43401  0.10538  1.0000
  H   H796      1.0  0.79126  0.46973  0.02415  1.0000
  H   H797      1.0  0.79264  0.33596  0.16204  1.0000
  H   H798      1.0  0.58103  0.47597  0.03937  1.0000
  S   S188      1.0  0.75947  0.27993  0.03921  1.0000
  N   N47       1.0  0.90770  0.33951  0.07332  1.0000
  Fe  Fe94      1.0  0.89395  0.41024  0.01379  1.0000
  H   H799      1.0  0.72082  0.29212  0.02091  1.0000
  S   S189      1.0  0.92367  0.41468  0.03547  1.0000
  Fe  Fe95      1.0  0.84290  0.38545  0.02575  1.0000
  C   C658      1.0  0.94399  0.42732  0.27106  1.0000
  S   S190      1.0  0.81337  0.36490  0.06448  1.0000
  H   H800      1.0  0.79488  0.35564  0.13033  1.0000
  H   H801      1.0  0.54484  0.41007  0.13089  1.0000
  H   H802      1.0  0.56783  0.46636  0.07889  1.0000
  H   H803      1.0  0.68767  0.30430  0.02113  1.0000
  S   S191      1.0  0.87442  0.37735  0.01379  1.0000
  S   S192      1.0  0.86212  0.41707  0.03025  1.0000
  C   C659      1.0  0.77178  0.30446  0.04591  1.0000
  C   C660      1.0  0.78357  0.32217  0.02193  1.0000
  C   C661      1.0  0.79653  0.34097  0.02731  1.0000
  C   C662      1.0  0.79679  0.34216  0.05683  1.0000
  C   C663      1.0  0.78394  0.32483  0.08085  1.0000
  C   C664      1.0  0.77176  0.30597  0.07535  1.0000
  C   C665      1.0  0.84101  0.46258  0.99596  1.0000
  H   H804      1.0  0.80632  0.35441  0.00865  1.0000
  H   H805      1.0  0.78396  0.32567  0.10377  1.0000
  H   H806      1.0  0.76276  0.29258  0.09411  1.0000
  S   S193      1.0  0.94704  0.33015  0.98822  1.0000
  C   C666      1.0  0.66204  0.27322  0.03796  1.0000
  C   C667      1.0  0.80762  0.46779  0.02353  1.0000
  C   C668      1.0  0.81572  0.46576  0.04961  1.0000
  C   C669      1.0  0.83732  0.46369  0.04818  1.0000
  C   C670      1.0  0.84989  0.46200  0.02143  1.0000
  S   S194      1.0  0.77840  0.25754  0.10747  1.0000
  C   C671      1.0  0.67531  0.47224  0.16659  1.0000
  H   H807      1.0  0.54064  0.24860  0.03841  1.0000
  C   C672      1.0  0.62467  0.39205  0.08063  1.0000
  C   C673      1.0  0.64076  0.38969  0.09708  1.0000
  C   C674      1.0  0.66446  0.40038  0.08424  1.0000
  C   C675      1.0  0.67208  0.41262  0.05450  1.0000
  C   C676      1.0  0.65605  0.41407  0.03762  1.0000
  C   C677      1.0  0.63238  0.40420  0.05086  1.0000
  H   H808      1.0  0.63485  0.38031  0.12012  1.0000
  H   H809      1.0  0.67685  0.39906  0.09724  1.0000
  H   H810      1.0  0.90639  0.35395  0.02897  1.0000
  H   H811      1.0  0.62014  0.40602  0.03793  1.0000
  H   H812      1.0  0.95869  0.43086  0.30902  1.0000
  H   H813      1.0  0.61679  0.25586  0.07356  1.0000
  H   H814      1.0  0.58773  0.40607  0.26182  1.0000
  H   H815      1.0  0.93178  0.41214  0.28391  1.0000
  C   C678      1.0  0.68462  0.28769  0.02834  1.0000
  C   C679      1.0  0.59368  0.31058  0.11409  1.0000
  H   H816      1.0  0.75686  0.35845  0.06596  1.0000
  H   H817      1.0  0.61126  0.31993  0.11311  1.0000
  H   H818      1.0  0.85951  0.28198  0.00842  1.0000
  H   H819      1.0  0.95499  0.41427  0.20180  1.0000
  H   H820      1.0  0.90538  0.35657  0.10705  1.0000
  C   C680      1.0  0.54018  0.45528  0.16669  1.0000
  Fe  Fe96      1.0  0.75038  0.25663  0.08359  1.0000
  H   H821      1.0  0.53034  0.32128  0.14997  1.0000
  C   C681      1.0  0.93807  0.31063  0.14057  1.0000
  C   C682      1.0  0.95079  0.30532  0.11753  1.0000
  C   C683      1.0  0.94054  0.28733  0.10819  1.0000
  C   C684      1.0  0.91757  0.27465  0.12192  1.0000
  C   C685      1.0  0.90502  0.27989  0.14515  1.0000
  C   C686      1.0  0.91525  0.29775  0.15460  1.0000
  H   H822      1.0  0.81039  0.29505  0.04476  1.0000
  H   H823      1.0  0.95045  0.28326  0.09047  1.0000
  H   H824      1.0  0.88722  0.27044  0.15553  1.0000
  H   H825      1.0  0.90532  0.30167  0.17250  1.0000
  C   C687      1.0  0.89756  0.40123  0.13696  1.0000
  C   C688      1.0  0.91581  0.39530  0.12484  1.0000
  C   C689      1.0  0.92458  0.40049  0.09358  1.0000
  C   C690      1.0  0.91451  0.41086  0.07441  1.0000
  C   C691      1.0  0.89658  0.41717  0.08657  1.0000
  C   C692      1.0  0.88834  0.41265  0.11786  1.0000
  H   H826      1.0  0.92312  0.38658  0.13943  1.0000
  H   H827      1.0  0.93868  0.39587  0.08421  1.0000
  H   H828      1.0  0.88929  0.42583  0.07189  1.0000
  H   H829      1.0  0.87439  0.41749  0.12710  1.0000
  C   C693      1.0  0.82324  0.28702  0.21809  1.0000
  C   C694      1.0  0.82639  0.30204  0.19167  1.0000
  C   C695      1.0  0.80895  0.29982  0.17607  1.0000
  C   C696      1.0  0.78837  0.28256  0.18662  1.0000
  H   H830      1.0  0.53512  0.34247  0.06818  1.0000
  C   C697      1.0  0.80290  0.26941  0.22816  1.0000
  H   H831      1.0  0.84198  0.31558  0.18362  1.0000
  H   H832      1.0  0.81117  0.31164  0.15609  1.0000
  H   H833      1.0  0.80898  0.40245  0.03706  1.0000
  H   H834      1.0  0.91090  0.33290  0.11873  1.0000
  C   C698      1.0  0.63243  0.41647  0.24188  1.0000
  N   N48       1.0  0.81864  0.36607  0.15759  1.0000
  H   H835      1.0  0.65372  0.41398  0.19207  1.0000
  C   C699      1.0  0.83737  0.36331  0.13657  1.0000
  C   C700      1.0  0.81999  0.35791  0.18877  1.0000
  H   H836      1.0  0.65067  0.42745  0.23344  1.0000
  Fe  Fe97      1.0  0.71638  0.45416  0.12864  1.0000
  C   C701      1.0  0.96740  0.38867  0.25065  1.0000
  C   C702      1.0  0.85161  0.24517  0.21059  1.0000
  H   H837      1.0  0.75909  0.40097  0.14043  1.0000
  C   C703      1.0  0.67715  0.24502  0.04668  1.0000
  N   N49       1.0  0.61728  0.42334  0.22434  1.0000
  S   S195      1.0  0.70005  0.46383  0.09213  1.0000
  H   H838      1.0  0.88432  0.29591  0.09266  1.0000
  H   H839      1.0  0.85455  0.37279  0.13865  1.0000
  H   H840      1.0  0.83693  0.36836  0.11269  1.0000
  H   H841      1.0  0.81687  0.34079  0.19410  1.0000
  H   H842      1.0  0.83743  0.36537  0.19221  1.0000
  H   H843      1.0  0.80691  0.36037  0.20568  1.0000
  H   H844      1.0  0.62706  0.41601  0.26609  1.0000
  C   C704      1.0  0.62425  0.42475  0.19179  1.0000
  S   S196      1.0  0.57651  0.39246  0.02219  1.0000
  C   C705      1.0  0.64303  0.41918  0.17898  1.0000
  C   C706      1.0  0.61164  0.43128  0.17193  1.0000
  C   C707      1.0  0.64905  0.42069  0.14818  1.0000
  C   C708      1.0  0.61727  0.43205  0.14136  1.0000
  C   C709      1.0  0.63615  0.42701  0.12945  1.0000
  C   C710      1.0  0.79603  0.35303  0.15414  1.0000
  H   H845      1.0  0.61205  0.44348  0.25300  1.0000
  C   C711      1.0  0.94306  0.42255  0.19611  1.0000
  H   H846      1.0  0.59709  0.43560  0.18001  1.0000
  H   H847      1.0  0.66388  0.41693  0.13882  1.0000
  H   H848      1.0  0.60679  0.43638  0.12696  1.0000
  H   H849      1.0  0.64070  0.42781  0.10571  1.0000
  N   N50       1.0  0.92942  0.42501  0.22366  1.0000
  C   C712      1.0  0.91520  0.43752  0.21462  1.0000
  H   H850      1.0  0.97294  0.34250  0.20129  1.0000
  C   C713      1.0  0.69958  0.25960  0.03708  1.0000
  N   N51       1.0  0.53843  0.31974  0.10393  1.0000
  C   C714      1.0  0.55478  0.30883  0.10958  1.0000
  H   H851      1.0  0.59801  0.47414  0.06632  1.0000
  H   H852      1.0  0.74321  0.36216  0.15696  1.0000
  C   C715      1.0  0.64801  0.47792  0.07352  1.0000
  C   C716      1.0  0.96083  0.38275  0.30463  1.0000
  H   H853      1.0  0.90285  0.42952  0.20239  1.0000
  H   H854      1.0  0.78331  0.32114  0.99920  1.0000
  H   H855      1.0  0.67298  0.46665  0.14687  1.0000
  N   N52       1.0  0.83803  0.30094  0.00633  1.0000
  H   H856      1.0  0.95043  0.37394  0.32701  1.0000
  C   C717      1.0  0.88814  0.24313  0.21793  1.0000
  H   H857      1.0  0.91574  0.32000  0.04553  1.0000
  C   C718      1.0  0.77047  0.38798  0.01805  1.0000
  C   C719      1.0  0.53100  0.45230  0.14187  1.0000
  C   C720      1.0  0.78551  0.26715  0.21243  1.0000
  C   C721      1.0  0.75738  0.36844  0.08118  1.0000
  H   H858      1.0  0.93175  0.41347  0.18372  1.0000
  C   C722      1.0  0.56413  0.27690  0.12260  1.0000
  C   C723      1.0  0.68948  0.47100  0.21165  1.0000
  C   C724      1.0  0.87340  0.30526  0.09156  1.0000
  H   H859      1.0  0.84401  0.46264  0.06801  1.0000
  H   H860      1.0  0.86906  0.32770  0.99854  1.0000
  C   C725      1.0  0.49551  0.33779  0.04439  1.0000
  H   H861      1.0  0.80690  0.42187  0.00756  1.0000
  S   S197      1.0  0.53967  0.41753  0.02186  1.0000
  S   S198      1.0  0.72491  0.25758  0.12279  1.0000
  C   C726      1.0  0.76675  0.40201  0.09330  1.0000
  H   H862      1.0  0.95543  0.33385  0.25590  1.0000
  H   H863      1.0  0.95363  0.43774  0.17973  1.0000
  H   H864      1.0  0.80703  0.27373  0.02758  1.0000
  H   H865      1.0  0.76819  0.42554  0.00711  1.0000
  Fe  Fe98      1.0  0.94168  0.25615  0.00081  1.0000
  H   H866      1.0  0.64152  0.46108  0.07959  1.0000
  H   H867      1.0  0.78027  0.37710  0.02043  1.0000
  S   S199      1.0  0.52283  0.43353  0.09639  1.0000
  S   S200      1.0  0.75006  0.47402  0.04487  1.0000
  H   H868      1.0  0.75180  0.37875  0.02223  1.0000
  C   C727      1.0  0.58676  0.28882  0.12123  1.0000
  H   H869      1.0  0.74370  0.40962  0.03785  1.0000
  H   H870      1.0  0.53880  0.47706  0.07771  1.0000
  N   N53       1.0  0.66269  0.47865  0.01925  1.0000
  Fe  Fe99      1.0  0.76238  0.46336  0.08516  1.0000
  C   C728      1.0  0.61550  0.24459  0.05930  1.0000
  H   H871      1.0  0.56386  0.34736  0.07152  1.0000
  C   C729      1.0  0.81996  0.28649  0.03315  1.0000
  C   C730      1.0  0.48315  0.34176  0.06920  1.0000
  H   H872      1.0  0.71419  0.25436  0.03680  1.0000
  H   H873      1.0  0.68491  0.46233  0.00400  1.0000
  S   S201      1.0  0.79819  0.46318  0.08484  1.0000
  H   H874      1.0  0.81200  0.23992  0.01339  1.0000
  C   C731      1.0  0.86975  0.25008  0.22468  1.0000
  H   H875      1.0  0.80400  0.42501  0.04503  1.0000
  H   H876      1.0  0.82742  0.27869  0.04975  1.0000
  S   S202      1.0  0.53610  0.38290  0.08380  1.0000
  C   C732      1.0  0.85428  0.31679  0.01716  1.0000
  H   H877      1.0  0.84544  0.32619  0.02811  1.0000
  C   C733      1.0  0.91341  0.40382  0.24138  1.0000
  C   C734      1.0  0.91472  0.34648  0.09935  1.0000
  H   H878      1.0  0.74294  0.34139  0.11916  1.0000
  H   H879      1.0  0.90203  0.39592  0.22813  1.0000
  C   C735      1.0  0.74973  0.37002  0.13321  1.0000
  H   H880      1.0  0.80030  0.25780  0.24869  1.0000
  H   H881      1.0  0.92297  0.39340  0.24844  1.0000
  S   S203      1.0  0.57963  0.42800  0.06024  1.0000
  H   H882      1.0  0.51529  0.25402  0.08097  1.0000
  H   H883      1.0  0.58414  0.33737  0.10317  1.0000
  H   H884      1.0  0.53886  0.46789  0.17660  1.0000
  H   H885      1.0  0.69850  0.46468  0.22651  1.0000
  H   H886      1.0  0.84287  0.27743  0.10672  1.0000
  S   S204      1.0  0.69869  0.44514  0.17774  1.0000
  C   C736      1.0  0.76284  0.41734  0.03151  1.0000
  C   C737      1.0  0.59343  0.40814  0.23715  1.0000
  C   C738      1.0  0.82829  0.40179  0.16927  1.0000
  H   H887      1.0  0.76705  0.42997  0.04334  1.0000
  H   H888      1.0  0.50669  0.29425  0.12790  1.0000
  H   H889      1.0  0.52292  0.33936  0.12413  1.0000
  H   H890      1.0  0.90501  0.44009  0.23463  1.0000
  Fe  Fe100     1.0  0.53817  0.38420  0.03495  1.0000
  C   C739      1.0  0.53591  0.33169  0.12677  1.0000
  Fe  Fe101     1.0  0.89270  0.25486  0.00742  1.0000
  C   C740      1.0  0.55157  0.42496  0.16662  1.0000
  H   H891      1.0  0.53105  0.27646  0.11857  1.0000
  C   C741      1.0  0.97791  0.46615  0.24102  1.0000
  C   C742      1.0  0.84955  0.29437  0.10006  1.0000
  C   C743      1.0  0.65765  0.25137  0.04780  1.0000
  H   H892      1.0  0.81236  0.38907  0.10695  1.0000
  H   H893      1.0  0.62642  0.46702  0.02094  1.0000
  H   H894      1.0  0.83646  0.34675  0.14120  1.0000
  H   H895      1.0  0.63629  0.44816  0.04162  1.0000
  C   C744      1.0  0.64111  0.46130  0.02134  1.0000
  H   H896      1.0  0.63199  0.40046  0.24087  1.0000
  H   H897      1.0  0.66191  0.42323  0.01445  1.0000
  H   H898      1.0  0.55906  0.41406  0.17647  1.0000
  C   C745      1.0  0.82107  0.38849  0.15037  1.0000
  S   S205      1.0  0.76520  0.28237  0.17019  1.0000
  H   H899      1.0  0.93357  0.35550  0.09403  1.0000
  C   C746      1.0  0.81699  0.39786  0.12309  1.0000
  H   H900      1.0  0.93266  0.36623  0.03892  1.0000
  H   H901      1.0  0.92092  0.31428  0.08251  1.0000
  C   C747      1.0  0.88256  0.32755  0.08227  1.0000
  C   C748      1.0  0.58295  0.47827  0.06181  1.0000
  H   H902      1.0  0.78165  0.35634  0.16736  1.0000
  H   H903      1.0  0.83287  0.39638  0.18973  1.0000
  C   C749      1.0  0.81908  0.41892  0.11580  1.0000
  C   C750      1.0  0.70333  0.28090  0.02807  1.0000
  C   C751      1.0  0.83030  0.42289  0.16171  1.0000
  H   H904      1.0  0.81576  0.42569  0.09493  1.0000
  C   C752      1.0  0.92160  0.32694  0.06361  1.0000
  C   C753      1.0  0.91367  0.35823  0.04790  1.0000
  H   H905      1.0  0.94027  0.33653  0.05460  1.0000
  H   H906      1.0  0.90758  0.37054  0.05452  1.0000
  C   C754      1.0  0.82552  0.43138  0.13514  1.0000
  H   H907      1.0  0.86188  0.30937  0.03390  1.0000
  H   H908      1.0  0.59201  0.39255  0.23304  1.0000
  H   H909      1.0  0.83583  0.43279  0.17638  1.0000
  C   C755      1.0  0.57798  0.32047  0.10838  1.0000
  H   H910      1.0  0.55866  0.25994  0.12833  1.0000
  S   S206      1.0  0.51845  0.35781  0.01767  1.0000
  H   H911      1.0  0.96846  0.31526  0.10663  1.0000
  H   H912      1.0  0.82701  0.44772  0.12926  1.0000
  C   C756      1.0  0.61786  0.44409  0.22882  1.0000
  Fe  Fe102     1.0  0.57787  0.47873  0.20857  1.0000
  C   C757      1.0  0.86637  0.33805  0.08385  1.0000
  H   H913      1.0  0.60656  0.45038  0.21713  1.0000
  H   H914      1.0  0.87184  0.35493  0.07896  1.0000
  H   H915      1.0  0.96267  0.38417  0.23116  1.0000
  H   H916      1.0  0.58064  0.41329  0.22713  1.0000
  H   H917      1.0  0.63558  0.45576  0.22022  1.0000
  C   C758      1.0  0.55024  0.44146  0.17929  1.0000
  H   H918      1.0  0.56745  0.46550  0.99236  1.0000
  S   S207      1.0  0.56134  0.44476  0.21072  1.0000
  C   C759      1.0  0.79962  0.41332  0.03177  1.0000
  H   H919      1.0  0.64281  0.45395  0.00216  1.0000
  C   C760      1.0  0.48922  0.31755  0.04023  1.0000
  C   C761      1.0  0.85101  0.28901  0.99257  1.0000
  C   C762      1.0  0.68704  0.46406  0.18575  1.0000
  C   C763      1.0  0.53288  0.43615  0.12872  1.0000
  C   C764      1.0  0.94514  0.43592  0.24043  1.0000
  C   C765      1.0  0.82032  0.46634  0.99666  1.0000
  H   H920      1.0  0.55230  0.34445  0.12508  1.0000
  H   H921      1.0  0.55041  0.32640  0.05576  1.0000
  H   H922      1.0  0.52263  0.46266  0.13272  1.0000
  C   C766      1.0  0.74940  0.35837  0.11190  1.0000
  H   H923      1.0  0.67621  0.45770  0.04395  1.0000
  H   H924      1.0  0.59891  0.28118  0.12589  1.0000
  C   C767      1.0  0.84263  0.32696  0.09218  1.0000
  C   C768      1.0  0.83422  0.30521  0.10019  1.0000
  Fe  Fe103     1.0  0.93100  0.29526  0.00323  1.0000
  H   H925      1.0  0.77650  0.39706  0.99400  1.0000
  N   N54       1.0  0.77446  0.40196  0.03860  1.0000
  C   C769      1.0  0.76598  0.39068  0.07091  1.0000
  H   H926      1.0  0.64837  0.27955  0.03750  1.0000
  C   C770      1.0  0.54741  0.33457  0.07361  1.0000
  H   H927      1.0  0.51546  0.29632  0.08797  1.0000
  H   H928      1.0  0.76945  0.25400  0.22108  1.0000
  C   C771      1.0  0.51501  0.30537  0.10528  1.0000
  H   H929      1.0  0.92585  0.45313  0.19924  1.0000
  Fe  Fe104     1.0  0.54110  0.41702  0.06975  1.0000
  C   C772      1.0  0.54343  0.42262  0.14089  1.0000
  Fe  Fe105     1.0  0.75243  0.25669  0.14746  1.0000
  S   S208      1.0  0.74857  0.48234  0.11208  1.0000
  H   H930      1.0  0.81575  0.29680  0.10709  1.0000
  H   H931      1.0  0.83062  0.33529  0.09271  1.0000
  Fe  Fe106     1.0  0.57794  0.42575  0.01342  1.0000
  H   H932      1.0  0.85594  0.25197  0.13273  1.0000
  H   H933      1.0  0.77376  0.41894  0.08729  1.0000
  S   S209      1.0  0.85892  0.24177  0.99602  1.0000
  H   H934      1.0  0.49859  0.31452  0.02086  1.0000
  H   H935      1.0  0.90241  0.24743  0.22837  1.0000
  H   H936      1.0  0.50323  0.31410  0.10094  1.0000
  H   H937      1.0  0.61556  0.25240  0.03614  1.0000
  Fe  Fe107     1.0  0.86372  0.42780  0.98134  1.0000
  C   C773      1.0  0.97653  0.45715  0.27086  1.0000
  H   H938      1.0  0.86969  0.25971  0.24053  1.0000
  H   H939      1.0  0.48786  0.35744  0.07235  1.0000
  H   H940      1.0  0.97924  0.34225  0.29084  1.0000
  C   C774      1.0  0.95942  0.43795  0.28594  1.0000
  C   C775      1.0  0.58300  0.47871  0.98079  1.0000
  H   H941      1.0  0.50838  0.48658  0.06027  1.0000
  H   H942      1.0  0.69745  0.48221  0.02195  1.0000
  C   C776      1.0  0.52339  0.24246  0.08514  1.0000
  C   C777      1.0  0.81632  0.23925  0.17854  1.0000
  H   H943      1.0  0.83813  0.25128  0.21676  1.0000
  H   H944      1.0  0.82493  0.25659  0.17271  1.0000
  C   C778      1.0  0.53780  0.23948  0.06110  1.0000
  H   H945      1.0  0.52392  0.24078  0.99229  1.0000
  C   C779      1.0  0.97401  0.34112  0.24742  1.0000
  C   C780      1.0  0.96235  0.45585  0.22604  1.0000
  H   H946      1.0  0.96415  0.46347  0.20290  1.0000
  H   H947      1.0  0.83971  0.27582  0.98574  1.0000
  C   C781      1.0  0.82749  0.31013  0.98388  1.0000
  S   S210      1.0  0.59564  0.48820  0.24411  1.0000
  C   C782      1.0  0.64509  0.48793  0.09655  1.0000
  C   C783      1.0  0.66624  0.48749  0.17320  1.0000
  C   C784      1.0  0.68120  0.48680  0.21765  1.0000
  H   H948      1.0  0.94606  0.37157  0.98083  1.0000
  H   H949      1.0  0.80528  0.28013  0.97987  1.0000
  H   H950      1.0  0.84602  0.34338  0.97980  1.0000
  H   H951      1.0  0.93101  0.23938  0.68390  1.0000
  C   C785      1.0  0.90017  0.34118  0.94419  1.0000
  C   C786      1.0  0.91362  0.33118  0.95770  1.0000
  C   C787      1.0  0.91890  0.37255  0.95886  1.0000
  S   S211      1.0  0.96968  0.24808  0.97454  1.0000
  H   H952      1.0  0.93942  0.35538  0.88297  1.0000
  H   H953      1.0  0.88748  0.33286  0.93371  1.0000
  H   H954      1.0  0.80208  0.33333  0.92028  1.0000
  C   C788      1.0  0.94741  0.32712  0.88578  1.0000
  C   C789      1.0  0.93011  0.34213  0.97103  1.0000
  C   C790      1.0  0.97850  0.32483  0.91026  1.0000
  H   H955      1.0  0.91154  0.31518  0.95733  1.0000
  S   S212      1.0  0.92529  0.27416  0.97239  1.0000
  C   C791      1.0  0.80900  0.32689  0.93792  1.0000
  H   H956      1.0  0.78940  0.29492  0.94081  1.0000
  C   C792      1.0  0.83392  0.33207  0.97203  1.0000
  C   C793      1.0  0.90240  0.36169  0.94555  1.0000
  C   C794      1.0  0.80197  0.30529  0.94941  1.0000
  S   S213      1.0  0.88323  0.37307  0.93324  1.0000
  C   C795      1.0  0.82491  0.34023  0.94925  1.0000
  H   H957      1.0  0.83055  0.35706  0.94019  1.0000
  C   C796      1.0  0.93314  0.36297  0.97086  1.0000
  H   H958      1.0  0.95766  0.30065  0.89197  1.0000
  S   S214      1.0  0.89753  0.42376  0.96488  1.0000
  H   H959      1.0  0.66925  0.48413  0.97071  1.0000
  H   H960      1.0  0.92075  0.38844  0.95982  1.0000
  Fe  Fe108     1.0  0.87540  0.39128  0.96609  1.0000
  C   C797      1.0  0.60324  0.47537  0.96904  1.0000
  H   H961      1.0  0.86461  0.29920  0.97210  1.0000
  H   H962      1.0  0.93405  0.32010  0.87513  1.0000
  H   H963      1.0  0.97069  0.28203  0.92649  1.0000
  C   C798      1.0  0.96116  0.31608  0.89568  1.0000
  S   S215      1.0  0.84167  0.39635  0.97809  1.0000
  C   C799      1.0  0.81111  0.29698  0.97194  1.0000
  H   H964      1.0  0.92804  0.25748  0.91393  1.0000
  S   S216      1.0  0.85375  0.45553  0.96497  1.0000
  H   H965      1.0  0.81351  0.46700  0.97689  1.0000
  H   H966      1.0  0.96901  0.23927  0.82052  1.0000
  H   H967      1.0  0.97112  0.30234  0.96582  1.0000
  C   C800      1.0  0.96728  0.35605  0.90413  1.0000
  C   C801      1.0  0.95048  0.34706  0.88998  1.0000
  C   C802      1.0  0.92400  0.24080  0.91681  1.0000
  H   H968      1.0  0.95242  0.24441  0.88046  1.0000
  H   H969      1.0  0.96906  0.37127  0.90830  1.0000
  S   S217      1.0  0.60458  0.45010  0.97432  1.0000
  C   C803      1.0  0.55769  0.69895  0.37185  1.0000
  S   S218      1.0  0.57293  0.60802  0.34156  1.0000
  C   C804      1.0  0.61280  0.56361  0.07561  1.0000
  Fe  Fe109     1.0  0.55797  0.63194  0.32506  1.0000
  S   S219      1.0  0.52222  0.62361  0.31857  1.0000
  H   H970      1.0  0.53161  0.57073  0.35759  1.0000
  H   H971      1.0  0.76986  0.50979  0.16460  1.0000
  C   C805      1.0  0.53626  0.56567  0.41509  1.0000
  C   C806      1.0  0.55318  0.53175  0.02502  1.0000
  H   H972      1.0  0.63430  0.55469  0.13683  1.0000
  H   H973      1.0  0.63326  0.68385  0.36331  1.0000
  H   H974      1.0  0.59535  0.62457  0.18533  1.0000
  Fe  Fe110     1.0  0.60510  0.62891  0.30698  1.0000
  S   S220      1.0  0.58690  0.54409  0.13276  1.0000
  H   H975      1.0  0.61028  0.51498  0.02061  1.0000
  H   H976      1.0  0.67112  0.57344  0.09776  1.0000
  H   H977      1.0  0.74807  0.58146  0.09291  1.0000
  C   C807      1.0  0.57387  0.62987  0.22116  1.0000
  C   C808      1.0  0.57097  0.52642  0.03467  1.0000
  S   S221      1.0  0.62567  0.61512  0.27813  1.0000
  C   C809      1.0  0.60510  0.55605  0.26821  1.0000
  H   H978      1.0  0.55541  0.70405  0.25690  1.0000
  H   H979      1.0  0.57949  0.57614  0.39419  1.0000
  S   S222      1.0  0.61057  0.53669  0.20374  1.0000
  C   C810      1.0  0.66925  0.51155  0.03820  1.0000
  H   H980      1.0  0.54588  0.56283  0.43240  1.0000
  H   H981      1.0  0.64054  0.66255  0.40079  1.0000
  H   H982      1.0  0.73507  0.56156  0.07495  1.0000
  H   H983      1.0  0.50470  0.61056  0.46953  1.0000
  H   H984      1.0  0.68708  0.50427  0.98298  1.0000
  C   C811      1.0  0.73181  0.53142  0.02308  1.0000
  N   N55       1.0  0.50146  0.68260  0.34683  1.0000
  H   H985      1.0  0.67577  0.72120  0.39231  1.0000
  H   H986      1.0  0.70405  0.57664  0.13433  1.0000
  C   C812      1.0  0.54135  0.69006  0.35684  1.0000
  S   S223      1.0  0.61309  0.70287  0.31514  1.0000
  H   H987      1.0  0.66233  0.73604  0.37041  1.0000
  C   C813      1.0  0.65461  0.57693  0.06143  1.0000
  C   C814      1.0  0.66625  0.52148  0.06130  1.0000
  C   C815      1.0  0.55431  0.62142  0.24507  1.0000
  S   S224      1.0  0.58186  0.61136  0.41892  1.0000
  H   H988      1.0  0.52366  0.67967  0.30810  1.0000
  H   H989      1.0  0.63102  0.70742  0.45122  1.0000
  H   H990      1.0  0.58527  0.51708  0.09690  1.0000
  C   C816      1.0  0.57236  0.59010  0.16006  1.0000
  C   C817      1.0  0.61304  0.55678  0.10562  1.0000
  H   H991      1.0  0.50533  0.65088  0.42652  1.0000
  H   H992      1.0  0.74195  0.50768  0.00679  1.0000
  H   H993      1.0  0.65721  0.49377  0.15838  1.0000
  H   H994      1.0  0.76207  0.55252  0.09255  1.0000
  H   H995      1.0  0.52600  0.59383  0.27081  1.0000
  H   H996      1.0  0.54521  0.58201  0.40105  1.0000
  C   C818      1.0  0.72020  0.55390  0.98765  1.0000
  C   C819      1.0  0.58376  0.50108  0.09486  1.0000
  C   C820      1.0  0.50282  0.61325  0.35400  1.0000
  C   C821      1.0  0.51018  0.60602  0.37915  1.0000
  H   H997      1.0  0.51424  0.67302  0.47633  1.0000
  C   C822      1.0  0.73594  0.52059  0.00149  1.0000
  H   H998      1.0  0.67365  0.53843  0.05649  1.0000
  H   H999      1.0  0.49310  0.71074  0.34092  1.0000
  H   H1000     1.0  0.52776  0.60655  0.37668  1.0000
  C   C823      1.0  0.55963  0.55993  0.20196  1.0000
  C   C824      1.0  0.57829  0.56444  0.38164  1.0000
  C   C825      1.0  0.49470  0.59795  0.40759  1.0000
  C   C826      1.0  0.60847  0.59030  0.27646  1.0000
  C   C827      1.0  0.58442  0.58428  0.28380  1.0000
  C   C828      1.0  0.57072  0.56400  0.28428  1.0000
  H   H1001     1.0  0.57635  0.59535  0.28867  1.0000
  H   H1002     1.0  0.55213  0.55933  0.29045  1.0000
  H   H1003     1.0  0.72048  0.57845  0.08472  1.0000
  C   C829      1.0  0.69875  0.53927  0.11981  1.0000
  C   C830      1.0  0.59920  0.56445  0.36534  1.0000
  H   H1004     1.0  0.68783  0.54698  0.10947  1.0000
  S   S225      1.0  0.60763  0.49884  0.16946  1.0000
  H   H1005     1.0  0.52623  0.71858  0.41711  1.0000
  C   C831      1.0  0.56606  0.71212  0.26992  1.0000
  C   C832      1.0  0.55682  0.55017  0.38068  1.0000
  H   H1006     1.0  0.52918  0.63178  0.44455  1.0000
  H   H1007     1.0  0.66334  0.69373  0.36408  1.0000
  H   H1008     1.0  0.57675  0.58028  0.14523  1.0000
  H   H1009     1.0  0.60462  0.69357  0.39416  1.0000
  C   C833      1.0  0.65927  0.72383  0.39141  1.0000
  H   H1010     1.0  0.58432  0.60642  0.14930  1.0000
  H   H1011     1.0  0.57872  0.67233  0.45629  1.0000
  H   H1012     1.0  0.56519  0.71646  0.40440  1.0000
  H   H1013     1.0  0.56020  0.55321  0.22527  1.0000
  H   H1014     1.0  0.51701  0.52152  0.02628  1.0000
  C   C834      1.0  0.57876  0.53541  0.34766  1.0000
  S   S226      1.0  0.66103  0.51593  0.20500  1.0000
  C   C835      1.0  0.57695  0.65605  0.46207  1.0000
  C   C836      1.0  0.59944  0.54997  0.34839  1.0000
  H   H1015     1.0  0.48337  0.65459  0.45281  1.0000
  H   H1016     1.0  0.58793  0.53833  0.02693  1.0000
  H   H1017     1.0  0.61532  0.57601  0.36545  1.0000
  H   H1018     1.0  0.54223  0.52463  0.36057  1.0000
  H   H1019     1.0  0.57491  0.69843  0.36591  1.0000
  H   H1020     1.0  0.61352  0.52986  0.04850  1.0000
  H   H1021     1.0  0.53408  0.66891  0.44729  1.0000
  H   H1022     1.0  0.72122  0.55686  0.03229  1.0000
  C   C837      1.0  0.58072  0.70333  0.28254  1.0000
  H   H1023     1.0  0.53016  0.52446  0.43315  1.0000
  H   H1024     1.0  0.67937  0.52147  0.01641  1.0000
  C   C838      1.0  0.63794  0.66776  0.42109  1.0000
  C   C839      1.0  0.71354  0.56678  0.14361  1.0000
  Fe  Fe111     1.0  0.59127  0.52320  0.17215  1.0000
  C   C840      1.0  0.76037  0.51940  0.15638  1.0000
  C   C841      1.0  0.51879  0.69095  0.36340  1.0000
  N   N56       1.0  0.72005  0.55474  0.12253  1.0000
  H   H1025     1.0  0.68804  0.52895  0.14207  1.0000
  H   H1026     1.0  0.58139  0.68866  0.27891  1.0000
  C   C842      1.0  0.63406  0.55993  0.11362  1.0000
  C   C843      1.0  0.54105  0.60026  0.25188  1.0000
  C   C844      1.0  0.65486  0.57042  0.09156  1.0000
  H   H1027     1.0  0.63326  0.57834  0.03027  1.0000
  N   N57       1.0  0.64073  0.70404  0.39297  1.0000
  H   H1028     1.0  0.60389  0.57441  0.17604  1.0000
  H   H1029     1.0  0.54138  0.55719  0.20124  1.0000
  H   H1030     1.0  0.60041  0.57878  0.21321  1.0000
  H   H1031     1.0  0.61565  0.55029  0.33531  1.0000
  H   H1032     1.0  0.48416  0.69495  0.31589  1.0000
  C   C845      1.0  0.63357  0.57331  0.05344  1.0000
  C   C846      1.0  0.65961  0.48946  0.04340  1.0000
  C   C847      1.0  0.59831  0.58411  0.19019  1.0000
  H   H1033     1.0  0.54945  0.63129  0.25846  1.0000
  H   H1034     1.0  0.51908  0.56506  0.42725  1.0000
  C   C848      1.0  0.62996  0.65803  0.47550  1.0000
  H   H1035     1.0  0.70285  0.52895  0.10573  1.0000
  C   C849      1.0  0.73461  0.54341  0.13407  1.0000
  C   C850      1.0  0.75550  0.54383  0.11588  1.0000
  C   C851      1.0  0.72728  0.53041  0.16386  1.0000
  C   C852      1.0  0.54724  0.58739  0.23474  1.0000
  C   C853      1.0  0.73999  0.51862  0.17476  1.0000
  C   C854      1.0  0.60881  0.51382  0.04502  1.0000
  C   C855      1.0  0.53029  0.71030  0.40057  1.0000
  Fe  Fe112     1.0  0.58560  0.62821  0.37149  1.0000
  C   C856      1.0  0.51379  0.70148  0.38567  1.0000
  Fe  Fe113     1.0  0.73362  0.49061  0.07348  1.0000
  C   C857      1.0  0.57957  0.64573  0.43918  1.0000
  S   S227      1.0  0.61933  0.64737  0.33839  1.0000
  C   C858      1.0  0.55223  0.70912  0.39353  1.0000
  H   H1036     1.0  0.71129  0.52879  0.17875  1.0000
  H   H1037     1.0  0.58323  0.65405  0.41588  1.0000
  C   C859      1.0  0.52142  0.55543  0.37414  1.0000
  H   H1038     1.0  0.59654  0.56114  0.06941  1.0000
  H   H1039     1.0  0.61317  0.54507  0.26267  1.0000
  S   S228      1.0  0.56750  0.65031  0.35834  1.0000
  Fe  Fe114     1.0  0.62403  0.51029  0.20488  1.0000
  N   N58       1.0  0.53427  0.55027  0.39653  1.0000
  S   S229      1.0  0.58906  0.65135  0.28766  1.0000
  H   H1040     1.0  0.65732  0.50158  0.98590  1.0000
  S   S230      1.0  0.68056  0.58927  0.03374  1.0000
  Fe  Fe115     1.0  0.58047  0.51364  0.23974  1.0000
  S   S231      1.0  0.66247  0.55211  0.98443  1.0000
  H   H1041     1.0  0.78360  0.53205  0.11243  1.0000
  C   C860      1.0  0.58104  0.54991  0.27633  1.0000
  C   C861      1.0  0.61881  0.57624  0.26830  1.0000
  S   S232      1.0  0.73442  0.52358  0.05975  1.0000
  C   C862      1.0  0.56682  0.50618  0.05298  1.0000
  H   H1042     1.0  0.49737  0.70366  0.39098  1.0000
  H   H1043     1.0  0.72908  0.57719  0.14854  1.0000
  H   H1044     1.0  0.56573  0.55050  0.18781  1.0000
  C   C863      1.0  0.56716  0.59550  0.21017  1.0000
  C   C864      1.0  0.72455  0.54843  0.01579  1.0000
  H   H1045     1.0  0.55702  0.54703  0.01017  1.0000
  N   N59       1.0  0.57410  0.58252  0.19114  1.0000
  C   C865      1.0  0.59469  0.71376  0.29921  1.0000
  H   H1046     1.0  0.54703  0.68303  0.33964  1.0000
  S   S233      1.0  0.56364  0.52469  0.27665  1.0000
  H   H1047     1.0  0.50475  0.55659  0.38499  1.0000
  Fe  Fe116     1.0  0.60006  0.66799  0.32231  1.0000
  S   S234      1.0  0.56774  0.70715  0.46756  1.0000
  H   H1048     1.0  0.63741  0.58083  0.26259  1.0000
  H   H1049     1.0  0.65156  0.51742  0.10820  1.0000
  C   C866      1.0  0.50838  0.67001  0.32697  1.0000
  H   H1050     1.0  0.68386  0.49268  0.23712  1.0000
  H   H1051     1.0  0.51404  0.71034  0.31031  1.0000
  H   H1052     1.0  0.57900  0.52433  0.33408  1.0000
  S   S235      1.0  0.55989  0.50204  0.20787  1.0000
  C   C867      1.0  0.73153  0.56975  0.09254  1.0000
  H   H1053     1.0  0.51241  0.65698  0.33986  1.0000
  H   H1054     1.0  0.51604  0.51698  0.40461  1.0000
  H   H1055     1.0  0.50033  0.59222  0.42701  1.0000
  C   C868      1.0  0.49794  0.70036  0.32770  1.0000
  C   C869      1.0  0.65396  0.50969  0.09037  1.0000
  C   C870      1.0  0.55774  0.53567  0.36309  1.0000
  C   C871      1.0  0.57364  0.61411  0.47671  1.0000
  C   C872      1.0  0.64733  0.69757  0.36513  1.0000
  H   H1056     1.0  0.56725  0.50179  0.98683  1.0000
  C   C873      1.0  0.58016  0.61720  0.20379  1.0000
  C   C874      1.0  0.61895  0.70818  0.39276  1.0000
  H   H1057     1.0  0.53631  0.57110  0.24150  1.0000
  C   C875      1.0  0.63738  0.68813  0.42096  1.0000
  C   C876      1.0  0.63261  0.69258  0.44940  1.0000
  C   C877      1.0  0.66963  0.49508  0.19841  1.0000
  H   H1058     1.0  0.55454  0.58968  0.15984  1.0000
  C   C878      1.0  0.52050  0.52928  0.41696  1.0000
  H   H1059     1.0  0.61082  0.60027  0.18034  1.0000
  H   H1060     1.0  0.58427  0.64631  0.21621  1.0000
  C   C879      1.0  0.76813  0.53202  0.12704  1.0000
  H   H1061     1.0  0.51736  0.54354  0.36102  1.0000
  H   H1062     1.0  0.62230  0.50789  0.05116  1.0000
  C   C880      1.0  0.57806  0.62476  0.44658  1.0000
  H   H1063     1.0  0.49445  0.66281  0.31629  1.0000
  H   H1064     1.0  0.61357  0.71441  0.41196  1.0000
  C   C881      1.0  0.62908  0.67775  0.47618  1.0000
  C   C882      1.0  0.49318  0.64397  0.44921  1.0000
  H   H1065     1.0  0.70172  0.55648  0.16542  1.0000
  H   H1066     1.0  0.73366  0.50839  0.19735  1.0000
  N   N60       1.0  0.58536  0.50002  0.06327  1.0000
  C   C883      1.0  0.63431  0.65303  0.44805  1.0000
  H   H1067     1.0  0.63409  0.63738  0.44771  1.0000
  C   C884      1.0  0.53071  0.51740  0.03397  1.0000
  H   H1068     1.0  0.50382  0.52904  0.43023  1.0000
  H   H1069     1.0  0.48537  0.70537  0.44600  1.0000
  H   H1070     1.0  0.56687  0.49035  0.10995  1.0000
  C   C885      1.0  0.51738  0.62633  0.46749  1.0000
  Fe  Fe117     1.0  0.67415  0.58487  0.98926  1.0000
  H   H1071     1.0  0.65504  0.73087  0.41012  1.0000
  H   H1072     1.0  0.48128  0.65560  0.38347  1.0000
  C   C886      1.0  0.52278  0.66188  0.47049  1.0000
  Fe  Fe118     1.0  0.59776  0.73391  0.46921  1.0000
  H   H1073     1.0  0.65059  0.71017  0.34449  1.0000
  C   C887      1.0  0.59388  0.73299  0.30331  1.0000
  H   H1074     1.0  0.59753  0.49693  0.10374  1.0000
  C   C888      1.0  0.52589  0.49775  0.05296  1.0000
  C   C889      1.0  0.54358  0.49229  0.06260  1.0000
  H   H1075     1.0  0.62058  0.71989  0.37182  1.0000
  H   H1076     1.0  0.48110  0.62876  0.44813  1.0000
  N   N61       1.0  0.50542  0.64112  0.47326  1.0000
  H   H1077     1.0  0.71363  0.56643  0.98294  1.0000
  H   H1078     1.0  0.61732  0.72929  0.22242  1.0000
  C   C890      1.0  0.56489  0.73111  0.27459  1.0000
  C   C891      1.0  0.66930  0.49281  0.98853  1.0000
  H   H1079     1.0  0.64844  0.72837  0.24780  1.0000
  C   C892      1.0  0.59604  0.59139  0.87444  1.0000
  H   H1080     1.0  0.65487  0.63493  0.93659  1.0000
  H   H1081     1.0  0.71019  0.72052  0.90097  1.0000
  C   C893      1.0  0.63946  0.66362  0.84543  1.0000
  C   C894      1.0  0.49038  0.70047  0.49092  1.0000
  H   H1082     1.0  0.63862  0.60600  0.90997  1.0000
  S   S236      1.0  0.71382  0.54724  0.93355  1.0000
  C   C895      1.0  0.57248  0.64529  0.49229  1.0000
  H   H1083     1.0  0.59422  0.57460  0.87713  1.0000
  H   H1084     1.0  0.68420  0.71113  0.73391  1.0000
  S   S237      1.0  0.67028  0.72898  0.82405  1.0000
  H   H1085     1.0  0.73210  0.65308  0.88990  1.0000
  H   H1086     1.0  0.62956  0.73540  0.54911  1.0000
  H   H1087     1.0  0.69711  0.72570  0.75850  1.0000
  S   S238      1.0  0.66703  0.57240  0.91311  1.0000
  H   H1088     1.0  0.73466  0.51770  0.95648  1.0000
  C   C896      1.0  0.60749  0.65317  0.88878  1.0000
  S   S239      1.0  0.68729  0.63235  0.88593  1.0000
  H   H1089     1.0  0.56735  0.61593  0.52276  1.0000
  C   C897      1.0  0.60571  0.63224  0.89211  1.0000
  C   C898      1.0  0.68453  0.72443  0.74415  1.0000
  H   H1090     1.0  0.65092  0.64003  0.83308  1.0000
  H   H1091     1.0  0.62778  0.73764  0.65408  1.0000
  H   H1092     1.0  0.58184  0.59161  0.89214  1.0000
  H   H1093     1.0  0.63896  0.52608  0.94000  1.0000
  C   C899      1.0  0.62316  0.49251  0.95361  1.0000
  H   H1094     1.0  0.65297  0.67597  0.82791  1.0000
  C   C900      1.0  0.74391  0.72701  0.87310  1.0000
  C   C901      1.0  0.63672  0.60063  0.85471  1.0000
  S   S240      1.0  0.65387  0.70607  0.91080  1.0000
  C   C902      1.0  0.62328  0.51297  0.95128  1.0000
  C   C903      1.0  0.74160  0.68791  0.90811  1.0000
  H   H1095     1.0  0.65453  0.60920  0.85614  1.0000
  H   H1096     1.0  0.71473  0.66374  0.96510  1.0000
  H   H1097     1.0  0.76208  0.66070  0.88944  1.0000
  H   H1098     1.0  0.62142  0.57971  0.91107  1.0000
  H   H1099     1.0  0.49280  0.62358  0.57793  1.0000
  H   H1100     1.0  0.62607  0.68511  0.86350  1.0000
  C   C904      1.0  0.63805  0.64277  0.84874  1.0000
  C   C905      1.0  0.62103  0.62637  0.87229  1.0000
  Fe  Fe119     1.0  0.54643  0.72025  0.49641  1.0000
  C   C906      1.0  0.76134  0.70081  0.88466  1.0000
  Fe  Fe120     1.0  0.67736  0.60362  0.92393  1.0000
  C   C907      1.0  0.67788  0.65264  0.89342  1.0000
  C   C908      1.0  0.66185  0.64980  0.92011  1.0000
  C   C909      1.0  0.65464  0.66631  0.92549  1.0000
  C   C910      1.0  0.66344  0.68569  0.90418  1.0000
  C   C911      1.0  0.67971  0.68859  0.87769  1.0000
  C   C912      1.0  0.68689  0.67209  0.87230  1.0000
  Fe  Fe121     1.0  0.69024  0.56521  0.94160  1.0000
  H   H1101     1.0  0.77737  0.72938  0.84916  1.0000
  H   H1102     1.0  0.68712  0.70364  0.86151  1.0000
  H   H1103     1.0  0.69953  0.67448  0.85178  1.0000
  Fe  Fe122     1.0  0.57213  0.69103  0.51104  1.0000
  H   H1104     1.0  0.62480  0.68125  0.49770  1.0000
  S   S241      1.0  0.64905  0.59409  0.96604  1.0000
  H   H1105     1.0  0.63494  0.58379  0.85899  1.0000
  H   H1106     1.0  0.48997  0.69187  0.53785  1.0000
  H   H1107     1.0  0.59248  0.62072  0.91071  1.0000
  Fe  Fe123     1.0  0.64041  0.56238  0.95679  1.0000
  H   H1108     1.0  0.71825  0.63990  0.96057  1.0000
  H   H1109     1.0  0.71667  0.73646  0.69305  1.0000
  N   N62       1.0  0.61908  0.60412  0.87682  1.0000
  C   C913      1.0  0.72329  0.69577  0.91378  1.0000
  S   S242      1.0  0.60451  0.71662  0.51007  1.0000
  C   C914      1.0  0.76235  0.71999  0.86737  1.0000
  S   S243      1.0  0.54856  0.70220  0.54026  1.0000
  H   H1110     1.0  0.77604  0.69601  0.87921  1.0000
  S   S244      1.0  0.70340  0.59754  0.94798  1.0000
  C   C915      1.0  0.49936  0.63161  0.52959  1.0000
  C   C916      1.0  0.48999  0.63283  0.50399  1.0000
  S   S245      1.0  0.56854  0.65715  0.52191  1.0000
  H   H1111     1.0  0.59300  0.59725  0.85219  1.0000
  H   H1112     1.0  0.60805  0.59620  0.92558  1.0000
  H   H1113     1.0  0.59610  0.65742  0.90469  1.0000
  H   H1114     1.0  0.64208  0.66403  0.94604  1.0000
  H   H1115     1.0  0.51778  0.63644  0.52730  1.0000
  C   C917      1.0  0.62185  0.59619  0.90717  1.0000
  H   H1116     1.0  0.63527  0.60558  0.83127  1.0000
  H   H1117     1.0  0.66723  0.72029  0.75950  1.0000
  Fe  Fe124     1.0  0.66745  0.73365  0.87049  1.0000
  C   C918      1.0  0.72462  0.71510  0.89658  1.0000
  H   H1118     1.0  0.70741  0.68711  0.93081  1.0000
  C   C919      1.0  0.72343  0.54266  0.96637  1.0000
  H   H1119     1.0  0.63868  0.48997  0.94387  1.0000
  C   C920      1.0  0.63419  0.73814  0.69782  1.0000
  C   C921      1.0  0.48111  0.68819  0.52059  1.0000
  C   C922      1.0  0.62432  0.66882  0.86548  1.0000
  C   C923      1.0  0.60316  0.51638  0.96325  1.0000
  S   S246      1.0  0.60389  0.54202  0.96216  1.0000
  N   N63       1.0  0.74073  0.66735  0.92542  1.0000
  C   C924      1.0  0.71841  0.65526  0.94791  1.0000
  C   C925      1.0  0.74444  0.65431  0.90451  1.0000
  H   H1120     1.0  0.61689  0.73722  0.70791  1.0000
  C   C926      1.0  0.75916  0.67055  0.94188  1.0000
  H   H1121     1.0  0.75720  0.68067  0.95735  1.0000
  Fe  Fe125     1.0  0.58083  0.72955  0.53546  1.0000
  H   H1122     1.0  0.70386  0.65168  0.93687  1.0000
  H   H1123     1.0  0.74199  0.63809  0.91673  1.0000
  C   C927      1.0  0.48517  0.62400  0.55881  1.0000
  S   S247      1.0  0.51516  0.72315  0.48144  1.0000
  H   H1124     1.0  0.75875  0.65541  0.95563  1.0000
  C   C928      1.0  0.57078  0.62431  0.49947  1.0000
  H   H1125     1.0  0.77667  0.67814  0.92643  1.0000
  H   H1126     1.0  0.62642  0.64636  0.49638  1.0000
  C   C929      1.0  0.73203  0.52639  0.97293  1.0000
  H   H1127     1.0  0.57250  0.59792  0.48250  1.0000
  H   H1128     1.0  0.53450  0.66107  0.48551  1.0000
  C   C930      1.0  0.58288  0.49924  0.97758  1.0000
  H   H1129     1.0  0.52793  0.62424  0.48380  1.0000
  H   H1130     1.0  0.53019  0.78019  0.47150  1.0000
  H   H1131     1.0  0.65789  0.81823  0.21927  1.0000
  H   H1132     1.0  0.63333  0.79762  0.43782  1.0000
  H   H1133     1.0  0.60468  0.74121  0.31605  1.0000
  C   C931      1.0  0.64803  0.77690  0.25076  1.0000
  C   C932      1.0  0.59356  0.76065  0.40287  1.0000
  C   C933      1.0  0.49345  0.84443  0.35795  1.0000
  H   H1134     1.0  0.63464  0.80768  0.27080  1.0000
  C   C934      1.0  0.61917  0.76020  0.22629  1.0000
  H   H1135     1.0  0.50712  0.81817  0.44065  1.0000
  H   H1136     1.0  0.56788  0.86171  0.37696  1.0000
  C   C935      1.0  0.60142  0.79360  0.22296  1.0000
  C   C936      1.0  0.52312  0.82066  0.42496  1.0000
  Fe  Fe126     1.0  0.50741  0.76115  0.34755  1.0000
  C   C937      1.0  0.61869  0.80193  0.26304  1.0000
  C   C938      1.0  0.65472  0.75931  0.25443  1.0000
  H   H1137     1.0  0.60649  0.78821  0.28111  1.0000
  Fe  Fe127     1.0  0.52223  0.79901  0.29571  1.0000
  H   H1138     1.0  0.61118  0.81458  0.26215  1.0000
  C   C939      1.0  0.56489  0.82937  0.38388  1.0000
  C   C940      1.0  0.55126  0.80860  0.39876  1.0000
  H   H1139     1.0  0.57835  0.75636  0.29438  1.0000
  H   H1140     1.0  0.66659  0.81066  0.45159  1.0000
  H   H1141     1.0  0.64536  0.81084  0.18950  1.0000
  N   N64       1.0  0.62280  0.79647  0.23375  1.0000
  H   H1142     1.0  0.52432  0.76830  0.39862  1.0000
  H   H1143     1.0  0.55785  0.79678  0.39323  1.0000
  H   H1144     1.0  0.60371  0.79127  0.19983  1.0000
  H   H1145     1.0  0.58676  0.77992  0.23825  1.0000
  C   C941      1.0  0.62076  0.80195  0.45161  1.0000
  S   S248      1.0  0.52615  0.79507  0.34293  1.0000
  C   C942      1.0  0.64159  0.81437  0.21176  1.0000
  C   C943      1.0  0.53675  0.84134  0.40977  1.0000
  H   H1146     1.0  0.60493  0.75916  0.21590  1.0000
  C   C944      1.0  0.55755  0.84569  0.38913  1.0000
  H   H1147     1.0  0.58101  0.83276  0.36760  1.0000
  C   C945      1.0  0.52959  0.80358  0.41926  1.0000
  Fe  Fe128     1.0  0.55825  0.78911  0.32573  1.0000
  S   S249      1.0  0.59309  0.80470  0.33290  1.0000
  H   H1148     1.0  0.59595  0.80749  0.22194  1.0000
  S   S250      1.0  0.55634  0.79627  0.27772  1.0000
  N   N65       1.0  0.51421  0.78177  0.43446  1.0000
  H   H1149     1.0  0.63700  0.82878  0.20831  1.0000
  S   S251      1.0  0.50885  0.82495  0.28328  1.0000
  C   C946      1.0  0.62972  0.77773  0.23710  1.0000
  H   H1150     1.0  0.51360  0.85886  0.31212  1.0000
  H   H1151     1.0  0.49881  0.85871  0.36520  1.0000
  C   C947      1.0  0.61712  0.76633  0.40183  1.0000
  C   C948      1.0  0.49549  0.82592  0.31892  1.0000
  C   C949      1.0  0.58604  0.77174  0.38084  1.0000
  C   C950      1.0  0.60200  0.78912  0.35874  1.0000
  C   C951      1.0  0.62549  0.79486  0.35796  1.0000
  C   C952      1.0  0.63308  0.78325  0.37915  1.0000
  H   H1152     1.0  0.53847  0.76548  0.42906  1.0000
  H   H1153     1.0  0.56790  0.76717  0.38141  1.0000
  H   H1154     1.0  0.63783  0.80834  0.34096  1.0000
  H   H1155     1.0  0.65128  0.78775  0.37842  1.0000
  C   C953      1.0  0.64372  0.74226  0.24411  1.0000
  C   C954      1.0  0.50163  0.84457  0.32792  1.0000
  Fe  Fe129     1.0  0.53651  0.76189  0.28856  1.0000
  S   S252      1.0  0.50192  0.76530  0.30108  1.0000
  C   C955      1.0  0.52211  0.76579  0.42328  1.0000
  H   H1156     1.0  0.50922  0.74972  0.43332  1.0000
  C   C956      1.0  0.49069  0.77852  0.42984  1.0000
  H   H1157     1.0  0.65720  0.78976  0.25896  1.0000
  C   C957      1.0  0.48042  0.80732  0.33962  1.0000
  H   H1158     1.0  0.53081  0.85399  0.41359  1.0000
  S   S253      1.0  0.54006  0.75452  0.33592  1.0000
  H   H1159     1.0  0.66827  0.75873  0.26570  1.0000
  S   S254      1.0  0.62689  0.75291  0.42921  1.0000
  C   C958      1.0  0.66332  0.81361  0.47426  1.0000
  C   C959      1.0  0.62617  0.74280  0.22982  1.0000
  H   H1160     1.0  0.58115  0.74782  0.42069  1.0000
  H   H1161     1.0  0.57298  0.81427  0.44626  1.0000
  H   H1162     1.0  0.64099  0.77408  0.47279  1.0000
  C   C960      1.0  0.51281  0.77776  0.46714  1.0000
  C   C961      1.0  0.60335  0.80589  0.43915  1.0000
  C   C962      1.0  0.57886  0.74153  0.29121  1.0000
  S   S255      1.0  0.54577  0.74165  0.25998  1.0000
  H   H1163     1.0  0.50545  0.78817  0.47763  1.0000
  H   H1164     1.0  0.48202  0.78801  0.44061  1.0000
  C   C963      1.0  0.58638  0.81112  0.45598  1.0000
  H   H1165     1.0  0.49133  0.78270  0.40542  1.0000
  H   H1166     1.0  0.66457  0.83025  0.47122  1.0000
  H   H1167     1.0  0.60300  0.80477  0.41635  1.0000
  Fe  Fe130     1.0  0.83821  0.87149  0.74552  1.0000
  S   S256      1.0  0.81656  0.85192  0.79099  1.0000
  S   S257      1.0  0.82187  0.87996  0.70803  1.0000
  Fe  Fe131     1.0  0.88313  0.87596  0.76474  1.0000
  S   S258      1.0  0.86492  0.85604  0.81147  1.0000
  Fe  Fe132     1.0  0.84204  0.83537  0.78900  1.0000
  S   S259      1.0  0.83245  0.80030  0.80047  1.0000
  Fe  Fe133     1.0  0.84135  0.87450  0.80854  1.0000
  S   S260      1.0  0.83026  0.88865  0.84512  1.0000
  S   S261      1.0  0.86245  0.85364  0.74210  1.0000
  S   S262      1.0  0.86102  0.89580  0.76324  1.0000
  Fe  Fe134     1.0  0.76454  0.93905  0.69799  1.0000
  S   S263      1.0  0.72736  0.93439  0.70111  1.0000
  S   S264      1.0  0.78891  0.94599  0.65291  1.0000
  Fe  Fe135     1.0  0.76016  0.94018  0.76328  1.0000
  S   S265      1.0  0.72255  0.93575  0.77175  1.0000
  S   S266      1.0  0.77729  0.94766  0.80025  1.0000
  Fe  Fe136     1.0  0.72076  0.91175  0.74541  1.0000
  S   S267      1.0  0.69098  0.88143  0.75715  1.0000
  Fe  Fe137     1.0  0.73255  0.95878  0.72693  1.0000
  S   S268      1.0  0.71523  0.98249  0.71966  1.0000
  S   S269      1.0  0.75769  0.91405  0.74032  1.0000
  S   S270      1.0  0.77037  0.96530  0.72052  1.0000
  H   H1168     1.0  0.79330  0.87742  0.66582  1.0000
  C   C964      1.0  0.79661  0.86012  0.70722  1.0000
  H   H1169     1.0  0.79496  0.83881  0.74811  1.0000
  C   C965      1.0  0.76892  0.82463  0.72671  1.0000
  S   S271      1.0  0.71164  0.84238  0.65893  1.0000
  H   H1170     1.0  0.75150  0.78886  0.79845  1.0000
  H   H1171     1.0  0.76156  0.84774  0.66023  1.0000
  C   C966      1.0  0.63921  0.80454  0.70971  1.0000
  C   C967      1.0  0.78746  0.84111  0.72933  1.0000
  H   H1172     1.0  0.67778  0.81173  0.48398  1.0000
  S   S272      1.0  0.69286  0.78015  0.58097  1.0000
  H   H1173     1.0  0.78773  0.82540  0.61116  1.0000
  H   H1174     1.0  0.76199  0.81000  0.74389  1.0000
  H   H1175     1.0  0.61081  0.79245  0.80518  1.0000
  H   H1176     1.0  0.85818  0.98640  0.77980  1.0000
  H   H1177     1.0  0.72727  0.75223  0.71720  1.0000
  C   C968      1.0  0.65369  0.78872  0.74918  1.0000
  C   C969      1.0  0.62424  0.84493  0.78182  1.0000
  H   H1178     1.0  0.67020  0.74990  0.55181  1.0000
  C   C970      1.0  0.69371  0.86233  0.78509  1.0000
  C   C971      1.0  0.70505  0.86780  0.80723  1.0000
  C   C972      1.0  0.70524  0.85206  0.83088  1.0000
  C   C973      1.0  0.69430  0.83091  0.83213  1.0000
  C   C974      1.0  0.68304  0.82559  0.80993  1.0000
  C   C975      1.0  0.68308  0.84126  0.78621  1.0000
  H   H1179     1.0  0.71327  0.88413  0.80641  1.0000
  H   H1180     1.0  0.71379  0.85630  0.84815  1.0000
  H   H1181     1.0  0.67372  0.80943  0.81142  1.0000
  H   H1182     1.0  0.67489  0.83708  0.76864  1.0000
  C   C976      1.0  0.80471  0.78584  0.79819  1.0000
  S   S273      1.0  0.57633  0.74881  0.49407  1.0000
  S   S274      1.0  0.73912  0.80485  0.69619  1.0000
  C   C977      1.0  0.76516  0.78237  0.79719  1.0000
  C   C978      1.0  0.78702  0.79418  0.79967  1.0000
  H   H1183     1.0  0.75039  0.78888  0.87044  1.0000
  H   H1184     1.0  0.64335  0.85055  0.77343  1.0000
  H   H1185     1.0  0.79004  0.80958  0.80320  1.0000
  C   C979      1.0  0.81537  0.90482  0.83253  1.0000
  C   C980      1.0  0.80770  0.90385  0.80625  1.0000
  C   C981      1.0  0.79562  0.91673  0.79647  1.0000
  C   C982      1.0  0.79159  0.93086  0.81260  1.0000
  C   C983      1.0  0.79938  0.93189  0.83877  1.0000
  C   C984      1.0  0.81106  0.91874  0.84890  1.0000
  H   H1186     1.0  0.81099  0.89318  0.79342  1.0000
  H   H1187     1.0  0.78985  0.91598  0.77616  1.0000
  H   H1188     1.0  0.79628  0.94280  0.85132  1.0000
  H   H1189     1.0  0.81697  0.91952  0.86922  1.0000
  H   H1190     1.0  0.64352  0.86031  0.82019  1.0000
  C   C985      1.0  0.76826  0.84604  0.67996  1.0000
  S   S275      1.0  0.64469  0.82335  0.67615  1.0000
  C   C986      1.0  0.93100  0.91127  0.82567  1.0000
  C   C987      1.0  0.92048  0.90279  0.80436  1.0000
  H   H1191     1.0  0.92042  0.91074  0.84695  1.0000
  H   H1192     1.0  0.90191  0.89603  0.80917  1.0000
  Fe  Fe138     1.0  0.67850  0.82358  0.65119  1.0000
  C   C988      1.0  0.65717  0.80460  0.72365  1.0000
  S   S276      1.0  0.69478  0.81115  0.86135  1.0000
  H   H1193     1.0  0.67385  0.81692  0.71475  1.0000
  C   C989      1.0  0.75850  0.89195  0.63211  1.0000
  C   C990      1.0  0.76673  0.90655  0.64826  1.0000
  C   C991      1.0  0.77935  0.92740  0.63298  1.0000
  H   H1194     1.0  0.85534  0.92151  0.70907  1.0000
  C   C992      1.0  0.75977  0.82680  0.70151  1.0000
  H   H1195     1.0  0.74941  0.87593  0.64401  1.0000
  H   H1196     1.0  0.76350  0.90161  0.67250  1.0000
  H   H1197     1.0  0.66758  0.78920  0.75988  1.0000
  C   C993      1.0  0.78640  0.86278  0.68305  1.0000
  N   N66       1.0  0.68671  0.89340  0.65446  1.0000
  C   C994      1.0  0.69759  0.88514  0.67721  1.0000
  C   C995      1.0  0.66145  0.88569  0.66793  1.0000
  C   C996      1.0  0.69046  0.88449  0.62821  1.0000
  C   C997      1.0  0.69731  0.91655  0.64548  1.0000
  C   C998      1.0  0.72042  0.92650  0.62801  1.0000
  C   C999      1.0  0.68605  0.92973  0.65616  1.0000
  C   C1000     1.0  0.73153  0.94817  0.62153  1.0000
  C   C1001     1.0  0.69734  0.95142  0.64955  1.0000
  C   C1002     1.0  0.72003  0.96060  0.63233  1.0000
  H   H1198     1.0  0.69636  0.89247  0.69634  1.0000
  H   H1199     1.0  0.68922  0.86789  0.68661  1.0000
  H   H1200     1.0  0.71624  0.88855  0.66791  1.0000
  H   H1201     1.0  0.65372  0.86830  0.67267  1.0000
  H   H1202     1.0  0.65242  0.89245  0.65254  1.0000
  H   H1203     1.0  0.65742  0.88928  0.69008  1.0000
  H   H1204     1.0  0.70880  0.88626  0.61980  1.0000
  H   H1205     1.0  0.68082  0.86730  0.63399  1.0000
  H   H1206     1.0  0.68485  0.89205  0.60920  1.0000
  H   H1207     1.0  0.73046  0.91754  0.62021  1.0000
  H   H1208     1.0  0.66881  0.92362  0.67050  1.0000
  H   H1209     1.0  0.74947  0.95522  0.60902  1.0000
  H   H1210     1.0  0.68879  0.96113  0.65880  1.0000
  H   H1211     1.0  0.70534  0.76541  0.74644  1.0000
  C   C1003     1.0  0.64666  0.77490  0.59723  1.0000
  C   C1004     1.0  0.82675  0.85342  0.64320  1.0000
  C   C1005     1.0  0.94462  0.95057  0.73356  1.0000
  H   H1212     1.0  0.78764  0.79675  0.65015  1.0000
  C   C1006     1.0  0.60395  0.80835  0.49809  1.0000
  C   C1007     1.0  0.65722  0.75463  0.56404  1.0000
  H   H1213     1.0  0.78213  0.77374  0.69197  1.0000
  H   H1214     1.0  0.64147  0.81862  0.52526  1.0000
  C   C1008     1.0  0.81278  0.84914  0.62343  1.0000
  H   H1215     1.0  0.82048  0.78203  0.66074  1.0000
  C   C1009     1.0  0.62177  0.80328  0.48138  1.0000
  H   H1216     1.0  0.85415  0.92526  0.67098  1.0000
  H   H1217     1.0  0.62347  0.79138  0.54093  1.0000
  C   C1010     1.0  0.66360  0.76916  0.58099  1.0000
  N   N67       1.0  0.69069  0.74417  0.72067  1.0000
  C   C1011     1.0  0.62359  0.76662  0.59569  1.0000
  C   C1012     1.0  0.63916  0.77739  0.49525  1.0000
  C   C1013     1.0  0.79885  0.82862  0.62633  1.0000
  H   H1218     1.0  0.73673  0.98184  0.84221  1.0000
  C   C1014     1.0  0.93542  0.86264  0.83540  1.0000
  H   H1219     1.0  0.69215  0.77575  0.71929  1.0000
  H   H1220     1.0  0.57320  0.81606  0.49858  1.0000
  C   C1015     1.0  0.95808  0.91197  0.77104  1.0000
  H   H1221     1.0  0.64481  0.73916  0.73844  1.0000
  N   N68       1.0  0.76139  0.83127  0.86253  1.0000
  C   C1016     1.0  0.77298  0.85413  0.85805  1.0000
  C   C1017     1.0  0.75286  0.82828  0.83537  1.0000
  C   C1018     1.0  0.74151  0.82407  0.88911  1.0000
  C   C1019     1.0  0.77650  0.81890  0.86736  1.0000
  C   C1020     1.0  0.79981  0.82804  0.86845  1.0000
  C   C1021     1.0  0.76796  0.79690  0.87100  1.0000
  C   C1022     1.0  0.81380  0.81594  0.87188  1.0000
  S   S277      1.0  0.73474  0.74804  0.78663  1.0000
  C   C1023     1.0  0.80502  0.79449  0.87469  1.0000
  H   H1222     1.0  0.77937  0.85784  0.87787  1.0000
  H   H1223     1.0  0.78775  0.86069  0.83793  1.0000
  H   H1224     1.0  0.76120  0.86299  0.85421  1.0000
  H   H1225     1.0  0.76730  0.83211  0.81533  1.0000
  H   H1226     1.0  0.74280  0.83848  0.82962  1.0000
  H   H1227     1.0  0.74123  0.81199  0.83822  1.0000
  H   H1228     1.0  0.74738  0.82532  0.91005  1.0000
  H   H1229     1.0  0.73009  0.83349  0.88679  1.0000
  H   H1230     1.0  0.73039  0.80754  0.89233  1.0000
  H   H1231     1.0  0.80784  0.84458  0.86615  1.0000
  H   H1232     1.0  0.74448  0.74160  0.85910  1.0000
  N   N69       1.0  0.64059  0.79927  0.49386  1.0000
  H   H1233     1.0  0.84521  0.79937  0.66854  1.0000
  H   H1234     1.0  0.82820  0.77481  0.69546  1.0000
  C   C1024     1.0  0.62630  0.82609  0.83138  1.0000
  C   C1025     1.0  0.63966  0.84541  0.83589  1.0000
  C   C1026     1.0  0.62298  0.80758  0.85344  1.0000
  C   C1027     1.0  0.64955  0.84596  0.86047  1.0000
  C   C1028     1.0  0.63320  0.80832  0.87770  1.0000
  C   C1029     1.0  0.64650  0.82747  0.88115  1.0000
  H   H1235     1.0  0.61943  0.85745  0.79000  1.0000
  H   H1236     1.0  0.61283  0.79232  0.85185  1.0000
  H   H1237     1.0  0.66048  0.86079  0.86275  1.0000
  H   H1238     1.0  0.63134  0.79394  0.89347  1.0000
  H   H1239     1.0  0.65508  0.82791  0.89937  1.0000
  Fe  Fe139     1.0  0.72519  0.84879  0.60916  1.0000
  C   C1030     1.0  0.77507  0.91903  0.58557  1.0000
  C   C1031     1.0  0.63241  0.77245  0.76051  1.0000
  C   C1032     1.0  0.61435  0.77241  0.74665  1.0000
  H   H1240     1.0  0.79397  0.94968  0.58966  1.0000
  C   C1033     1.0  0.93382  0.97818  0.76510  1.0000
  C   C1034     1.0  0.77898  0.75419  0.79043  1.0000
  C   C1035     1.0  0.82657  0.83728  0.66632  1.0000
  Fe  Fe140     1.0  0.70065  0.80375  0.60855  1.0000
  S   S278      1.0  0.92175  0.89129  0.75058  1.0000
  H   H1241     1.0  0.63893  0.81094  0.78636  1.0000
  H   H1242     1.0  0.97972  0.96674  0.73162  1.0000
  S   S279      1.0  0.74856  0.88082  0.58096  1.0000
  C   C1036     1.0  0.61768  0.78858  0.72137  1.0000
  C   C1037     1.0  0.85025  0.95679  0.76839  1.0000
  C   C1038     1.0  0.95510  0.92012  0.81973  1.0000
  C   C1039     1.0  0.95868  0.87162  0.83504  1.0000
  H   H1243     1.0  0.96867  0.91218  0.74999  1.0000
  C   C1040     1.0  0.85280  0.97930  0.71087  1.0000
  H   H1244     1.0  0.83700  0.86951  0.64154  1.0000
  H   H1245     1.0  0.92219  0.86408  0.85233  1.0000
  S   S280      1.0  0.73659  0.82102  0.61158  1.0000
  N   N70       1.0  0.61563  0.82487  0.80557  1.0000
  Fe  Fe141     1.0  0.72103  0.81374  0.66103  1.0000
  C   C1041     1.0  0.93408  0.90275  0.77721  1.0000
  S   S281      1.0  0.68613  0.79382  0.65845  1.0000
  S   S282      1.0  0.69076  0.83240  0.60101  1.0000
  H   H1246     1.0  0.60390  0.78831  0.71026  1.0000
  H   H1247     1.0  0.74056  0.96933  0.81211  1.0000
  C   C1042     1.0  0.85755  0.93379  0.68866  1.0000
  H   H1248     1.0  0.58610  0.83066  0.82766  1.0000
  H   H1249     1.0  0.61702  0.84329  0.76188  1.0000
  H   H1250     1.0  0.84867  0.94795  0.79092  1.0000
  H   H1251     1.0  0.87588  0.94441  0.68178  1.0000
  H   H1252     1.0  0.62228  0.76613  0.50979  1.0000
  C   C1043     1.0  0.59036  0.81895  0.81660  1.0000
  S   S283      1.0  0.69264  0.78015  0.79944  1.0000
  C   C1044     1.0  0.82239  0.80553  0.71826  1.0000
  H   H1253     1.0  0.77679  0.79047  0.71503  1.0000
  H   H1254     1.0  0.83894  0.94985  0.64755  1.0000
  H   H1255     1.0  0.81250  0.92176  0.68753  1.0000
  H   H1256     1.0  0.58264  0.80348  0.83345  1.0000
  C   C1045     1.0  0.61737  0.75276  0.57768  1.0000
  C   C1046     1.0  0.78916  0.78288  0.70743  1.0000
  H   H1257     1.0  0.81517  0.91823  0.72521  1.0000
  C   C1047     1.0  0.81771  0.93043  0.70449  1.0000
  C   C1048     1.0  0.62028  0.80873  0.79116  1.0000
  C   C1049     1.0  0.65043  0.73950  0.71506  1.0000
  C   C1050     1.0  0.63978  0.80227  0.52468  1.0000
  H   H1258     1.0  0.72895  0.97731  0.62816  1.0000
  C   C1051     1.0  0.76130  0.76252  0.79199  1.0000
  N   N71       1.0  0.81272  0.79860  0.69349  1.0000
  N   N72       1.0  0.84170  0.94555  0.69365  1.0000
  C   C1052     1.0  0.81227  0.81616  0.67025  1.0000
  C   C1053     1.0  0.82728  0.78819  0.67895  1.0000
  H   H1259     1.0  0.86144  0.97055  0.65395  1.0000
  Fe  Fe142     1.0  0.68688  0.78081  0.84794  1.0000
  C   C1054     1.0  0.76192  0.89821  0.60090  1.0000
  H   H1260     1.0  0.77543  0.76831  0.87631  1.0000
  C   C1055     1.0  0.79873  0.81231  0.64913  1.0000
  H   H1261     1.0  0.81618  0.78534  0.87628  1.0000
  H   H1262     1.0  0.61515  0.80925  0.76947  1.0000
  H   H1263     1.0  0.80539  0.93866  0.70941  1.0000
  C   C1056     1.0  0.92914  0.85282  0.81319  1.0000
  C   C1057     1.0  0.69064  0.76123  0.73567  1.0000
  C   C1058     1.0  0.84362  0.95918  0.66401  1.0000
  C   C1059     1.0  0.84716  0.95723  0.71652  1.0000
  H   H1264     1.0  0.58158  0.81780  0.79790  1.0000
  S   S284      1.0  0.96809  0.92890  0.84790  1.0000
  C   C1060     1.0  0.84625  0.94637  0.74590  1.0000
  C   C1061     1.0  0.78406  0.93355  0.60155  1.0000
  H   H1265     1.0  0.83140  0.96787  0.66592  1.0000
  H   H1266     1.0  0.84170  0.92958  0.75194  1.0000
  H   H1267     1.0  0.94105  0.84409  0.77339  1.0000
  H   H1268     1.0  0.96220  0.87964  0.85236  1.0000
  H   H1269     1.0  0.77796  0.92402  0.56139  1.0000
  H   H1270     1.0  0.60288  0.80927  0.52110  1.0000
  H   H1271     1.0  0.84099  0.81534  0.71056  1.0000
  C   C1062     1.0  0.78208  0.78494  0.87455  1.0000
  S   S285      1.0  0.65080  0.75780  0.86233  1.0000
  C   C1063     1.0  0.63419  0.74642  0.56246  1.0000
  H   H1272     1.0  0.89836  0.96020  0.76830  1.0000
  H   H1273     1.0  0.83173  0.82335  0.87173  1.0000
  C   C1064     1.0  0.80049  0.76565  0.79410  1.0000
  Fe  Fe143     1.0  0.65723  0.75550  0.81461  1.0000
  H   H1274     1.0  0.65135  0.78588  0.61074  1.0000
  H   H1275     1.0  0.90807  0.93562  0.74075  1.0000
  H   H1276     1.0  0.94863  0.93949  0.72192  1.0000
  S   S286      1.0  0.70322  0.75694  0.86072  1.0000
  H   H1277     1.0  0.81278  0.81439  0.72913  1.0000
  H   H1278     1.0  0.65299  0.77372  0.50462  1.0000
  H   H1279     1.0  0.91114  0.84664  0.81288  1.0000
  H   H1280     1.0  0.61065  0.77147  0.60781  1.0000
  C   C1065     1.0  0.96227  0.96630  0.73910  1.0000
  H   H1281     1.0  0.81229  0.86182  0.60630  1.0000
  H   H1282     1.0  0.59785  0.75981  0.75532  1.0000
  H   H1283     1.0  0.78871  0.77108  0.72748  1.0000
  C   C1066     1.0  0.71468  0.74938  0.70294  1.0000
  C   C1067     1.0  0.95745  0.98072  0.75485  1.0000
  C   C1068     1.0  0.96845  0.92085  0.79201  1.0000
  H   H1284     1.0  0.72005  0.76403  0.68463  1.0000
  C   C1069     1.0  0.96938  0.86012  0.79052  1.0000
  H   H1285     1.0  0.81409  0.75910  0.79297  1.0000
  C   C1070     1.0  0.85551  0.97838  0.76222  1.0000
  H   H1286     1.0  0.82148  0.79208  0.73621  1.0000
  Fe  Fe144     1.0  0.70515  0.75385  0.81350  1.0000
  H   H1287     1.0  0.76272  0.97644  0.83104  1.0000
  H   H1288     1.0  0.65400  0.79894  0.53359  1.0000
  H   H1289     1.0  0.83728  0.84195  0.68131  1.0000
  H   H1290     1.0  0.97298  0.97583  0.80395  1.0000
  C   C1071     1.0  0.92167  0.94836  0.74416  1.0000
  C   C1072     1.0  0.91628  0.96217  0.75979  1.0000
  C   C1073     1.0  0.97646  0.87090  0.81220  1.0000
  S   S287      1.0  0.62796  0.75213  0.79203  1.0000
  H   H1291     1.0  0.67476  0.75695  0.75378  1.0000
  C   C1074     1.0  0.58660  0.81223  0.48541  1.0000
  H   H1292     1.0  0.92838  0.98813  0.77769  1.0000
  C   C1075     1.0  0.94608  0.85148  0.79087  1.0000
  C   C1076     1.0  0.67904  0.74140  0.67149  1.0000
  C   C1077     1.0  0.74946  0.98172  0.82250  1.0000
  C   C1078     1.0  0.67355  0.74173  0.70225  1.0000
  S   S288      1.0  0.58902  0.74514  0.57271  1.0000
  H   H1293     1.0  0.69609  0.74300  0.65964  1.0000
  H   H1294     1.0  0.66729  0.74011  0.63094  1.0000
  C   C1079     1.0  0.64028  0.73836  0.66758  1.0000
  H   H1295     1.0  0.77598  0.73877  0.78660  1.0000
  C   C1080     1.0  0.66256  0.73975  0.65457  1.0000
  H   H1296     1.0  0.50184  0.76126  0.47916  1.0000
