data_image0
_chemical_formula_structural       SC2FeH2CH2CH7C2H2CHCH4CHC2HCH3C2HCFeCH2C2HS2CFeHSC3NSHSHSHCH2CFeHC2HFeSCHCH2CHCFeH3CHCHNSCHCHCH3N2HSCSH3C6SH2CH2C2H2C2H4CH2CHC2H2SH4FeC2HCNCH2SC2HC3H4C2SHSCSH2C2H2C4NC3H3CH2CH2SH3CHCHFeNCHC2HSH2CH3CNSHC2H3FeC2H2C3H3Fe2SCS3HS2HFe2CH2CH2FeSHFeSCFeSHFeSFeS3FeSHFeS2FeSFeS3CFeS2FeCFeS3C6H4C6H4C6H4CHSC6H4CH3C2HC4H2CHNC9H16C4H2C2H2NH3SCH5C2H3SCH2CSC3HCH2C2H2C2HCH3C2H2CNHC5H2CHCHCH3C3NHCH5CH3SH5FeHC2H6C2H3CH2SCFeS2FeHCFeS2FeS2FeS2FeSFeHS2FeS2C10H5CHC6H9NSC4H6SCHCH6C3HC3FeHC4SH3C2H2CHNC2H3CH6SH6CHC2HCFeS2FeHFeHS2FeS2FeHSFeCFeS3FeS2HNH3C4H2C6H5CHC2HC6H4SCH8FeC3HCH2FeH3C3H9CHCHCNC9H12NHCNC4H3CHCSC2HCH2CHCH2SC2H2CHCHCHFe2SC2SFeSFeS3HC5H5CH4NH2CHCHCHCHC2HC2H4CHFeCHCH4CHC2HNC2HC2H3C2HCH2FeSCFeS2Fe2SHSHCH2CSCH2CH6CHCSCHCHC3NCH3CHCH2C2HNCH3C2H2CHCH4NHCH3FeS2FeS2FeSFeS3FeS2FeS2FeSFeS3C2HCHC3HCH2C3H2C6H4C6H4C4H3C6H6CH2CHC2H5CNHC2H3CH2CNCH2C2HNCH3CHCHSC3H2CHC4H4NC4H2CH2CH5CH3CHC2HC3H2NH4CHC2HC2H2CHCH3CHCHCHCHC2H5CHCH4CHCHCSNH2C2HCHC2H2CH2C5SHFeS2FeS2FeSFeS3FeS2FeS2FeSFeS3C2HCH2C6H4C7H2C4H3C3HCHCH2C6H4C3H3NC4H2C2SHSH4C2H2CH2CHCH4NH7CHC4H4CH3C2H2CH4CHC2H3C4HCHCH4CHNC2HC3HNH4CH2SCHC2H2C3HC3H2CFeS2HSHC6H6C2HCH3CHCH2NC2SH2CH2SHCHC2HC3H2C3H2CH3FeSC2HSC6H4C3HC3H3C2HCNH5C2H3SC2HCHCH2C2HNCH4SH3SHC2H2SFeS2HSHFeS2FeS2FeS2FeS2FeS2FeSFeS3C6FeH3C6H7CNHC6H4C6H2C4H3C3H3NC9H14NC2SC4H2C4H4SHFeHCH5CH6NHC2H2FeCH2CNHCHCHCH3CHCH4C2H3C2HCH2CH4CHCH2CH2FeHCH2CH2NC4HSCFeS2FeSFeS2FeSFeS3FeS2FeS2FeS3FeH2C6H4C3H2C2HC6H4C6H2SNC6H2CH2CH3NHCHC4H2C2NHCH2CHC2H4C2HC2HCNHCH4CHC2H3CHC2HSNH3CHCH3CH2CHCHC4H4C2H3CHCSC2H4CHC2H3C2SC2H5C2H5C2HSNCHCH3CH3SH5CH2C3HCFeSHFeS2FeS2FeS2FeSHS2HC2FeS2FeS2FeSFeS3C6H4C6H4C6H5CH2C3H3C7H8NCFeHC6H9CH4NC4HFeH11CH5C2HCH3SHCH3CH2NC6HCNHC2HNC2H3CH3C4H2SCH2C4H2SHC2H3CHC2H3CHSHCHCH2CHSCH2NC2SFeSHFeS2Fe2SHSHCHFeHSFeS2FeS2FeS2FeSFeS4C2H2C6H4C6HSH2NCNCSC6H4C6H4FeH2FeC4H3C3H2C2H2CHC3H3CH4NC9H14C2HCH3CH5C2HCSCH2CNH3CHC2HC2HCH2CNHSH3CH2CH2CHCHCH2CNC6HC2H9CHC2HCNC2H3S2CSC2H4FeS2H2FeCFeHS2FeS2CHC4H2CHC2NH2C7H4C2H3CH3NC7H2CSH2CH2CH3NH4CHCHSH8CHCFeCNC3H3SC2H2FeCSCHCHC2HSHCHFeS2FeSFeHS2FeS2CH3C3H2C4HC2H2SC6H6SHCH3CH7CH4C4H3SCH4CHCNH2CHC3H3CHSCFeH2C2H2C2NC2H3CNCH2CHC3HFeS2FeCSFeHFeS3FeSHFeS2FeSFeS3FeS2CHFeHS2H2C2HC2H3C2H2CH2C4H3C6H4C2HCHC7H4C2NC4H4CH6C2H9CFeC2H2CHNHC8H2CHC2HCH2SH2SH2CHSFeHC2H3C2HCNH3CHCHC2H3C3NHCH2SHCFeS2FeSFeSFeS3FeS2FeSNFeSFeS3FeS2FeH3FeS2HCH3C6H4C6H4C4H3C2H3CH2CHCHC2H2NH6CH3C4HC2HCH4CSHCH2NC2H5SHCH2C2H2CH3C2NC3H4CH2C4H4C3H2CH2CHC3H2CHCHC2H3CS2H2C2HFeHCH3NHCHC2HCHSHCH3CH2CH3CNHSCHCH2FeS2FeS2FeSFeS3FeS3C5HC8H4C6H4C6HFeCH4C2H8CHC5HNC2HC2HSHC2HC2H3NH2NH2SH5C6H5CH3CH5CHCHCH4NCHCHC6H5C2H8C2H2CHSCH2C2HCHCFeH2FeS2FeS2FeSFeS3HSCFeS2C3NC10H4C6H4C3H2C2H3C3HCH2CHC2FeH3FeH5NC6HCSH14CNHC3H4CSH6CSC2SCHCH3C2HCH4CHCNCHCHC3HCH2CH2C2HC2FeSCFeS2FeS2FeSFeS3FeSCFeS2FeSFeHS2FeSCFeS2FeS2CHCH2CSHC2H3CH2C6H6C6H4C6H4C6H5C7H5C4HC2SHC2HCH4C2HCH2CHN2C2HC2H3CH7CH8CH4C2H2CHNH2SH2C3H2C2H4C2NCHCHCHC2HSCNH3CHCH6CHSC2H4CSCH3SCH5FeS2FeS2FeS2FeSFeS3FeS2FeSHFeSFeCS2FeS2CFeS3H2FeHS2C6H4C3H5C6H4C6H3CH3C2HC6HNC9H14NH2C3H3C2HNH2CH3C2NC3HC5H4CHCH2CH2C4HCHCH3FeHCHCFeC2H6C2HCNHC2HCH2CHCH7SHSH2C2HCHC2SH4C2HCHFeCH2
_chemical_formula_sum              "S384 C1440 Fe192 H1728 N96"
_cell_length_a       54.3827
_cell_length_b       54.3763
_cell_length_c       94.9304
_cell_angle_alpha    91.8873
_cell_angle_beta     91.941
_cell_angle_gamma    113.947

_space_group_name_H-M_alt    "P 1"
_space_group_IT_number       1

loop_
  _space_group_symop_operation_xyz
  'x, y, z'

loop_
  _atom_site_type_symbol
  _atom_site_label
  _atom_site_symmetry_multiplicity
  _atom_site_fract_x
  _atom_site_fract_y
  _atom_site_fract_z
  _atom_site_occupancy
  S   S1        1.0  0.99793  0.29079  0.04498  1.0000
  C   C1        1.0  0.99317  0.30550  0.12820  1.0000
  C   C2        1.0  0.00395  0.27770  0.08684  1.0000
  Fe  Fe1       1.0  0.98879  0.24688  0.04649  1.0000
  H   H1        1.0  0.98685  0.29310  0.13721  1.0000
  H   H2        1.0  0.99833  0.26147  0.09446  1.0000
  C   C3        1.0  0.00484  0.29756  0.11700  1.0000
  H   H3        1.0  0.98508  0.27973  0.08344  1.0000
  H   H4        1.0  0.98318  0.25054  0.99617  1.0000
  C   C4        1.0  0.98222  0.26132  0.98695  1.0000
  H   H5        1.0  0.06277  0.30043  0.03256  1.0000
  H   H6        1.0  0.11304  0.00567  0.08309  1.0000
  H   H7        1.0  0.08826  0.01990  0.08071  1.0000
  H   H8        1.0  0.01136  0.27036  0.07747  1.0000
  H   H9        1.0  0.00719  0.27885  0.11778  1.0000
  H   H10       1.0  0.12858  0.98840  0.06204  1.0000
  H   H11       1.0  0.04160  0.31558  0.07282  1.0000
  C   C5        1.0  0.29806  0.31948  0.08845  1.0000
  C   C6        1.0  0.13602  0.31262  0.99856  1.0000
  H   H12       1.0  0.03253  0.29903  0.99788  1.0000
  H   H13       1.0  0.36914  0.02391  0.17686  1.0000
  C   C7        1.0  0.01262  0.31306  0.10488  1.0000
  H   H14       1.0  0.06364  0.31866  0.10346  1.0000
  C   C8        1.0  0.12249  0.00243  0.05602  1.0000
  H   H15       1.0  0.32632  0.31833  0.19136  1.0000
  H   H16       1.0  0.11968  0.99518  0.04476  1.0000
  H   H17       1.0  0.30287  0.99983  0.04361  1.0000
  H   H18       1.0  0.05430  0.28964  0.98753  1.0000
  C   C9        1.0  0.29858  0.29532  0.98854  1.0000
  H   H19       1.0  0.08665  0.01458  0.04134  1.0000
  C   C10       1.0  0.05958  0.30830  0.02231  1.0000
  C   C11       1.0  0.05385  0.30169  0.99715  1.0000
  H   H20       1.0  0.23747  0.13465  0.99705  1.0000
  C   C12       1.0  0.42735  0.19215  0.22003  1.0000
  H   H21       1.0  0.23665  0.10144  0.99769  1.0000
  H   H22       1.0  0.29873  0.30799  0.04247  1.0000
  H   H23       1.0  0.16129  0.06702  0.99723  1.0000
  C   C13       1.0  0.30621  0.29899  0.01397  1.0000
  C   C14       1.0  0.26903  0.00782  0.99384  1.0000
  H   H24       1.0  0.09459  0.28387  0.03102  1.0000
  C   C15       1.0  0.14816  0.30748  0.01061  1.0000
  Fe  Fe2       1.0  0.23314  0.03153  0.06121  1.0000
  C   C16       1.0  0.10550  0.01724  0.07597  1.0000
  H   H25       1.0  0.43334  0.17951  0.21317  1.0000
  H   H26       1.0  0.19213  0.06262  0.00071  1.0000
  C   C17       1.0  0.30312  0.28470  0.00102  1.0000
  C   C18       1.0  0.28339  0.01366  0.01902  1.0000
  H   H27       1.0  0.19803  0.00264  0.00073  1.0000
  S   S2        1.0  0.23493  0.06767  0.04971  1.0000
  S   S3        1.0  0.26976  0.03272  0.07472  1.0000
  C   C19       1.0  0.13289  0.29701  0.02217  1.0000
  Fe  Fe3       1.0  0.37932  0.12038  0.14190  1.0000
  H   H28       1.0  0.27473  0.05415  0.17502  1.0000
  S   S4        1.0  0.18989  0.01906  0.06711  1.0000
  C   C20       1.0  0.38438  0.11929  0.21197  1.0000
  C   C21       1.0  0.39932  0.24689  0.12337  1.0000
  C   C22       1.0  0.42932  0.28467  0.15821  1.0000
  N   N1        1.0  0.30022  0.03120  0.03105  1.0000
  S   S5        1.0  0.38104  0.15196  0.15840  1.0000
  H   H29       1.0  0.10058  0.31217  0.98842  1.0000
  S   S6        1.0  0.38472  0.29372  0.16528  1.0000
  H   H30       1.0  0.41057  0.10181  0.20402  1.0000
  S   S7        1.0  0.28324  0.30343  0.07153  1.0000
  H   H31       1.0  0.16941  0.31134  0.01096  1.0000
  C   C23       1.0  0.18248  0.07710  0.00157  1.0000
  H   H32       1.0  0.03858  0.30707  0.02212  1.0000
  H   H33       1.0  0.34764  0.31199  0.12896  1.0000
  C   C24       1.0  0.38761  0.24547  0.16020  1.0000
  Fe  Fe4       1.0  0.24192  0.28498  0.05884  1.0000
  H   H34       1.0  0.31300  0.07263  0.19010  1.0000
  C   C25       1.0  0.09005  0.02168  0.05264  1.0000
  C   C26       1.0  0.35640  0.04284  0.19360  1.0000
  H   H35       1.0  0.05206  0.25623  0.02125  1.0000
  Fe  Fe5       1.0  0.18105  0.27067  0.05309  1.0000
  S   S8        1.0  0.43844  0.15399  0.17101  1.0000
  C   C27       1.0  0.14572  0.25222  0.99158  1.0000
  H   H36       1.0  0.05833  0.29392  0.08928  1.0000
  C   C28       1.0  0.10863  0.30774  0.99809  1.0000
  H   H37       1.0  0.36922  0.03957  0.20165  1.0000
  H   H38       1.0  0.19684  0.14180  0.99396  1.0000
  C   C29       1.0  0.11828  0.24419  0.99336  1.0000
  H   H39       1.0  0.07120  0.02275  0.05618  1.0000
  C   C30       1.0  0.22565  0.11408  0.00061  1.0000
  Fe  Fe6       1.0  0.39467  0.12980  0.17431  1.0000
  H   H40       1.0  0.27999  0.31000  0.19548  1.0000
  H   H41       1.0  0.02519  0.25979  0.01158  1.0000
  H   H42       1.0  0.41317  0.17959  0.19182  1.0000
  C   C31       1.0  0.07190  0.23150  0.04666  1.0000
  H   H43       1.0  0.04364  0.28356  0.10567  1.0000
  C   C32       1.0  0.05617  0.24531  0.05087  1.0000
  H   H44       1.0  0.29253  0.10535  0.11238  1.0000
  N   N2        1.0  0.09802  0.00398  0.06158  1.0000
  S   S9        1.0  0.37456  0.12738  0.19530  1.0000
  C   C33       1.0  0.40188  0.27354  0.16076  1.0000
  H   H45       1.0  0.46390  0.27629  0.15374  1.0000
  C   C34       1.0  0.11266  0.26750  0.05708  1.0000
  H   H46       1.0  0.34586  0.18659  0.11832  1.0000
  C   C35       1.0  0.04700  0.26396  0.01135  1.0000
  H   H47       1.0  0.46993  0.24338  0.20330  1.0000
  H   H48       1.0  0.14235  0.29281  0.03151  1.0000
  H   H49       1.0  0.33747  0.27366  0.10252  1.0000
  N   N3        1.0  0.19772  0.10222  0.99430  1.0000
  N   N4        1.0  0.02424  0.30374  0.09299  1.0000
  H   H50       1.0  0.46013  0.20867  0.19756  1.0000
  S   S10       1.0  0.42261  0.14390  0.13641  1.0000
  C   C36       1.0  0.42832  0.23952  0.15507  1.0000
  S   S11       1.0  0.23978  0.05548  0.00974  1.0000
  H   H51       1.0  0.15989  0.25862  0.00069  1.0000
  H   H52       1.0  0.34087  0.06359  0.20801  1.0000
  H   H53       1.0  0.16449  0.11386  0.99179  1.0000
  C   C37       1.0  0.19644  0.16255  0.04222  1.0000
  C   C38       1.0  0.45528  0.22652  0.19639  1.0000
  C   C39       1.0  0.17995  0.15648  0.05373  1.0000
  C   C40       1.0  0.17227  0.13122  0.05974  1.0000
  C   C41       1.0  0.10554  0.29204  0.02181  1.0000
  C   C42       1.0  0.20561  0.14350  0.03698  1.0000
  S   S12       1.0  0.22050  0.00396  0.04133  1.0000
  H   H54       1.0  0.06226  0.21191  0.04119  1.0000
  H   H55       1.0  0.33508  0.02471  0.02529  1.0000
  C   C43       1.0  0.09261  0.29764  0.00987  1.0000
  H   H56       1.0  0.27612  0.00999  0.04796  1.0000
  H   H57       1.0  0.41076  0.20198  0.17931  1.0000
  C   C44       1.0  0.32910  0.04159  0.02786  1.0000
  C   C45       1.0  0.28931  0.05437  0.08936  1.0000
  H   H58       1.0  0.31368  0.27532  0.13902  1.0000
  H   H59       1.0  0.20543  0.10396  0.03895  1.0000
  C   C46       1.0  0.18131  0.11211  0.05440  1.0000
  C   C47       1.0  0.44254  0.26764  0.15546  1.0000
  H   H60       1.0  0.22608  0.11565  0.01235  1.0000
  H   H61       1.0  0.36631  0.23678  0.16204  1.0000
  H   H62       1.0  0.45906  0.23207  0.18519  1.0000
  H   H63       1.0  0.44044  0.30633  0.15863  1.0000
  C   C48       1.0  0.42306  0.21438  0.21483  1.0000
  H   H64       1.0  0.12216  0.03779  0.07580  1.0000
  H   H65       1.0  0.30921  0.28931  0.02322  1.0000
  C   C49       1.0  0.23022  0.27030  0.98935  1.0000
  H   H66       1.0  0.17268  0.17099  0.05779  1.0000
  C   C50       1.0  0.37308  0.12479  0.22415  1.0000
  C   C51       1.0  0.34034  0.05628  0.19718  1.0000
  H   H67       1.0  0.31388  0.28124  0.11262  1.0000
  H   H68       1.0  0.40053  0.24134  0.19743  1.0000
  S   S13       1.0  0.17895  0.25055  0.03172  1.0000
  H   H69       1.0  0.34234  0.05388  0.03697  1.0000
  H   H70       1.0  0.22910  0.25841  0.99842  1.0000
  H   H71       1.0  0.29681  0.06746  0.02428  1.0000
  H   H72       1.0  0.38938  0.20698  0.15657  1.0000
  Fe  Fe7       1.0  0.21792  0.28537  0.02825  1.0000
  C   C52       1.0  0.22773  0.03883  0.99291  1.0000
  C   C53       1.0  0.32438  0.26197  0.13703  1.0000
  H   H73       1.0  0.31803  0.03630  0.08992  1.0000
  C   C54       1.0  0.29826  0.09033  0.10749  1.0000
  N   N5        1.0  0.06382  0.29306  0.01004  1.0000
  C   C55       1.0  0.22810  0.29501  0.99105  1.0000
  H   H74       1.0  0.43539  0.26324  0.20235  1.0000
  H   H75       1.0  0.15923  0.12648  0.06852  1.0000
  S   S14       1.0  0.21891  0.30712  0.04905  1.0000
  C   C56       1.0  0.38496  0.21916  0.12123  1.0000
  C   C57       1.0  0.19820  0.11843  0.04306  1.0000
  H   H76       1.0  0.42570  0.24941  0.18479  1.0000
  C   C58       1.0  0.31579  0.08909  0.16165  1.0000
  C   C59       1.0  0.28490  0.02381  0.00533  1.0000
  C   C60       1.0  0.38577  0.26387  0.12448  1.0000
  H   H77       1.0  0.30986  0.03092  0.05337  1.0000
  H   H78       1.0  0.10659  0.30071  0.06698  1.0000
  H   H79       1.0  0.26475  0.07666  0.09189  1.0000
  H   H80       1.0  0.30866  0.24114  0.13534  1.0000
  C   C61       1.0  0.31026  0.05032  0.14698  1.0000
  C   C62       1.0  0.41429  0.22919  0.22461  1.0000
  S   S15       1.0  0.44581  0.21880  0.15251  1.0000
  H   H81       1.0  0.33147  0.05998  0.14375  1.0000
  S   S16       1.0  0.22382  0.30788  0.00782  1.0000
  C   C63       1.0  0.29283  0.05438  0.03343  1.0000
  S   S17       1.0  0.39025  0.09663  0.15826  1.0000
  H   H82       1.0  0.32141  0.21561  0.11991  1.0000
  H   H83       1.0  0.42047  0.08789  0.22750  1.0000
  C   C64       1.0  0.40196  0.10644  0.21332  1.0000
  C   C65       1.0  0.35953  0.29961  0.12757  1.0000
  H   H84       1.0  0.11109  0.24422  0.00387  1.0000
  H   H85       1.0  0.30948  0.24710  0.10973  1.0000
  C   C66       1.0  0.40877  0.19765  0.19067  1.0000
  C   C67       1.0  0.40070  0.22852  0.15720  1.0000
  C   C68       1.0  0.04845  0.29983  0.09810  1.0000
  C   C69       1.0  0.32497  0.26793  0.11191  1.0000
  N   N6        1.0  0.34196  0.27056  0.12492  1.0000
  C   C70       1.0  0.32843  0.06791  0.10634  1.0000
  C   C71       1.0  0.34315  0.22505  0.12091  1.0000
  C   C72       1.0  0.29713  0.01723  0.04450  1.0000
  H   H86       1.0  0.42114  0.25520  0.12463  1.0000
  H   H87       1.0  0.21865  0.14833  0.02822  1.0000
  H   H88       1.0  0.30323  0.02806  0.14585  1.0000
  C   C73       1.0  0.06888  0.27055  0.05800  1.0000
  H   H89       1.0  0.11180  0.23165  0.04640  1.0000
  H   H90       1.0  0.33649  0.26270  0.14688  1.0000
  C   C74       1.0  0.32145  0.08752  0.11283  1.0000
  H   H91       1.0  0.18175  0.08113  0.01311  1.0000
  H   H92       1.0  0.30390  0.06737  0.04288  1.0000
  S   S18       1.0  0.20455  0.19259  0.03325  1.0000
  H   H93       1.0  0.37280  0.30791  0.11868  1.0000
  H   H94       1.0  0.41022  0.24623  0.22166  1.0000
  H   H95       1.0  0.05707  0.28139  0.06128  1.0000
  C   C75       1.0  0.35693  0.20825  0.11994  1.0000
  H   H96       1.0  0.04956  0.25166  0.00238  1.0000
  C   C76       1.0  0.18479  0.12109  0.99727  1.0000
  H   H97       1.0  0.13971  0.02252  0.05668  1.0000
  Fe  Fe8       1.0  0.43386  0.12257  0.15391  1.0000
  N   N7        1.0  0.42713  0.22093  0.19981  1.0000
  C   C77       1.0  0.31243  0.05144  0.09475  1.0000
  H   H98       1.0  0.33386  0.05486  0.01878  1.0000
  C   C78       1.0  0.42191  0.24476  0.19605  1.0000
  C   C79       1.0  0.35713  0.25339  0.12334  1.0000
  H   H99       1.0  0.29770  0.04449  0.00348  1.0000
  S   S19       1.0  0.20416  0.24936  0.06409  1.0000
  H   H100      1.0  0.34166  0.03197  0.15854  1.0000
  H   H101      1.0  0.37225  0.30313  0.13747  1.0000
  C   C80       1.0  0.20714  0.01292  0.99145  1.0000
  H   H102      1.0  0.33758  0.09961  0.15983  1.0000
  H   H103      1.0  0.39562  0.20608  0.12078  1.0000
  H   H104      1.0  0.35940  0.13465  0.22324  1.0000
  C   C81       1.0  0.10001  0.24263  0.04960  1.0000
  N   N8        1.0  0.30763  0.05951  0.16157  1.0000
  S   S20       1.0  0.34014  0.10842  0.12787  1.0000
  H   H105      1.0  0.27214  0.02424  0.16530  1.0000
  C   C82       1.0  0.09693  0.28142  0.06122  1.0000
  C   C83       1.0  0.35632  0.03407  0.17964  1.0000
  H   H106      1.0  0.26570  0.05010  0.15657  1.0000
  H   H107      1.0  0.27100  0.04734  0.03517  1.0000
  H   H108      1.0  0.10607  0.04265  0.05302  1.0000
  Fe  Fe9       1.0  0.20490  0.23209  0.04216  1.0000
  C   C84       1.0  0.34035  0.03893  0.16915  1.0000
  C   C85       1.0  0.28240  0.07405  0.09583  1.0000
  H   H109      1.0  0.30480  0.09485  0.15314  1.0000
  H   H110      1.0  0.31230  0.09765  0.17178  1.0000
  C   C86       1.0  0.32415  0.05316  0.17241  1.0000
  C   C87       1.0  0.40753  0.09856  0.22666  1.0000
  C   C88       1.0  0.32444  0.06141  0.18679  1.0000
  H   H111      1.0  0.29814  0.05598  0.13904  1.0000
  H   H112      1.0  0.34609  0.06533  0.11027  1.0000
  H   H113      1.0  0.39826  0.28503  0.12657  1.0000
  Fe  Fe10      1.0  0.21996  0.03965  0.03028  1.0000
  Fe  Fe11      1.0  0.19126  0.05376  0.05424  1.0000
  S   S21       1.0  0.46450  0.10364  0.15394  1.0000
  C   C89       1.0  0.27880  0.04643  0.16477  1.0000
  S   S22       1.0  0.17651  0.02910  0.03391  1.0000
  S   S23       1.0  0.02075  0.22980  0.04719  1.0000
  S   S24       1.0  0.17068  0.08019  0.06173  1.0000
  H   H114      1.0  0.18223  0.12340  0.00878  1.0000
  S   S25       1.0  0.24381  0.26618  0.03749  1.0000
  S   S26       1.0  0.14781  0.28192  0.06164  1.0000
  H   H115      1.0  0.38733  0.19181  0.19317  1.0000
  Fe  Fe12      1.0  0.42435  0.17360  0.15393  1.0000
  Fe  Fe13      1.0  0.17740  0.99476  0.04634  1.0000
  C   C90       1.0  0.42317  0.18523  0.23409  1.0000
  H   H116      1.0  0.30378  0.26503  0.00068  1.0000
  H   H117      1.0  0.28548  0.31898  0.21375  1.0000
  C   C91       1.0  0.29676  0.32013  0.98894  1.0000
  H   H118      1.0  0.33715  0.32083  0.08389  1.0000
  H   H119      1.0  0.14799  0.32043  0.98953  1.0000
  Fe  Fe14      1.0  0.00017  0.25859  0.40599  1.0000
  S   S27       1.0  0.04584  0.27992  0.40344  1.0000
  H   H120      1.0  0.14965  0.02505  0.43482  1.0000
  Fe  Fe15      1.0  0.22361  0.28179  0.42465  1.0000
  S   S28       1.0  0.19472  0.23885  0.42056  1.0000
  C   C92       1.0  0.21878  0.00904  0.48354  1.0000
  Fe  Fe16      1.0  0.24296  0.28686  0.39365  1.0000
  S   S29       1.0  0.21396  0.24399  0.38766  1.0000
  H   H121      1.0  0.16400  0.27697  0.46219  1.0000
  Fe  Fe17      1.0  0.18334  0.25304  0.40029  1.0000
  S   S30       1.0  0.13751  0.23528  0.39572  1.0000
  Fe  Fe18      1.0  0.22720  0.23363  0.40849  1.0000
  S   S31       1.0  0.24494  0.20310  0.41227  1.0000
  S   S32       1.0  0.21128  0.29662  0.40479  1.0000
  S   S33       1.0  0.25711  0.27578  0.41414  1.0000
  Fe  Fe19      1.0  0.43929  0.13623  0.30263  1.0000
  S   S34       1.0  0.40814  0.09406  0.29729  1.0000
  H   H122      1.0  0.19092  0.11044  0.44225  1.0000
  Fe  Fe20      1.0  0.40113  0.16161  0.29226  1.0000
  S   S35       1.0  0.36804  0.12133  0.28598  1.0000
  S   S36       1.0  0.39493  0.19800  0.28492  1.0000
  Fe  Fe21      1.0  0.37792  0.10809  0.30705  1.0000
  S   S37       1.0  0.33915  0.08363  0.31879  1.0000
  Fe  Fe22      1.0  0.40035  0.11092  0.27694  1.0000
  S   S38       1.0  0.40265  0.09247  0.25529  1.0000
  S   S39       1.0  0.40983  0.14955  0.31366  1.0000
  S   S40       1.0  0.43272  0.15194  0.28191  1.0000
  C   C93       1.0  0.41434  0.19996  0.24335  1.0000
  Fe  Fe23      1.0  0.19794  0.04881  0.39896  1.0000
  S   S41       1.0  0.23874  0.05715  0.40892  1.0000
  S   S42       1.0  0.17875  0.07847  0.39732  1.0000
  Fe  Fe24      1.0  0.21788  0.01663  0.41829  1.0000
  C   C94       1.0  0.15446  0.25748  0.45589  1.0000
  Fe  Fe25      1.0  0.24357  0.03467  0.38940  1.0000
  S   S43       1.0  0.28445  0.05285  0.37877  1.0000
  S   S44       1.0  0.17660  0.01002  0.40952  1.0000
  S   S45       1.0  0.20350  0.02853  0.37914  1.0000
  C   C95       1.0  0.32443  0.07581  0.33566  1.0000
  C   C96       1.0  0.29612  0.06312  0.33622  1.0000
  C   C97       1.0  0.28346  0.05655  0.34922  1.0000
  C   C98       1.0  0.29897  0.06206  0.36195  1.0000
  C   C99       1.0  0.32725  0.07478  0.36141  1.0000
  C   C100      1.0  0.33988  0.08170  0.34843  1.0000
  H   H123      1.0  0.28384  0.05843  0.32648  1.0000
  H   H124      1.0  0.26176  0.04682  0.34931  1.0000
  H   H125      1.0  0.33959  0.07915  0.37112  1.0000
  H   H126      1.0  0.36161  0.09135  0.34830  1.0000
  C   C101      1.0  0.42219  0.28031  0.30853  1.0000
  C   C102      1.0  0.42596  0.25917  0.31505  1.0000
  C   C103      1.0  0.41680  0.23343  0.30817  1.0000
  C   C104      1.0  0.40425  0.22889  0.29467  1.0000
  C   C105      1.0  0.39989  0.24984  0.28834  1.0000
  C   C106      1.0  0.40877  0.27543  0.29525  1.0000
  H   H127      1.0  0.43618  0.26280  0.32538  1.0000
  H   H128      1.0  0.41965  0.21717  0.31318  1.0000
  H   H129      1.0  0.39013  0.24644  0.27790  1.0000
  H   H130      1.0  0.40597  0.29156  0.29005  1.0000
  C   C107      1.0  0.22599  0.16853  0.40829  1.0000
  C   C108      1.0  0.20039  0.15903  0.40153  1.0000
  C   C109      1.0  0.18611  0.13131  0.39820  1.0000
  C   C110      1.0  0.19738  0.11303  0.40156  1.0000
  C   C111      1.0  0.22287  0.12250  0.40847  1.0000
  C   C112      1.0  0.23715  0.15020  0.41180  1.0000
  H   H131      1.0  0.19165  0.17304  0.39880  1.0000
  H   H132      1.0  0.16628  0.12406  0.39295  1.0000
  H   H133      1.0  0.23158  0.10858  0.41128  1.0000
  H   H134      1.0  0.25692  0.15751  0.41710  1.0000
  C   C113      1.0  0.10947  0.26891  0.46340  1.0000
  H   H135      1.0  0.41045  0.19409  0.25415  1.0000
  S   S46       1.0  0.28077  0.31466  0.38237  1.0000
  C   C114      1.0  0.07089  0.26698  0.40111  1.0000
  C   C115      1.0  0.06461  0.23935  0.39988  1.0000
  C   C116      1.0  0.08522  0.23013  0.39811  1.0000
  C   C117      1.0  0.11242  0.24831  0.39772  1.0000
  C   C118      1.0  0.11871  0.27596  0.39897  1.0000
  C   C119      1.0  0.09808  0.28519  0.40062  1.0000
  H   H136      1.0  0.04386  0.22505  0.40020  1.0000
  H   H137      1.0  0.08003  0.20870  0.39706  1.0000
  H   H138      1.0  0.13944  0.29024  0.39852  1.0000
  H   H139      1.0  0.16883  0.01400  0.48021  1.0000
  C   C120      1.0  0.17573  0.07886  0.48196  1.0000
  H   H140      1.0  0.34603  0.26634  0.38181  1.0000
  H   H141      1.0  0.37012  0.12173  0.24678  1.0000
  H   H142      1.0  0.10324  0.30662  0.40154  1.0000
  C   C121      1.0  0.23941  0.27397  0.46473  1.0000
  C   C122      1.0  0.22852  0.29297  0.46271  1.0000
  H   H143      1.0  0.01796  0.26139  0.48377  1.0000
  C   C123      1.0  0.12605  0.23280  0.43587  1.0000
  C   C124      1.0  0.17023  0.03324  0.47663  1.0000
  C   C125      1.0  0.24389  0.26710  0.47851  1.0000
  C   C126      1.0  0.22333  0.01613  0.45817  1.0000
  H   H144      1.0  0.17776  0.10324  0.46478  1.0000
  H   H145      1.0  0.45650  0.12697  0.25014  1.0000
  C   C127      1.0  0.21417  0.99887  0.46938  1.0000
  H   H146      1.0  0.32205  0.02020  0.35005  1.0000
  N   N9        1.0  0.26439  0.12305  0.37139  1.0000
  C   C128      1.0  0.25398  0.14437  0.37244  1.0000
  C   C129      1.0  0.24137  0.09632  0.37131  1.0000
  C   C130      1.0  0.28157  0.12570  0.38436  1.0000
  C   C131      1.0  0.27878  0.12541  0.35818  1.0000
  C   C132      1.0  0.30662  0.13065  0.35803  1.0000
  C   C133      1.0  0.26485  0.12247  0.34488  1.0000
  C   C134      1.0  0.31946  0.13273  0.34532  1.0000
  C   C135      1.0  0.27783  0.12422  0.33224  1.0000
  C   C136      1.0  0.30508  0.12925  0.33247  1.0000
  H   H147      1.0  0.23904  0.14240  0.36372  1.0000
  H   H148      1.0  0.24347  0.14361  0.38238  1.0000
  H   H149      1.0  0.27061  0.16480  0.37225  1.0000
  H   H150      1.0  0.22570  0.09359  0.36287  1.0000
  H   H151      1.0  0.23086  0.09326  0.38140  1.0000
  H   H152      1.0  0.24835  0.07983  0.36975  1.0000
  H   H153      1.0  0.29881  0.14579  0.38550  1.0000
  H   H154      1.0  0.27012  0.12361  0.39407  1.0000
  H   H155      1.0  0.28941  0.10965  0.38442  1.0000
  H   H156      1.0  0.31886  0.13260  0.36754  1.0000
  H   H157      1.0  0.24368  0.11849  0.34415  1.0000
  H   H158      1.0  0.34053  0.13601  0.34538  1.0000
  H   H159      1.0  0.26668  0.12130  0.32219  1.0000
  H   H160      1.0  0.31499  0.12982  0.32267  1.0000
  H   H161      1.0  0.31468  0.25272  0.31869  1.0000
  H   H162      1.0  0.14263  0.22716  0.43265  1.0000
  C   C137      1.0  0.46212  0.25185  0.27888  1.0000
  C   C138      1.0  0.47179  0.23743  0.28779  1.0000
  C   C139      1.0  0.33509  0.26575  0.37196  1.0000
  C   C140      1.0  0.37917  0.11753  0.23753  1.0000
  H   H163      1.0  0.25325  0.07536  0.47783  1.0000
  H   H164      1.0  0.37698  0.25687  0.33874  1.0000
  C   C141      1.0  0.99850  0.26226  0.48248  1.0000
  C   C142      1.0  0.29400  0.26112  0.35948  1.0000
  H   H165      1.0  0.48028  0.19955  0.32262  1.0000
  H   H166      1.0  0.34314  0.27643  0.31045  1.0000
  N   N10       1.0  0.13636  0.25895  0.44416  1.0000
  H   H167      1.0  0.47031  0.08108  0.23888  1.0000
  H   H168      1.0  0.24483  0.05733  0.45287  1.0000
  H   H169      1.0  0.09560  0.26267  0.42775  1.0000
  S   S47       1.0  0.22487  0.30423  0.44566  1.0000
  C   C143      1.0  0.06867  0.27498  0.45728  1.0000
  H   H170      1.0  0.46224  0.22089  0.32202  1.0000
  H   H171      1.0  0.01575  0.29453  0.38131  1.0000
  H   H172      1.0  0.38648  0.30443  0.34263  1.0000
  H   H173      1.0  0.17033  0.27697  0.43118  1.0000
  H   H174      1.0  0.12315  0.26849  0.47181  1.0000
  C   C144      1.0  0.34818  0.26974  0.35925  1.0000
  C   C145      1.0  0.07201  0.27091  0.44304  1.0000
  H   H175      1.0  0.19858  0.04612  0.43777  1.0000
  H   H176      1.0  0.21601  0.08149  0.44210  1.0000
  H   H177      1.0  0.16923  0.02125  0.45504  1.0000
  S   S48       1.0  0.21743  0.00172  0.44059  1.0000
  C   C146      1.0  0.28109  0.99372  0.35383  1.0000
  H   H178      1.0  0.29804  0.25906  0.38196  1.0000
  H   H179      1.0  0.13000  0.04404  0.43858  1.0000
  C   C147      1.0  0.17019  0.03755  0.46221  1.0000
  S   S49       1.0  0.22629  0.99447  0.39971  1.0000
  C   C148      1.0  0.15295  0.28057  0.43507  1.0000
  C   C149      1.0  0.39617  0.10404  0.23884  1.0000
  C   C150      1.0  0.98626  0.25938  0.46880  1.0000
  H   H180      1.0  0.11504  0.23322  0.42587  1.0000
  C   C151      1.0  0.19772  0.06603  0.43645  1.0000
  H   H181      1.0  0.44927  0.24175  0.26963  1.0000
  H   H182      1.0  0.29498  0.26572  0.33749  1.0000
  C   C152      1.0  0.08734  0.27398  0.46743  1.0000
  C   C153      1.0  0.30325  0.00499  0.34548  1.0000
  H   H183      1.0  0.19918  0.06977  0.42501  1.0000
  H   H184      1.0  0.31800  0.00735  0.32463  1.0000
  C   C154      1.0  0.23720  0.04383  0.46131  1.0000
  C   C155      1.0  0.17238  0.06264  0.45718  1.0000
  H   H185      1.0  0.25317  0.25308  0.47995  1.0000
  C   C156      1.0  0.24208  0.05398  0.47550  1.0000
  H   H186      1.0  0.14356  0.24115  0.46302  1.0000
  H   H187      1.0  0.01123  0.29738  0.36284  1.0000
  H   H188      1.0  0.36335  0.31765  0.33584  1.0000
  C   C157      1.0  0.30692  0.26530  0.34673  1.0000
  C   C158      1.0  0.37120  0.30191  0.33401  1.0000
  H   H189      1.0  0.46600  0.21633  0.28497  1.0000
  H   H190      1.0  0.16122  0.30058  0.44092  1.0000
  C   C159      1.0  0.47392  0.21226  0.31566  1.0000
  N   N11       1.0  0.17282  0.06685  0.44184  1.0000
  H   H191      1.0  0.44561  0.07673  0.25146  1.0000
  C   C160      1.0  0.17535  0.08333  0.46753  1.0000
  C   C161      1.0  0.17228  0.09304  0.43824  1.0000
  C   C162      1.0  0.46756  0.08247  0.25037  1.0000
  C   C163      1.0  0.14919  0.04523  0.43424  1.0000
  C   C164      1.0  0.09396  0.26575  0.43892  1.0000
  H   H192      1.0  0.17113  0.09491  0.42660  1.0000
  H   H193      1.0  0.24518  0.26518  0.45573  1.0000
  C   C165      1.0  0.00707  0.30385  0.37338  1.0000
  H   H194      1.0  0.34502  0.23357  0.33087  1.0000
  C   C166      1.0  0.22130  0.30425  0.47459  1.0000
  H   H195      1.0  0.45907  0.28951  0.27569  1.0000
  C   C167      1.0  0.33451  0.26969  0.34622  1.0000
  H   H196      1.0  0.05159  0.27896  0.46045  1.0000
  H   H197      1.0  0.14837  0.04868  0.42274  1.0000
  H   H198      1.0  0.11208  0.21625  0.44202  1.0000
  C   C168      1.0  0.33168  0.27290  0.32023  1.0000
  C   C169      1.0  0.11339  0.26456  0.44894  1.0000
  C   C170      1.0  0.36075  0.25449  0.33070  1.0000
  N   N12       1.0  0.34904  0.27459  0.33298  1.0000
  H   H199      1.0  0.32342  0.28858  0.32080  1.0000
  C   C171      1.0  0.30807  0.26152  0.37207  1.0000
  H   H200      1.0  0.15435  0.09527  0.44238  1.0000
  H   H201      1.0  0.36925  0.27336  0.35971  1.0000
  H   H202      1.0  0.42607  0.16784  0.23772  1.0000
  H   H203      1.0  0.17150  0.25330  0.45187  1.0000
  H   H204      1.0  0.38233  0.30649  0.32417  1.0000
  C   C172      1.0  0.46751  0.27870  0.28231  1.0000
  H   H205      1.0  0.37024  0.25655  0.32032  1.0000
  H   H206      1.0  0.05753  0.27176  0.43510  1.0000
  H   H207      1.0  0.45986  0.19833  0.30731  1.0000
  S   S50       1.0  0.43471  0.31269  0.31705  1.0000
  H   H208      1.0  0.21301  0.31908  0.47318  1.0000
  H   H209      1.0  0.14138  0.28211  0.42555  1.0000
  H   H210      1.0  0.27315  0.25854  0.35971  1.0000
  H   H211      1.0  0.48087  0.12888  0.23771  1.0000
  H   H212      1.0  0.40290  0.23316  0.24589  1.0000
  Fe  Fe26      1.0  0.18567  0.98989  0.39071  1.0000
  H   H213      1.0  0.08462  0.27717  0.47851  1.0000
  C   C173      1.0  0.47545  0.11022  0.27160  1.0000
  C   C174      1.0  0.41002  0.22194  0.23863  1.0000
  H   H214      1.0  0.45353  0.10560  0.27184  1.0000
  H   H215      1.0  0.47273  0.06687  0.25543  1.0000
  H   H216      1.0  0.99627  0.25633  0.45968  1.0000
  H   H217      1.0  0.21993  0.99556  0.35100  1.0000
  H   H218      1.0  0.28366  0.00113  0.36473  1.0000
  H   H219      1.0  0.48032  0.09673  0.30618  1.0000
  C   C175      1.0  0.30097  0.99779  0.33114  1.0000
  C   C176      1.0  0.27845  0.31408  0.35263  1.0000
  H   H220      1.0  0.24083  0.00331  0.36692  1.0000
  H   H221      1.0  0.98481  0.29500  0.37421  1.0000
  H   H222      1.0  0.25689  0.30309  0.35303  1.0000
  C   C177      1.0  0.47787  0.12995  0.24920  1.0000
  H   H223      1.0  0.27749  0.31514  0.32985  1.0000
  H   H224      1.0  0.47874  0.09484  0.27792  1.0000
  S   S51       1.0  0.98264  0.28689  0.41472  1.0000
  C   C178      1.0  0.29026  0.32099  0.33943  1.0000
  Fe  Fe27      1.0  0.21998  0.03079  0.52426  1.0000
  S   S52       1.0  0.17628  0.02212  0.52607  1.0000
  S   S53       1.0  0.24049  0.05035  0.50441  1.0000
  Fe  Fe28      1.0  0.22590  0.01724  0.55574  1.0000
  H   H225      1.0  0.20276  0.05728  0.59109  1.0000
  C   C179      1.0  0.20708  0.13501  0.58944  1.0000
  Fe  Fe29      1.0  0.18921  0.04539  0.54704  1.0000
  S   S54       1.0  0.17201  0.07613  0.55290  1.0000
  S   S55       1.0  0.23309  0.05584  0.54479  1.0000
  Fe  Fe30      1.0  0.21611  0.23789  0.55448  1.0000
  S   S56       1.0  0.25119  0.27596  0.54913  1.0000
  S   S57       1.0  0.22942  0.20455  0.56086  1.0000
  Fe  Fe31      1.0  0.17570  0.26071  0.54491  1.0000
  S   S58       1.0  0.20832  0.29914  0.53848  1.0000
  S   S59       1.0  0.13410  0.25668  0.53775  1.0000
  Fe  Fe32      1.0  0.22703  0.27303  0.52884  1.0000
  S   S60       1.0  0.24515  0.27076  0.50756  1.0000
  Fe  Fe33      1.0  0.22929  0.29884  0.55948  1.0000
  H   H226      1.0  0.25812  0.09846  0.56804  1.0000
  S   S61       1.0  0.19295  0.23458  0.53401  1.0000
  S   S62       1.0  0.19555  0.26093  0.56620  1.0000
  Fe  Fe34      1.0  0.00090  0.24558  0.56181  1.0000
  S   S63       1.0  0.01261  0.28594  0.55273  1.0000
  S   S64       1.0  0.03132  0.23424  0.57348  1.0000
  C   C180      1.0  0.06393  0.31330  0.58653  1.0000
  C   C181      1.0  0.26398  0.09192  0.57813  1.0000
  C   C182      1.0  0.23686  0.27851  0.49042  1.0000
  C   C183      1.0  0.25294  0.14728  0.51153  1.0000
  C   C184      1.0  0.10602  0.24988  0.54814  1.0000
  C   C185      1.0  0.08275  0.25071  0.54177  1.0000
  C   C186      1.0  0.06002  0.24628  0.54957  1.0000
  C   C187      1.0  0.06020  0.24052  0.56379  1.0000
  C   C188      1.0  0.08345  0.23964  0.57024  1.0000
  C   C189      1.0  0.10645  0.24449  0.56244  1.0000
  H   H227      1.0  0.08231  0.25493  0.53072  1.0000
  H   H228      1.0  0.04224  0.24700  0.54449  1.0000
  H   H229      1.0  0.08367  0.23514  0.58125  1.0000
  H   H230      1.0  0.12431  0.24374  0.56742  1.0000
  H   H231      1.0  0.18720  0.13447  0.58707  1.0000
  C   C190      1.0  0.21899  0.06293  0.58344  1.0000
  H   H232      1.0  0.22529  0.17802  0.59333  1.0000
  C   C191      1.0  0.18853  0.11196  0.55363  1.0000
  C   C192      1.0  0.21663  0.12554  0.55458  1.0000
  C   C193      1.0  0.22881  0.15388  0.55657  1.0000
  C   C194      1.0  0.21315  0.16910  0.55709  1.0000
  C   C195      1.0  0.18511  0.15560  0.55545  1.0000
  C   C196      1.0  0.17290  0.12720  0.55394  1.0000
  H   H233      1.0  0.22892  0.11418  0.55426  1.0000
  H   H234      1.0  0.25049  0.16402  0.55798  1.0000
  H   H235      1.0  0.17275  0.16695  0.55592  1.0000
  H   H236      1.0  0.15116  0.11693  0.55321  1.0000
  H   H237      1.0  0.28390  0.10755  0.58192  1.0000
  H   H238      1.0  0.26731  0.07334  0.57565  1.0000
  H   H239      1.0  0.25683  0.06254  0.60114  1.0000
  H   H240      1.0  0.21070  0.06608  0.57310  1.0000
  H   H241      1.0  0.23794  0.07797  0.61041  1.0000
  N   N13       1.0  0.24501  0.18930  0.51599  1.0000
  S   S65       1.0  0.25708  0.01598  0.57254  1.0000
  C   C197      1.0  0.25450  0.19967  0.50200  1.0000
  C   C198      1.0  0.22387  0.19873  0.51963  1.0000
  C   C199      1.0  0.23553  0.15960  0.51562  1.0000
  C   C200      1.0  0.20938  0.14215  0.51957  1.0000
  H   H242      1.0  0.41094  0.99236  0.68185  1.0000
  H   H243      1.0  0.21982  0.30596  0.49739  1.0000
  H   H244      1.0  0.26019  0.22184  0.50179  1.0000
  H   H245      1.0  0.25829  0.11021  0.50834  1.0000
  H   H246      1.0  0.20629  0.19069  0.51188  1.0000
  H   H247      1.0  0.99204  0.16500  0.58423  1.0000
  S   S66       1.0  0.00139  0.26801  0.51152  1.0000
  C   C201      1.0  0.20139  0.11423  0.51942  1.0000
  H   H248      1.0  0.41031  0.01693  0.69486  1.0000
  C   C202      1.0  0.28198  0.99848  0.59350  1.0000
  H   H249      1.0  0.12730  0.30631  0.54557  1.0000
  H   H250      1.0  0.08296  0.30583  0.54015  1.0000
  H   H251      1.0  0.27263  0.19648  0.49910  1.0000
  H   H252      1.0  0.19488  0.14952  0.52319  1.0000
  H   H253      1.0  0.19381  0.09325  0.58492  1.0000
  H   H254      1.0  0.15553  0.29692  0.56016  1.0000
  C   C203      1.0  0.24469  0.11932  0.51141  1.0000
  C   C204      1.0  0.26761  0.20169  0.52672  1.0000
  C   C205      1.0  0.21129  0.11132  0.58820  1.0000
  H   H255      1.0  0.05505  0.29453  0.58017  1.0000
  C   C206      1.0  0.40960  0.99625  0.69337  1.0000
  C   C207      1.0  0.21903  0.10288  0.51542  1.0000
  C   C208      1.0  0.16386  0.31254  0.56890  1.0000
  Fe  Fe35      1.0  0.98546  0.26377  0.53377  1.0000
  H   H256      1.0  0.27088  0.17977  0.59830  1.0000
  C   C209      1.0  0.25425  0.16053  0.59562  1.0000
  C   C210      1.0  0.25293  0.08115  0.60219  1.0000
  C   C211      1.0  0.23744  0.11166  0.59047  1.0000
  C   C212      1.0  0.22510  0.29682  0.48835  1.0000
  S   S67       1.0  0.18239  0.00819  0.55927  1.0000
  H   H257      1.0  0.23167  0.22107  0.51973  1.0000
  H   H258      1.0  0.22392  0.04506  0.58189  1.0000
  H   H259      1.0  0.27216  0.09762  0.60627  1.0000
  C   C213      1.0  0.25723  0.99735  0.58780  1.0000
  C   C214      1.0  0.98562  0.26591  0.49451  1.0000
  H   H260      1.0  0.17832  0.09495  0.48970  1.0000
  H   H261      1.0  0.27902  0.13874  0.59659  1.0000
  C   C215      1.0  0.22854  0.15959  0.59297  1.0000
  H   H262      1.0  0.99316  0.30242  0.60030  1.0000
  N   N14       1.0  0.24301  0.08726  0.58857  1.0000
  C   C216      1.0  0.25869  0.13694  0.59451  1.0000
  C   C217      1.0  0.23294  0.03667  0.48670  1.0000
  H   H263      1.0  0.09403  0.30300  0.59664  1.0000
  H   H264      1.0  0.17393  0.05055  0.49767  1.0000
  H   H265      1.0  0.21682  0.19320  0.53041  1.0000
  C   C218      1.0  0.17317  0.05387  0.48649  1.0000
  H   H266      1.0  0.28520  0.19713  0.52432  1.0000
  H   H267      1.0  0.18163  0.10132  0.52284  1.0000
  H   H268      1.0  0.36036  0.99581  0.69045  1.0000
  H   H269      1.0  0.18357  0.31224  0.57230  1.0000
  H   H270      1.0  0.27484  0.22407  0.52754  1.0000
  H   H271      1.0  0.21292  0.08130  0.51560  1.0000
  S   S68       1.0  0.21720  0.99340  0.53488  1.0000
  H   H272      1.0  0.26122  0.19436  0.53737  1.0000
  H   H273      1.0  0.30042  0.01054  0.58859  1.0000
  H   H274      1.0  0.23845  0.18979  0.49354  1.0000
  H   H275      1.0  0.21181  0.99543  0.49201  1.0000
  H   H276      1.0  0.15017  0.30583  0.57776  1.0000
  H   H277      1.0  0.42811  0.99618  0.69865  1.0000
  C   C219      1.0  0.08597  0.31819  0.59581  1.0000
  H   H278      1.0  0.27322  0.15920  0.50860  1.0000
  C   C220      1.0  0.09666  0.32071  0.54786  1.0000
  C   C221      1.0  0.12201  0.32096  0.55116  1.0000
  H   H279      1.0  0.98662  0.20432  0.59204  1.0000
  C   C222      1.0  0.35984  0.99148  0.73391  1.0000
  Fe  Fe36      1.0  0.21235  0.05452  0.90640  1.0000
  S   S69       1.0  0.23954  0.03562  0.91511  1.0000
  S   S70       1.0  0.23257  0.10061  0.90870  1.0000
  Fe  Fe37      1.0  0.22363  0.00552  0.89644  1.0000
  H   H280      1.0  0.32607  0.01024  0.85964  1.0000
  Fe  Fe38      1.0  0.20358  0.00951  0.92673  1.0000
  H   H281      1.0  0.06685  0.29387  0.84390  1.0000
  S   S71       1.0  0.19885  0.02606  0.88704  1.0000
  S   S72       1.0  0.17704  0.02938  0.91889  1.0000
  Fe  Fe39      1.0  0.21402  0.23702  0.89686  1.0000
  S   S73       1.0  0.25399  0.26780  0.90568  1.0000
  S   S74       1.0  0.20795  0.19761  0.88483  1.0000
  Fe  Fe40      1.0  0.18461  0.27170  0.90670  1.0000
  H   H282      1.0  0.24738  0.99469  0.83262  1.0000
  S   S75       1.0  0.14797  0.27866  0.91274  1.0000
  Fe  Fe41      1.0  0.24130  0.29863  0.89578  1.0000
  C   C223      1.0  0.27891  0.29559  0.82257  1.0000
  Fe  Fe42      1.0  0.23156  0.27107  0.92484  1.0000
  S   S76       1.0  0.24298  0.26460  0.94749  1.0000
  S   S77       1.0  0.20223  0.26762  0.88608  1.0000
  S   S78       1.0  0.19252  0.23841  0.91635  1.0000
  Fe  Fe43      1.0  0.99991  0.23984  0.89461  1.0000
  S   S79       1.0  0.01562  0.27938  0.90703  1.0000
  S   S80       1.0  0.02918  0.22475  0.88505  1.0000
  H   H283      1.0  0.27319  0.29339  0.81139  1.0000
  N   N15       1.0  0.14782  0.24193  0.95188  1.0000
  H   H284      1.0  0.26329  0.27970  0.87481  1.0000
  H   H285      1.0  0.99043  0.30656  0.85500  1.0000
  H   H286      1.0  0.23821  0.31761  0.85710  1.0000
  C   C224      1.0  0.23628  0.27649  0.96399  1.0000
  C   C225      1.0  0.23386  0.30106  0.96568  1.0000
  C   C226      1.0  0.23946  0.05177  0.98072  1.0000
  C   C227      1.0  0.23445  0.26122  0.97592  1.0000
  H   H287      1.0  0.22500  0.26896  0.85715  1.0000
  H   H288      1.0  0.23656  0.24232  0.97479  1.0000
  C   C228      1.0  0.11515  0.26200  0.90501  1.0000
  C   C229      1.0  0.10960  0.24628  0.89238  1.0000
  C   C230      1.0  0.08303  0.23442  0.88640  1.0000
  C   C231      1.0  0.06201  0.23808  0.89309  1.0000
  C   C232      1.0  0.06762  0.25320  0.90588  1.0000
  C   C233      1.0  0.09407  0.26532  0.91173  1.0000
  H   H289      1.0  0.12575  0.24355  0.88715  1.0000
  H   H290      1.0  0.07879  0.22255  0.87654  1.0000
  H   H291      1.0  0.05155  0.25533  0.91141  1.0000
  H   H292      1.0  0.28763  0.26528  0.87231  1.0000
  H   H293      1.0  0.02650  0.29755  0.86958  1.0000
  C   C234      1.0  0.10944  0.23591  0.96804  1.0000
  H   H294      1.0  0.24977  0.25667  0.82674  1.0000
  C   C235      1.0  0.21058  0.01273  0.96575  1.0000
  C   C236      1.0  0.23086  0.03886  0.96719  1.0000
  H   H295      1.0  0.24016  0.04896  0.95791  1.0000
  C   C237      1.0  0.22313  0.12642  0.90259  1.0000
  C   C238      1.0  0.23467  0.15213  0.90954  1.0000
  C   C239      1.0  0.22937  0.17379  0.90457  1.0000
  C   C240      1.0  0.21296  0.17021  0.89233  1.0000
  C   C241      1.0  0.20137  0.14448  0.88538  1.0000
  C   C242      1.0  0.20614  0.12262  0.89055  1.0000
  H   H296      1.0  0.24798  0.15541  0.91880  1.0000
  H   H297      1.0  0.23857  0.19343  0.91002  1.0000
  H   H298      1.0  0.18867  0.14143  0.87590  1.0000
  H   H299      1.0  0.19721  0.10306  0.88503  1.0000
  S   S81       1.0  0.98990  0.25273  0.94487  1.0000
  C   C243      1.0  0.13727  0.24336  0.96592  1.0000
  H   H300      1.0  0.24918  0.21380  0.85814  1.0000
  H   H301      1.0  0.20376  0.08790  0.93803  1.0000
  H   H302      1.0  0.22186  0.13371  0.94934  1.0000
  H   H303      1.0  0.17957  0.05343  0.97757  1.0000
  H   H304      1.0  0.18279  0.04819  0.95240  1.0000
  H   H305      1.0  0.37771  0.99319  0.75465  1.0000
  H   H306      1.0  0.18247  0.27965  0.95607  1.0000
  H   H307      1.0  0.25446  0.24472  0.87722  1.0000
  Fe  Fe44      1.0  0.98569  0.28828  0.89347  1.0000
  C   C244      1.0  0.21077  0.12008  0.97027  1.0000
  C   C245      1.0  0.07066  0.31498  0.84491  1.0000
  C   C246      1.0  0.15513  0.25201  0.97809  1.0000
  H   H308      1.0  0.25116  0.22290  0.84021  1.0000
  C   C247      1.0  0.20216  0.09063  0.94929  1.0000
  H   H309      1.0  0.03986  0.27513  0.86194  1.0000
  H   H310      1.0  0.28144  0.23373  0.85136  1.0000
  Fe  Fe45      1.0  0.16600  0.99902  0.90045  1.0000
  H   H311      1.0  0.23559  0.31322  0.95666  1.0000
  H   H312      1.0  0.11235  0.20938  0.94239  1.0000
  H   H313      1.0  0.21859  0.24288  0.84366  1.0000
  C   C248      1.0  0.16585  0.26941  0.94804  1.0000
  C   C249      1.0  0.16341  0.22495  0.95243  1.0000
  C   C250      1.0  0.19021  0.06833  0.95740  1.0000
  H   H314      1.0  0.11502  0.24294  0.93870  1.0000
  H   H315      1.0  0.08794  0.28637  0.86381  1.0000
  H   H316      1.0  0.32012  0.02396  0.83571  1.0000
  H   H317      1.0  0.18266  0.23475  0.95886  1.0000
  H   H318      1.0  0.15152  0.20516  0.95686  1.0000
  H   H319      1.0  0.23671  0.00407  0.85692  1.0000
  H   H320      1.0  0.29922  0.30655  0.86252  1.0000
  H   H321      1.0  0.03945  0.27877  0.88049  1.0000
  H   H322      1.0  0.13531  0.22935  0.93000  1.0000
  C   C251      1.0  0.12654  0.23028  0.94035  1.0000
  H   H323      1.0  0.25540  0.07182  0.98171  1.0000
  C   C252      1.0  0.26559  0.27477  0.83146  1.0000
  H   H324      1.0  0.16929  0.22080  0.94183  1.0000
  C   C253      1.0  0.10021  0.23631  0.98161  1.0000
  N   N16       1.0  0.29473  0.07088  0.88077  1.0000
  C   C254      1.0  0.26547  0.06417  0.87926  1.0000
  C   C255      1.0  0.30007  0.06163  0.89465  1.0000
  C   C256      1.0  0.30962  0.10062  0.88117  1.0000
  C   C257      1.0  0.30266  0.05838  0.86862  1.0000
  C   C258      1.0  0.31266  0.03808  0.87010  1.0000
  C   C259      1.0  0.29957  0.06580  0.85468  1.0000
  C   C260      1.0  0.31928  0.02627  0.85834  1.0000
  C   C261      1.0  0.30611  0.05371  0.84299  1.0000
  C   C262      1.0  0.31592  0.03398  0.84482  1.0000
  H   H325      1.0  0.25379  0.04194  0.87835  1.0000
  H   H326      1.0  0.25835  0.07229  0.88848  1.0000
  H   H327      1.0  0.25994  0.07259  0.86976  1.0000
  H   H328      1.0  0.28806  0.03959  0.89549  1.0000
  H   H329      1.0  0.29430  0.07172  0.90357  1.0000
  H   H330      1.0  0.32179  0.06605  0.89653  1.0000
  H   H331      1.0  0.30460  0.11044  0.89049  1.0000
  H   H332      1.0  0.33178  0.10647  0.88173  1.0000
  H   H333      1.0  0.30463  0.10968  0.87178  1.0000
  H   H334      1.0  0.31472  0.03025  0.88017  1.0000
  H   H335      1.0  0.29152  0.08060  0.85267  1.0000
  H   H336      1.0  0.17543  0.26907  0.93791  1.0000
  N   N17       1.0  0.06974  0.31285  0.87133  1.0000
  H   H337      1.0  0.30302  0.05920  0.83240  1.0000
  C   C263      1.0  0.18843  0.07170  0.97196  1.0000
  N   N18       1.0  0.25693  0.25553  0.85546  1.0000
  C   C264      1.0  0.26609  0.26170  0.87058  1.0000
  C   C265      1.0  0.22793  0.25031  0.85440  1.0000
  C   C266      1.0  0.25984  0.23045  0.85106  1.0000
  C   C267      1.0  0.27212  0.27748  0.84621  1.0000
  H   H338      1.0  0.09819  0.27730  0.92155  1.0000
  H   H339      1.0  0.34257  0.99419  0.73787  1.0000
  H   H340      1.0  0.21603  0.23468  0.86171  1.0000
  C   C268      1.0  0.22977  0.31022  0.97912  1.0000
  H   H341      1.0  0.15460  0.28241  0.94676  1.0000
  C   C269      1.0  0.21239  0.11646  0.95572  1.0000
  S   S82       1.0  0.22289  0.30465  0.91595  1.0000
  C   C270      1.0  0.04275  0.29018  0.87074  1.0000
  C   C271      1.0  0.19885  0.99988  0.97796  1.0000
  H   H342      1.0  0.07888  0.23022  0.98303  1.0000
  C   C272      1.0  0.29319  0.30214  0.85143  1.0000
  H   H343      1.0  0.08969  0.29147  0.88244  1.0000
  H   H344      1.0  0.09440  0.22949  0.95941  1.0000
  C   C273      1.0  0.19855  0.09781  0.97885  1.0000
  H   H345      1.0  0.29564  0.28397  0.97854  1.0000
  C   C274      1.0  0.09055  0.30177  0.87239  1.0000
  H   H346      1.0  0.26998  0.01622  0.98356  1.0000
  H   H347      1.0  0.06964  0.31719  0.89406  1.0000
  S   S83       1.0  0.20013  0.99463  0.94914  1.0000
  C   C275      1.0  0.37963  0.99085  0.74340  1.0000
  C   C276      1.0  0.24692  0.99091  0.85523  1.0000
  H   H348      1.0  0.98876  0.23341  0.97246  1.0000
  H   H349      1.0  0.17659  0.25844  0.97727  1.0000
  C   C277      1.0  0.98432  0.26541  0.96135  1.0000
  H   H350      1.0  0.21950  0.14049  0.97479  1.0000
  C   C278      1.0  0.98542  0.25167  0.97350  1.0000
  H   H351      1.0  0.11117  0.31799  0.87204  1.0000
  C   C279      1.0  0.29923  0.31957  0.82806  1.0000
  H   H352      1.0  0.07006  0.31807  0.82228  1.0000
  Fe  Fe46      1.0  0.98235  0.25864  0.92161  1.0000
  Fe  Fe47      1.0  0.43799  0.39633  0.15501  1.0000
  S   S84       1.0  0.40521  0.41095  0.15835  1.0000
  C   C280      1.0  0.30349  0.35799  0.16187  1.0000
  C   C281      1.0  0.99626  0.34470  0.11597  1.0000
  S   S85       1.0  0.36718  0.35054  0.16628  1.0000
  Fe  Fe48      1.0  0.37723  0.37225  0.14608  1.0000
  S   S86       1.0  0.33927  0.36357  0.13141  1.0000
  Fe  Fe49      1.0  0.39812  0.38701  0.17802  1.0000
  S   S87       1.0  0.39479  0.40446  0.19987  1.0000
  S   S88       1.0  0.41065  0.35925  0.14150  1.0000
  S   S89       1.0  0.43137  0.37355  0.17504  1.0000
  H   H353      1.0  0.33335  0.37963  0.03763  1.0000
  C   C282      1.0  0.39708  0.38957  0.21604  1.0000
  C   C283      1.0  0.00784  0.33691  0.10468  1.0000
  C   C284      1.0  0.31494  0.32801  0.04062  1.0000
  C   C285      1.0  0.39887  0.36465  0.21628  1.0000
  C   C286      1.0  0.28360  0.32641  0.09863  1.0000
  H   H354      1.0  0.40045  0.35469  0.20651  1.0000
  H   H355      1.0  0.39881  0.33264  0.22915  1.0000
  H   H356      1.0  0.33414  0.32564  0.03940  1.0000
  H   H357      1.0  0.01493  0.32542  0.07644  1.0000
  H   H358      1.0  0.27678  0.35412  0.02269  1.0000
  C   C287      1.0  0.32927  0.40160  0.17334  1.0000
  H   H359      1.0  0.28507  0.34522  0.11926  1.0000
  H   H360      1.0  0.01196  0.34948  0.09573  1.0000
  H   H361      1.0  0.31003  0.37884  0.21424  1.0000
  H   H362      1.0  0.35971  0.34415  0.10674  1.0000
  N   N19       1.0  0.31403  0.34802  0.20080  1.0000
  H   H363      1.0  0.45390  0.45394  0.20152  1.0000
  H   H364      1.0  0.27149  0.33657  0.20247  1.0000
  C   C288      1.0  0.32967  0.36773  0.02740  1.0000
  H   H365      1.0  0.06561  0.32348  0.99555  1.0000
  C   C289      1.0  0.39520  0.40220  0.22891  1.0000
  H   H366      1.0  0.32128  0.35650  0.22341  1.0000
  C   C290      1.0  0.31696  0.38579  0.16118  1.0000
  H   H367      1.0  0.29698  0.35314  0.00161  1.0000
  C   C291      1.0  0.98889  0.32902  0.12768  1.0000
  H   H368      1.0  0.07348  0.33001  0.02239  1.0000
  C   C292      1.0  0.29960  0.33449  0.00182  1.0000
  C   C293      1.0  0.32558  0.32584  0.09164  1.0000
  H   H369      1.0  0.46752  0.46706  0.14536  1.0000
  C   C294      1.0  0.39792  0.35216  0.22916  1.0000
  C   C295      1.0  0.31428  0.36140  0.18742  1.0000
  H   H370      1.0  0.33883  0.40319  0.19516  1.0000
  H   H371      1.0  0.46689  0.49380  0.21813  1.0000
  H   H372      1.0  0.35326  0.34905  0.19756  1.0000
  H   H373      1.0  0.04773  0.34299  0.08539  1.0000
  C   C296      1.0  0.32804  0.38974  0.18629  1.0000
  H   H374      1.0  0.39364  0.42141  0.22886  1.0000
  Fe  Fe50      1.0  0.40109  0.33847  0.16199  1.0000
  C   C297      1.0  0.32259  0.36706  0.21341  1.0000
  H   H375      1.0  0.34051  0.42314  0.17265  1.0000
  C   C298      1.0  0.03251  0.32286  0.08146  1.0000
  H   H376      1.0  0.34894  0.36659  0.02464  1.0000
  H   H377      1.0  0.31735  0.34038  0.05059  1.0000
  H   H378      1.0  0.32473  0.37969  0.01939  1.0000
  H   H379      1.0  0.26544  0.32272  0.03085  1.0000
  C   C299      1.0  0.32405  0.34614  0.11482  1.0000
  H   H380      1.0  0.34402  0.38138  0.21321  1.0000
  C   C300      1.0  0.33846  0.33898  0.10468  1.0000
  C   C301      1.0  0.29653  0.33972  0.11164  1.0000
  H   H381      1.0  0.31859  0.39495  0.15107  1.0000
  N   N20       1.0  0.30796  0.34036  0.02821  1.0000
  C   C302      1.0  0.47046  0.47276  0.19932  1.0000
  C   C303      1.0  0.33271  0.33444  0.19993  1.0000
  H   H382      1.0  0.29488  0.34577  0.15222  1.0000
  C   C304      1.0  0.28238  0.34291  0.03089  1.0000
  C   C305      1.0  0.47777  0.49527  0.20862  1.0000
  H   H383      1.0  0.47836  0.45710  0.17967  1.0000
  H   H384      1.0  0.99198  0.36248  0.11542  1.0000
  H   H385      1.0  0.28319  0.35332  0.04131  1.0000
  C   C306      1.0  0.30235  0.34586  0.17474  1.0000
  C   C307      1.0  0.30481  0.32457  0.01473  1.0000
  H   H386      1.0  0.26251  0.32184  0.09643  1.0000
  C   C308      1.0  0.28656  0.32756  0.20317  1.0000
  H   H387      1.0  0.33458  0.32523  0.21000  1.0000
  H   H388      1.0  0.29293  0.32414  0.17451  1.0000
  Fe  Fe51      1.0  0.37312  0.35900  0.31093  1.0000
  S   S90       1.0  0.41399  0.37344  0.32223  1.0000
  C   C309      1.0  0.45964  0.44998  0.26750  1.0000
  Fe  Fe52      1.0  0.39791  0.35920  0.28135  1.0000
  S   S91       1.0  0.43964  0.37193  0.29126  1.0000
  S   S92       1.0  0.39322  0.34692  0.25773  1.0000
  Fe  Fe53      1.0  0.42003  0.34267  0.30786  1.0000
  Fe  Fe54      1.0  0.43000  0.40165  0.30443  1.0000
  S   S93       1.0  0.45678  0.44702  0.30444  1.0000
  H   H389      1.0  0.98393  0.36049  0.37955  1.0000
  S   S94       1.0  0.38832  0.38963  0.29399  1.0000
  H   H390      1.0  0.35650  0.45377  0.42189  1.0000
  C   C310      1.0  0.04781  0.34451  0.37418  1.0000
  H   H391      1.0  0.31556  0.37496  0.44546  1.0000
  H   H392      1.0  0.34063  0.40323  0.38408  1.0000
  C   C311      1.0  0.34652  0.43409  0.41649  1.0000
  S   S95       1.0  0.37903  0.32753  0.29709  1.0000
  C   C312      1.0  0.33435  0.34302  0.35109  1.0000
  H   H393      1.0  0.44862  0.45666  0.25946  1.0000
  H   H394      1.0  0.46916  0.46675  0.27560  1.0000
  C   C313      1.0  0.39564  0.36454  0.24201  1.0000
  H   H395      1.0  0.02163  0.36162  0.39301  1.0000
  H   H396      1.0  0.02389  0.33117  0.39817  1.0000
  H   H397      1.0  0.30751  0.33257  0.41233  1.0000
  H   H398      1.0  0.05684  0.36692  0.37521  1.0000
  H   H399      1.0  0.25654  0.33455  0.42293  1.0000
  H   H400      1.0  0.33524  0.34266  0.37389  1.0000
  C   C314      1.0  0.00886  0.34148  0.35046  1.0000
  H   H401      1.0  0.39257  0.39950  0.25162  1.0000
  C   C315      1.0  0.32251  0.33642  0.36430  1.0000
  S   S96       1.0  0.33185  0.34382  0.32138  1.0000
  C   C316      1.0  0.31830  0.33549  0.33850  1.0000
  H   H402      1.0  0.31140  0.36457  0.39648  1.0000
  C   C317      1.0  0.98866  0.35800  0.36878  1.0000
  H   H403      1.0  0.28704  0.38302  0.44090  1.0000
  C   C318      1.0  0.27093  0.35176  0.41733  1.0000
  C   C319      1.0  0.39455  0.38981  0.24184  1.0000
  C   C320      1.0  0.29580  0.36788  0.43944  1.0000
  N   N21       1.0  0.29835  0.36224  0.42425  1.0000
  C   C321      1.0  0.35047  0.43093  0.40222  1.0000
  H   H404      1.0  0.99843  0.34760  0.32909  1.0000
  H   H405      1.0  0.35586  0.35439  0.35070  1.0000
  H   H406      1.0  0.99188  0.33026  0.39269  1.0000
  C   C322      1.0  0.33768  0.40574  0.39521  1.0000
  H   H407      1.0  0.26289  0.36759  0.41717  1.0000
  C   C323      1.0  0.01370  0.33955  0.39050  1.0000
  H   H408      1.0  0.28196  0.34945  0.44453  1.0000
  H   H409      1.0  0.44440  0.43325  0.27309  1.0000
  C   C324      1.0  0.31635  0.38607  0.41694  1.0000
  C   C325      1.0  0.30869  0.34086  0.42334  1.0000
  H   H410      1.0  0.47775  0.40886  0.24674  1.0000
  N   N22       1.0  0.01824  0.33353  0.37567  1.0000
  C   C326      1.0  0.46420  0.41704  0.25169  1.0000
  H   H411      1.0  0.33010  0.34863  0.42734  1.0000
  H   H412      1.0  0.05322  0.33839  0.36386  1.0000
  H   H413      1.0  0.27040  0.34426  0.40623  1.0000
  C   C327      1.0  0.32091  0.38365  0.40243  1.0000
  C   C328      1.0  0.32972  0.41207  0.42381  1.0000
  H   H414      1.0  0.32753  0.41596  0.43482  1.0000
  H   H415      1.0  0.36343  0.44803  0.39657  1.0000
  C   C329      1.0  0.99622  0.35093  0.34022  1.0000
  H   H416      1.0  0.48029  0.41695  0.27819  1.0000
  C   C330      1.0  0.00548  0.34471  0.36508  1.0000
  H   H417      1.0  0.44977  0.40046  0.25773  1.0000
  H   H418      1.0  0.45187  0.42112  0.24323  1.0000
  H   H419      1.0  0.29688  0.32341  0.42966  1.0000
  H   H420      1.0  0.05793  0.33704  0.38238  1.0000
  N   N23       1.0  0.47954  0.44154  0.26092  1.0000
  H   H421      1.0  0.02076  0.33099  0.34681  1.0000
  C   C331      1.0  0.29447  0.32186  0.36522  1.0000
  H   H422      1.0  0.32805  0.47707  0.60948  1.0000
  H   H423      1.0  0.14423  0.37411  0.57557  1.0000
  H   H424      1.0  0.26369  0.32147  0.59736  1.0000
  Fe  Fe55      1.0  0.30402  0.43507  0.64794  1.0000
  S   S97       1.0  0.29603  0.47171  0.64324  1.0000
  S   S98       1.0  0.29540  0.39737  0.63315  1.0000
  Fe  Fe56      1.0  0.32862  0.45876  0.67800  1.0000
  S   S99       1.0  0.32245  0.49647  0.67481  1.0000
  S   S100      1.0  0.35098  0.45912  0.69886  1.0000
  Fe  Fe57      1.0  0.28175  0.46907  0.66536  1.0000
  S   S101      1.0  0.24764  0.47719  0.67452  1.0000
  Fe  Fe58      1.0  0.33787  0.49602  0.65326  1.0000
  S   S102      1.0  0.36571  0.53616  0.64453  1.0000
  S   S103      1.0  0.28698  0.43101  0.66968  1.0000
  S   S104      1.0  0.34672  0.45974  0.65681  1.0000
  Fe  Fe59      1.0  0.06319  0.47953  0.65409  1.0000
  S   S105      1.0  0.03887  0.44190  0.66549  1.0000
  S   S106      1.0  0.04597  0.51169  0.65415  1.0000
  Fe  Fe60      1.0  0.10699  0.45959  0.64838  1.0000
  S   S107      1.0  0.08641  0.42218  0.65990  1.0000
  S   S108      1.0  0.14300  0.46033  0.63699  1.0000
  Fe  Fe61      1.0  0.04880  0.41885  0.64769  1.0000
  S   S109      1.0  0.02604  0.37616  0.63726  1.0000
  Fe  Fe62      1.0  0.07860  0.44842  0.67641  1.0000
  S   S110      1.0  0.09274  0.44879  0.69953  1.0000
  S   S111      1.0  0.06988  0.45587  0.63564  1.0000
  S   S112      1.0  0.10247  0.48652  0.66563  1.0000
  C   C332      1.0  0.07690  0.44620  0.71587  1.0000
  C   C333      1.0  0.05004  0.44269  0.71669  1.0000
  H   H425      1.0  0.14221  0.39342  0.71879  1.0000
  C   C334      1.0  0.09204  0.44783  0.72847  1.0000
  H   H426      1.0  0.03805  0.44125  0.70712  1.0000
  C   C335      1.0  0.15678  0.44877  0.69490  1.0000
  C   C336      1.0  0.01360  0.36257  0.61968  1.0000
  C   C337      1.0  0.00932  0.37798  0.60910  1.0000
  H   H427      1.0  0.10980  0.40651  0.68755  1.0000
  C   C338      1.0  0.34161  0.41476  0.57620  1.0000
  H   H428      1.0  0.17812  0.46240  0.69354  1.0000
  H   H429      1.0  0.11908  0.38156  0.69523  1.0000
  C   C339      1.0  0.33436  0.45021  0.71489  1.0000
  C   C340      1.0  0.30635  0.43659  0.71506  1.0000
  C   C341      1.0  0.34973  0.45656  0.72776  1.0000
  H   H430      1.0  0.29430  0.43137  0.70523  1.0000
  H   H431      1.0  0.37143  0.46644  0.72771  1.0000
  C   C342      1.0  0.21973  0.47392  0.66348  1.0000
  C   C343      1.0  0.21487  0.46069  0.65014  1.0000
  C   C344      1.0  0.19138  0.45688  0.64200  1.0000
  C   C345      1.0  0.17246  0.46581  0.64729  1.0000
  C   C346      1.0  0.17738  0.47912  0.66060  1.0000
  C   C347      1.0  0.20120  0.48355  0.66856  1.0000
  H   H432      1.0  0.22913  0.45330  0.64613  1.0000
  H   H433      1.0  0.18780  0.44681  0.63165  1.0000
  H   H434      1.0  0.16317  0.48656  0.66461  1.0000
  H   H435      1.0  0.20539  0.49461  0.67865  1.0000
  C   C348      1.0  0.40130  0.55508  0.64620  1.0000
  C   C349      1.0  0.41936  0.54272  0.64726  1.0000
  C   C350      1.0  0.44739  0.55835  0.64713  1.0000
  C   C351      1.0  0.45785  0.58660  0.64642  1.0000
  C   C352      1.0  0.43981  0.59901  0.64581  1.0000
  C   C353      1.0  0.41175  0.58329  0.64546  1.0000
  H   H436      1.0  0.41174  0.52109  0.64782  1.0000
  H   H437      1.0  0.44744  0.62065  0.64517  1.0000
  H   H438      1.0  0.39801  0.59308  0.64449  1.0000
  H   H439      1.0  0.01755  0.43733  0.73045  1.0000
  C   C354      1.0  0.27682  0.35495  0.61297  1.0000
  C   C355      1.0  0.27976  0.38151  0.61633  1.0000
  C   C356      1.0  0.27140  0.39480  0.60605  1.0000
  C   C357      1.0  0.26065  0.38183  0.59266  1.0000
  H   H440      1.0  0.03538  0.58972  0.61068  1.0000
  H   H441      1.0  0.27367  0.41525  0.60831  1.0000
  H   H442      1.0  0.05949  0.61867  0.60265  1.0000
  C   C358      1.0  0.08721  0.60396  0.65034  1.0000
  C   C359      1.0  0.06167  0.59180  0.65578  1.0000
  C   C360      1.0  0.04927  0.56356  0.65669  1.0000
  C   C361      1.0  0.06251  0.54715  0.65257  1.0000
  C   C362      1.0  0.08835  0.55938  0.64751  1.0000
  C   C363      1.0  0.10044  0.58755  0.64624  1.0000
  H   H443      1.0  0.05133  0.60411  0.65914  1.0000
  H   H444      1.0  0.02929  0.55435  0.66065  1.0000
  H   H445      1.0  0.09882  0.54709  0.64429  1.0000
  H   H446      1.0  0.12020  0.59671  0.64202  1.0000
  H   H447      1.0  0.21636  0.48101  0.73218  1.0000
  H   H448      1.0  0.03065  0.51280  0.69909  1.0000
  C   C364      1.0  0.17125  0.41515  0.70321  1.0000
  H   H449      1.0  0.11283  0.45057  0.72800  1.0000
  H   H450      1.0  0.37832  0.48105  0.58390  1.0000
  C   C365      1.0  0.04532  0.51992  0.69067  1.0000
  H   H451      1.0  0.11727  0.40906  0.70588  1.0000
  C   C366      1.0  0.18138  0.39745  0.72515  1.0000
  C   C367      1.0  0.38272  0.49956  0.60929  1.0000
  H   H452      1.0  0.06213  0.61262  0.70898  1.0000
  H   H453      1.0  0.14415  0.45391  0.68702  1.0000
  H   H454      1.0  0.27239  0.41783  0.72794  1.0000
  H   H455      1.0  0.03921  0.53289  0.68383  1.0000
  H   H456      1.0  0.39038  0.55545  0.67709  1.0000
  C   C368      1.0  0.99302  0.33876  0.59210  1.0000
  N   N24       1.0  0.07335  0.53394  0.69676  1.0000
  H   H457      1.0  0.20277  0.35824  0.57840  1.0000
  C   C369      1.0  0.99896  0.36611  0.59548  1.0000
  C   C370      1.0  0.37870  0.46267  0.62353  1.0000
  H   H458      1.0  0.18803  0.38050  0.57316  1.0000
  H   H459      1.0  0.41439  0.49845  0.69675  1.0000
  H   H460      1.0  0.01072  0.32298  0.62435  1.0000
  C   C371      1.0  0.15694  0.41409  0.67842  1.0000
  H   H461      1.0  0.01349  0.39893  0.61147  1.0000
  H   H462      1.0  0.10026  0.37330  0.56924  1.0000
  C   C372      1.0  0.26568  0.34183  0.59966  1.0000
  N   N25       1.0  0.15231  0.42007  0.69326  1.0000
  C   C373      1.0  0.06851  0.59713  0.71241  1.0000
  H   H463      1.0  0.46155  0.53096  0.69807  1.0000
  H   H464      1.0  0.34423  0.48682  0.62678  1.0000
  C   C374      1.0  0.18305  0.35943  0.57607  1.0000
  C   C375      1.0  0.33349  0.40614  0.58957  1.0000
  H   H465      1.0  0.06812  0.50301  0.71155  1.0000
  N   N26       1.0  0.03395  0.62799  0.61678  1.0000
  C   C376      1.0  0.35790  0.44180  0.57444  1.0000
  H   H466      1.0  0.37895  0.51038  0.68626  1.0000
  H   H467      1.0  0.38764  0.51330  0.61896  1.0000
  H   H468      1.0  0.99540  0.37821  0.58750  1.0000
  C   C377      1.0  0.08770  0.57915  0.73052  1.0000
  H   H469      1.0  0.40226  0.50093  0.60534  1.0000
  C   C378      1.0  0.06426  0.35661  0.59376  1.0000
  H   H470      1.0  0.14182  0.41603  0.67082  1.0000
  S   S113      1.0  0.10284  0.63919  0.64781  1.0000
  C   C379      1.0  0.08890  0.33953  0.55438  1.0000
  C   C380      1.0  0.06657  0.57603  0.70299  1.0000
  C   C381      1.0  0.08579  0.55788  0.72118  1.0000
  H   H471      1.0  0.39668  0.46034  0.61954  1.0000
  H   H472      1.0  0.37292  0.50808  0.60152  1.0000
  C   C382      1.0  0.35778  0.45226  0.59983  1.0000
  H   H473      1.0  0.32627  0.45192  0.62163  1.0000
  C   C383      1.0  0.00764  0.33522  0.61631  1.0000
  C   C384      1.0  0.08113  0.51310  0.70284  1.0000
  C   C385      1.0  0.19924  0.42549  0.70083  1.0000
  C   C386      1.0  0.21745  0.42118  0.71012  1.0000
  H   H474      1.0  0.03576  0.32844  0.57838  1.0000
  H   H475      1.0  0.20748  0.43722  0.69181  1.0000
  H   H476      1.0  0.23868  0.42896  0.70791  1.0000
  H   H477      1.0  0.07466  0.37039  0.62965  1.0000
  N   N27       1.0  0.09919  0.38762  0.61225  1.0000
  C   C387      1.0  0.09631  0.38130  0.62734  1.0000
  C   C388      1.0  0.12827  0.40144  0.60959  1.0000
  C   C389      1.0  0.08685  0.40707  0.60966  1.0000
  C   C390      1.0  0.08682  0.36231  0.60332  1.0000
  H   H478      1.0  0.00279  0.59486  0.62631  1.0000
  H   H479      1.0  0.30932  0.49041  0.72432  1.0000
  C   C391      1.0  0.04874  0.61143  0.61247  1.0000
  H   H480      1.0  0.36536  0.44314  0.62778  1.0000
  H   H481      1.0  0.43640  0.58880  0.67831  1.0000
  C   C392      1.0  0.24649  0.48732  0.71751  1.0000
  H   H482      1.0  0.10686  0.36853  0.63055  1.0000
  H   H483      1.0  0.10472  0.39997  0.63436  1.0000
  H   H484      1.0  0.13127  0.40533  0.59821  1.0000
  H   H485      1.0  0.13991  0.38975  0.61295  1.0000
  H   H486      1.0  0.13787  0.42127  0.61558  1.0000
  C   C393      1.0  0.13172  0.35883  0.56782  1.0000
  H   H487      1.0  0.09706  0.42610  0.61631  1.0000
  H   H488      1.0  0.08814  0.41283  0.59849  1.0000
  H   H489      1.0  0.43676  0.59769  0.73061  1.0000
  C   C394      1.0  0.40613  0.55070  0.68204  1.0000
  H   H490      1.0  0.08664  0.56136  0.67983  1.0000
  C   C395      1.0  0.20855  0.40718  0.72225  1.0000
  C   C396      1.0  0.07506  0.55567  0.70709  1.0000
  H   H491      1.0  0.15152  0.45367  0.70556  1.0000
  C   C397      1.0  0.07903  0.59868  0.72615  1.0000
  C   C398      1.0  0.36592  0.46042  0.58604  1.0000
  C   C399      1.0  0.39962  0.52520  0.68709  1.0000
  H   H492      1.0  0.47669  0.61970  0.69152  1.0000
  H   H493      1.0  0.23380  0.48843  0.70869  1.0000
  N   N28       1.0  0.36481  0.47140  0.61229  1.0000
  H   H494      1.0  0.10262  0.52158  0.70674  1.0000
  H   H495      1.0  0.05440  0.37019  0.59262  1.0000
  H   H496      1.0  0.11294  0.55601  0.68925  1.0000
  H   H497      1.0  0.04275  0.50199  0.68374  1.0000
  C   C400      1.0  0.41975  0.51854  0.69299  1.0000
  H   H498      1.0  0.32058  0.38512  0.59093  1.0000
  C   C401      1.0  0.05317  0.33248  0.58550  1.0000
  C   C402      1.0  0.34148  0.42451  0.60122  1.0000
  H   H499      1.0  0.46104  0.54842  0.64747  1.0000
  C   C403      1.0  0.12349  0.40343  0.69564  1.0000
  C   C404      1.0  0.09154  0.54596  0.68523  1.0000
  H   H500      1.0  0.09008  0.53051  0.67688  1.0000
  H   H501      1.0  0.20350  0.34701  0.55379  1.0000
  C   C405      1.0  0.43287  0.56975  0.68281  1.0000
  H   H502      1.0  0.07899  0.49681  0.69481  1.0000
  C   C406      1.0  0.28911  0.48858  0.72626  1.0000
  H   H503      1.0  0.15598  0.39331  0.67701  1.0000
  H   H504      1.0  0.17671  0.42827  0.67488  1.0000
  H   H505      1.0  0.28328  0.34439  0.62074  1.0000
  C   C407      1.0  0.16291  0.40138  0.71585  1.0000
  H   H506      1.0  0.38556  0.47747  0.63276  1.0000
  C   C408      1.0  0.33977  0.47176  0.61777  1.0000
  H   H507      1.0  0.17330  0.33051  0.54297  1.0000
  C   C409      1.0  0.25762  0.35521  0.58932  1.0000
  H   H508      1.0  0.36416  0.44840  0.56399  1.0000
  C   C410      1.0  0.14023  0.33979  0.56137  1.0000
  H   H509      1.0  0.27976  0.49274  0.70447  1.0000
  C   C411      1.0  0.29396  0.42896  0.72796  1.0000
  C   C412      1.0  0.10645  0.35866  0.56426  1.0000
  H   H510      1.0  0.09318  0.54366  0.72516  1.0000
  H   H511      1.0  0.33437  0.41682  0.61134  1.0000
  H   H512      1.0  0.06539  0.39883  0.61246  1.0000
  H   H513      1.0  0.25483  0.39263  0.58477  1.0000
  H   H514      1.0  0.05875  0.57604  0.69235  1.0000
  C   C413      1.0  0.44660  0.53736  0.69375  1.0000
  H   H515      1.0  0.33511  0.40042  0.56719  1.0000
  C   C414      1.0  0.27251  0.48988  0.71508  1.0000
  H   H516      1.0  0.06411  0.61220  0.62079  1.0000
  H   H517      1.0  0.18484  0.36575  0.54778  1.0000
  H   H518      1.0  0.47933  0.60937  0.67360  1.0000
  H   H519      1.0  0.06920  0.33924  0.55176  1.0000
  C   C415      1.0  0.18280  0.34601  0.55173  1.0000
  H   H520      1.0  0.00648  0.62778  0.63259  1.0000
  C   C416      1.0  0.23674  0.48297  0.73109  1.0000
  H   H521      1.0  0.41036  0.56039  0.71419  1.0000
  C   C417      1.0  0.03845  0.44045  0.72995  1.0000
  S   S114      1.0  0.24434  0.34020  0.57202  1.0000
  N   N29       1.0  0.16702  0.33962  0.56456  1.0000
  H   H522      1.0  0.08076  0.61528  0.73337  1.0000
  H   H523      1.0  0.22276  0.40390  0.72942  1.0000
  C   C418      1.0  0.45403  0.56362  0.68871  1.0000
  C   C419      1.0  0.99760  0.32344  0.60264  1.0000
  H   H524      1.0  0.17238  0.35558  0.58609  1.0000
  C   C420      1.0  0.01776  0.61580  0.62895  1.0000
  H   H525      1.0  0.99639  0.58544  0.60065  1.0000
  C   C421      1.0  0.01573  0.62899  0.60506  1.0000
  C   C422      1.0  0.09726  0.34226  0.60413  1.0000
  H   H526      1.0  0.11400  0.34490  0.61136  1.0000
  H   H527      1.0  0.03075  0.61487  0.63806  1.0000
  C   C423      1.0  0.99748  0.60491  0.59778  1.0000
  H   H528      1.0  0.06884  0.65358  0.62987  1.0000
  H   H529      1.0  0.38731  0.51431  0.72231  1.0000
  C   C424      1.0  0.41220  0.55674  0.72526  1.0000
  C   C425      1.0  0.39917  0.53071  0.72982  1.0000
  C   C426      1.0  0.01455  0.65345  0.60099  1.0000
  C   C427      1.0  0.99693  0.65379  0.59000  1.0000
  C   C428      1.0  0.02173  0.37234  0.86636  1.0000
  S   S115      1.0  0.05052  0.61534  0.80719  1.0000
  H   H530      1.0  0.25911  0.44704  0.84309  1.0000
  Fe  Fe63      1.0  0.30875  0.44053  0.77923  1.0000
  S   S116      1.0  0.32287  0.48439  0.78562  1.0000
  S   S117      1.0  0.29261  0.42472  0.75670  1.0000
  Fe  Fe64      1.0  0.30667  0.42365  0.81080  1.0000
  S   S118      1.0  0.32142  0.46707  0.81898  1.0000
  S   S119      1.0  0.28677  0.38416  0.82261  1.0000
  Fe  Fe65      1.0  0.29257  0.47065  0.80235  1.0000
  S   S120      1.0  0.26474  0.49177  0.80606  1.0000
  Fe  Fe66      1.0  0.35074  0.47723  0.80141  1.0000
  S   S121      1.0  0.39619  0.50400  0.80251  1.0000
  S   S122      1.0  0.27666  0.42738  0.79503  1.0000
  S   S123      1.0  0.33790  0.43325  0.79418  1.0000
  Fe  Fe67      1.0  0.08240  0.48093  0.80649  1.0000
  S   S124      1.0  0.03987  0.45105  0.80066  1.0000
  S   S125      1.0  0.09839  0.52589  0.81325  1.0000
  Fe  Fe68      1.0  0.10597  0.44057  0.79822  1.0000
  S   S126      1.0  0.06525  0.40872  0.79147  1.0000
  S   S127      1.0  0.13865  0.42535  0.79563  1.0000
  Fe  Fe69      1.0  0.05786  0.44167  0.78106  1.0000
  S   S128      1.0  0.03793  0.43882  0.75900  1.0000
  Fe  Fe70      1.0  0.05112  0.42022  0.81175  1.0000
  S   S129      1.0  0.02440  0.38236  0.82345  1.0000
  S   S130      1.0  0.09955  0.47276  0.78644  1.0000
  S   S131      1.0  0.09260  0.45086  0.81889  1.0000
  C   C429      1.0  0.01970  0.36839  0.84055  1.0000
  C   C430      1.0  0.05051  0.56329  0.76126  1.0000
  H   H531      1.0  0.13486  0.40016  0.83332  1.0000
  C   C431      1.0  0.02756  0.38436  0.85316  1.0000
  H   H532      1.0  0.39113  0.50551  0.74756  1.0000
  H   H533      1.0  0.03756  0.40603  0.85274  1.0000
  C   C432      1.0  0.22964  0.47372  0.80280  1.0000
  C   C433      1.0  0.21240  0.48717  0.80347  1.0000
  C   C434      1.0  0.18430  0.47279  0.80117  1.0000
  C   C435      1.0  0.17347  0.44492  0.79821  1.0000
  C   C436      1.0  0.19077  0.43171  0.79730  1.0000
  C   C437      1.0  0.21863  0.44602  0.79961  1.0000
  H   H534      1.0  0.22072  0.50866  0.80595  1.0000
  H   H535      1.0  0.17104  0.48314  0.80188  1.0000
  H   H536      1.0  0.18249  0.41017  0.79499  1.0000
  H   H537      1.0  0.23148  0.43545  0.79905  1.0000
  C   C438      1.0  0.44509  0.59624  0.80689  1.0000
  C   C439      1.0  0.45723  0.57903  0.80280  1.0000
  C   C440      1.0  0.44179  0.55096  0.80118  1.0000
  C   C441      1.0  0.41398  0.53972  0.80342  1.0000
  C   C442      1.0  0.40168  0.55704  0.80705  1.0000
  C   C443      1.0  0.41722  0.58508  0.80891  1.0000
  C   C444      1.0  0.45665  0.62293  0.75403  1.0000
  H   H538      1.0  0.45154  0.53775  0.79846  1.0000
  H   H539      1.0  0.38038  0.54874  0.80888  1.0000
  C   C445      1.0  0.25918  0.34783  0.84232  1.0000
  C   C446      1.0  0.28114  0.37240  0.84016  1.0000
  C   C447      1.0  0.29851  0.38586  0.85179  1.0000
  C   C448      1.0  0.29464  0.37431  0.86514  1.0000
  H   H540      1.0  0.03223  0.55285  0.75480  1.0000
  H   H541      1.0  0.31557  0.40466  0.85040  1.0000
  H   H542      1.0  0.30880  0.38455  0.87389  1.0000
  C   C449      1.0  0.27307  0.34943  0.86723  1.0000
  C   C450      1.0  0.05349  0.44165  0.74254  1.0000
  C   C451      1.0  0.25496  0.33660  0.85575  1.0000
  H   H543      1.0  0.23950  0.44893  0.77364  1.0000
  C   C452      1.0  0.15591  0.41401  0.83421  1.0000
  H   H544      1.0  0.00012  0.32758  0.83184  1.0000
  C   C453      1.0  0.06622  0.54999  0.76682  1.0000
  H   H545      1.0  0.27089  0.46060  0.76593  1.0000
  H   H546      1.0  0.25563  0.51950  0.76170  1.0000
  C   C454      1.0  0.06431  0.59093  0.80930  1.0000
  C   C455      1.0  0.04710  0.56340  0.80737  1.0000
  C   C456      1.0  0.05703  0.54325  0.80875  1.0000
  C   C457      1.0  0.08445  0.55037  0.81193  1.0000
  C   C458      1.0  0.10160  0.57789  0.81409  1.0000
  C   C459      1.0  0.09163  0.59807  0.81281  1.0000
  H   H547      1.0  0.02587  0.55762  0.80487  1.0000
  H   H548      1.0  0.04339  0.52222  0.80756  1.0000
  H   H549      1.0  0.12278  0.58366  0.81674  1.0000
  H   H550      1.0  0.10509  0.61910  0.81448  1.0000
  C   C460      1.0  0.00823  0.34418  0.86725  1.0000
  C   C461      1.0  0.08010  0.36943  0.84612  1.0000
  C   C462      1.0  0.41642  0.54696  0.75374  1.0000
  H   H551      1.0  0.04514  0.60047  0.76030  1.0000
  H   H552      1.0  0.40758  0.59816  0.81208  1.0000
  H   H553      1.0  0.29339  0.48347  0.74816  1.0000
  N   N30       1.0  0.24370  0.47702  0.75729  1.0000
  C   C463      1.0  0.24912  0.45485  0.76344  1.0000
  C   C464      1.0  0.25856  0.50211  0.76610  1.0000
  C   C465      1.0  0.21439  0.47005  0.75819  1.0000
  C   C466      1.0  0.08046  0.44560  0.74171  1.0000
  H   H554      1.0  0.20784  0.46605  0.76922  1.0000
  H   H555      1.0  0.14714  0.44909  0.83308  1.0000
  C   C467      1.0  0.20379  0.42189  0.83535  1.0000
  C   C468      1.0  0.09645  0.59339  0.77838  1.0000
  S   S132      1.0  0.46389  0.63156  0.81011  1.0000
  H   H556      1.0  0.25177  0.50016  0.77711  1.0000
  S   S133      1.0  0.27080  0.33482  0.88411  1.0000
  H   H557      1.0  0.46805  0.63903  0.76223  1.0000
  H   H558      1.0  0.20905  0.48684  0.75501  1.0000
  H   H559      1.0  0.01728  0.50806  0.75665  1.0000
  H   H560      1.0  0.23539  0.38290  0.82338  1.0000
  C   C469      1.0  0.42971  0.57382  0.74950  1.0000
  C   C470      1.0  0.16278  0.44160  0.83412  1.0000
  H   H561      1.0  0.22824  0.32940  0.98032  1.0000
  H   H562      1.0  0.47861  0.58719  0.80123  1.0000
  C   C471      1.0  0.08917  0.56584  0.77567  1.0000
  H   H563      1.0  0.03236  0.48630  0.75105  1.0000
  H   H564      1.0  0.42027  0.57869  0.77758  1.0000
  C   C472      1.0  0.08064  0.60580  0.77282  1.0000
  H   H565      1.0  0.34931  0.45444  0.75052  1.0000
  C   C473      1.0  0.07714  0.35578  0.83308  1.0000
  H   H566      1.0  0.20043  0.37173  0.82546  1.0000
  H   H567      1.0  0.16962  0.38268  0.83520  1.0000
  H   H568      1.0  0.04236  0.48480  0.77598  1.0000
  H   H569      1.0  0.21680  0.39802  0.81371  1.0000
  N   N31       1.0  0.05871  0.52075  0.76426  1.0000
  H   H570      1.0  0.10111  0.55689  0.78106  1.0000
  H   H571      1.0  0.09106  0.52735  0.75038  1.0000
  H   H572      1.0  0.08567  0.62689  0.77553  1.0000
  H   H573      1.0  0.44064  0.62838  0.74931  1.0000
  H   H574      1.0  0.07928  0.36754  0.86829  1.0000
  H   H575      1.0  0.08295  0.39039  0.84648  1.0000
  H   H576      1.0  0.24044  0.39045  0.85017  1.0000
  C   C474      1.0  0.03662  0.50795  0.75324  1.0000
  H   H577      1.0  0.09846  0.52120  0.76821  1.0000
  C   C475      1.0  0.27967  0.48440  0.73988  1.0000
  C   C476      1.0  0.42732  0.57807  0.73488  1.0000
  C   C477      1.0  0.30650  0.32272  0.84242  1.0000
  C   C478      1.0  0.05773  0.59079  0.76428  1.0000
  H   H578      1.0  0.03291  0.51136  0.78178  1.0000
  H   H579      1.0  0.48172  0.58990  0.75827  1.0000
  H   H580      1.0  0.19501  0.48099  0.83465  1.0000
  H   H581      1.0  0.41749  0.54205  0.76465  1.0000
  C   C479      1.0  0.17604  0.40423  0.83504  1.0000
  H   H582      1.0  0.09231  0.44658  0.75128  1.0000
  H   H583      1.0  0.32182  0.34173  0.84670  1.0000
  H   H584      1.0  0.46097  0.57187  0.77205  1.0000
  C   C480      1.0  0.43030  0.56176  0.84018  1.0000
  C   C481      1.0  0.45269  0.58635  0.84243  1.0000
  H   H585      1.0  0.06620  0.51351  0.78589  1.0000
  H   H586      1.0  0.29222  0.32781  0.97924  1.0000
  C   C482      1.0  0.07785  0.35591  0.85862  1.0000
  H   H587      1.0  0.28061  0.50738  0.76691  1.0000
  H   H588      1.0  0.41621  0.51939  0.83466  1.0000
  H   H589      1.0  0.02743  0.38507  0.87595  1.0000
  H   H590      1.0  0.22837  0.41339  0.85838  1.0000
  C   C483      1.0  0.25307  0.48113  0.74271  1.0000
  H   H591      1.0  0.07775  0.36617  0.82343  1.0000
  C   C484      1.0  0.04966  0.50705  0.77754  1.0000
  C   C485      1.0  0.08228  0.51581  0.75973  1.0000
  H   H592      1.0  0.07671  0.49408  0.75698  1.0000
  H   H593      1.0  0.41010  0.56105  0.84046  1.0000
  H   H594      1.0  0.04179  0.51802  0.74308  1.0000
  C   C486      1.0  0.33725  0.44967  0.74071  1.0000
  C   C487      1.0  0.18978  0.45953  0.83497  1.0000
  C   C488      1.0  0.21899  0.39006  0.82409  1.0000
  C   C489      1.0  0.30929  0.43551  0.74084  1.0000
  H   H595      1.0  0.20213  0.45151  0.75157  1.0000
  C   C490      1.0  0.43368  0.53822  0.83692  1.0000
  H   H596      1.0  0.24180  0.43656  0.75616  1.0000
  C   C491      1.0  0.40132  0.52582  0.74403  1.0000
  H   H597      1.0  0.25376  0.44222  0.82410  1.0000
  H   H598      1.0  0.26753  0.42279  0.83387  1.0000
  H   H599      1.0  0.23053  0.46508  0.83566  1.0000
  H   H600      1.0  0.40936  0.59942  0.76696  1.0000
  C   C492      1.0  0.42746  0.59708  0.77138  1.0000
  H   H601      1.0  0.43815  0.61428  0.77918  1.0000
  N   N32       1.0  0.22471  0.41094  0.83570  1.0000
  C   C493      1.0  0.25239  0.43173  0.83411  1.0000
  C   C494      1.0  0.00643  0.34021  0.84147  1.0000
  H   H602      1.0  0.24563  0.33705  0.83345  1.0000
  C   C495      1.0  0.45950  0.53907  0.83599  1.0000
  C   C496      1.0  0.22457  0.39846  0.84936  1.0000
  C   C497      1.0  0.21010  0.44999  0.83553  1.0000
  H   H603      1.0  0.20501  0.38132  0.85087  1.0000
  N   N33       1.0  0.44517  0.59592  0.76005  1.0000
  H   H604      1.0  0.44843  0.60386  0.84440  1.0000
  H   H605      1.0  0.30894  0.33606  0.82124  1.0000
  H   H606      1.0  0.46190  0.52072  0.83314  1.0000
  H   H607      1.0  0.47144  0.62412  0.74597  1.0000
  C   C498      1.0  0.46790  0.59095  0.76644  1.0000
  H   H608      1.0  0.11375  0.60495  0.78542  1.0000
  H   H609      1.0  0.05638  0.33739  0.88473  1.0000
  S   S134      1.0  0.99995  0.33046  0.88429  1.0000
  C   C499      1.0  0.07261  0.32865  0.83247  1.0000
  H   H610      1.0  0.48023  0.60741  0.77432  1.0000
  C   C500      1.0  0.00092  0.32817  0.85466  1.0000
  C   C501      1.0  0.07223  0.32933  0.88455  1.0000
  H   H611      1.0  0.09241  0.34636  0.88598  1.0000
  H   H612      1.0  0.09628  0.58080  0.74118  1.0000
  C   C502      1.0  0.07290  0.32810  0.85838  1.0000
  C   C503      1.0  0.47937  0.58794  0.84161  1.0000
  C   C504      1.0  0.48205  0.56348  0.83834  1.0000
  H   H613      1.0  0.17454  0.38661  0.73465  1.0000
  C   C505      1.0  0.00589  0.78028  0.11288  1.0000
  C   C506      1.0  0.03509  0.92340  0.05977  1.0000
  C   C507      1.0  0.98900  0.76851  0.13653  1.0000
  H   H614      1.0  0.02011  0.90274  0.05927  1.0000
  H   H615      1.0  0.04139  0.83321  0.11745  1.0000
  C   C508      1.0  0.98856  0.73352  0.12016  1.0000
  Fe  Fe71      1.0  0.00773  0.82649  0.05521  1.0000
  S   S135      1.0  0.04377  0.86035  0.06699  1.0000
  S   S136      1.0  0.00339  0.78348  0.05266  1.0000
  H   H616      1.0  0.07602  0.96919  0.03840  1.0000
  S   S137      1.0  0.14217  0.95453  0.03955  1.0000
  H   H617      1.0  0.05294  0.83726  0.09997  1.0000
  C   C509      1.0  0.07099  0.88645  0.05919  1.0000
  C   C510      1.0  0.09060  0.90698  0.06794  1.0000
  C   C511      1.0  0.11239  0.92808  0.06220  1.0000
  C   C512      1.0  0.11492  0.92886  0.04757  1.0000
  C   C513      1.0  0.09525  0.90838  0.03883  1.0000
  C   C514      1.0  0.07341  0.88737  0.04456  1.0000
  H   H618      1.0  0.08898  0.90653  0.07926  1.0000
  H   H619      1.0  0.12743  0.94344  0.06910  1.0000
  H   H620      1.0  0.09697  0.90875  0.02751  1.0000
  H   H621      1.0  0.05852  0.87181  0.03768  1.0000
  H   H622      1.0  0.03455  0.92824  0.08223  1.0000
  H   H623      1.0  0.05788  0.81286  0.11076  1.0000
  C   C515      1.0  0.04348  0.82195  0.10792  1.0000
  C   C516      1.0  0.06352  0.96404  0.07349  1.0000
  H   H624      1.0  0.04089  0.92353  0.03753  1.0000
  C   C517      1.0  0.06578  0.86247  0.00059  1.0000
  H   H625      1.0  0.00597  0.82893  0.09108  1.0000
  H   H626      1.0  0.03071  0.80600  0.08103  1.0000
  H   H627      1.0  0.99546  0.82475  0.10877  1.0000
  C   C518      1.0  0.04684  0.93515  0.04752  1.0000
  H   H628      1.0  0.00295  0.77479  0.08358  1.0000
  C   C519      1.0  0.04217  0.84096  0.99568  1.0000
  H   H629      1.0  0.09762  0.89980  0.99560  1.0000
  H   H630      1.0  0.00431  0.80839  0.12942  1.0000
  N   N34       1.0  0.01728  0.80095  0.10235  1.0000
  C   C520      1.0  0.04339  0.93780  0.07271  1.0000
  C   C521      1.0  0.99964  0.75248  0.11000  1.0000
  S   S138      1.0  0.99210  0.76710  0.01092  1.0000
  H   H631      1.0  0.23801  0.96949  0.98678  1.0000
  H   H632      1.0  0.03658  0.78038  0.09004  1.0000
  C   C522      1.0  0.02208  0.78993  0.08870  1.0000
  H   H633      1.0  0.06921  0.97385  0.08388  1.0000
  H   H634      1.0  0.07379  0.86298  0.01127  1.0000
  S   S139      1.0  0.98933  0.82654  0.03367  1.0000
  H   H635      1.0  0.23431  0.95046  0.01033  1.0000
  C   C523      1.0  0.00032  0.78771  0.12650  1.0000
  H   H636      1.0  0.03185  0.82467  0.00254  1.0000
  C   C524      1.0  0.07914  0.88317  0.99173  1.0000
  C   C525      1.0  0.99847  0.81388  0.09934  1.0000
  H   H637      1.0  0.00240  0.74463  0.09986  1.0000
  C   C526      1.0  0.07605  0.97659  0.06118  1.0000
  C   C527      1.0  0.06701  0.96131  0.04816  1.0000
  C   C528      1.0  0.24881  0.97085  0.00893  1.0000
  H   H638      1.0  0.26184  0.97710  0.03047  1.0000
  H   H639      1.0  0.98450  0.77455  0.14679  1.0000
  C   C529      1.0  0.25090  0.98147  0.99565  1.0000
  C   C530      1.0  0.26484  0.98654  0.02047  1.0000
  C   C531      1.0  0.98305  0.74145  0.13334  1.0000
  H   H640      1.0  0.98348  0.71235  0.11766  1.0000
  H   H641      1.0  0.20360  0.97740  0.46709  1.0000
  C   C532      1.0  0.06809  0.77884  0.40987  1.0000
  H   H642      1.0  0.08704  0.87772  0.44731  1.0000
  H   H643      1.0  0.03354  0.78569  0.47696  1.0000
  H   H644      1.0  0.02013  0.75344  0.35945  1.0000
  Fe  Fe72      1.0  0.01667  0.82424  0.40269  1.0000
  S   S140      1.0  0.06141  0.85280  0.40682  1.0000
  C   C533      1.0  0.23893  0.95395  0.37019  1.0000
  C   C534      1.0  0.02521  0.77453  0.36335  1.0000
  H   H645      1.0  0.02271  0.71509  0.40129  1.0000
  S   S141      1.0  0.15458  0.95168  0.37910  1.0000
  C   C535      1.0  0.08561  0.88167  0.39908  1.0000
  C   C536      1.0  0.08324  0.88749  0.38496  1.0000
  C   C537      1.0  0.10429  0.90915  0.37905  1.0000
  C   C538      1.0  0.12760  0.92582  0.38726  1.0000
  C   C539      1.0  0.12957  0.92044  0.40147  1.0000
  C   C540      1.0  0.10893  0.89833  0.40725  1.0000
  H   H646      1.0  0.06545  0.87507  0.37852  1.0000
  H   H647      1.0  0.10245  0.91309  0.36806  1.0000
  H   H648      1.0  0.14737  0.93285  0.40793  1.0000
  H   H649      1.0  0.11114  0.89403  0.41815  1.0000
  C   C541      1.0  0.02160  0.84917  0.45561  1.0000
  C   C542      1.0  0.25591  0.97446  0.34808  1.0000
  C   C543      1.0  0.05172  0.75180  0.41146  1.0000
  H   H650      1.0  0.05121  0.74307  0.42161  1.0000
  C   C544      1.0  0.20825  0.94215  0.34991  1.0000
  C   C545      1.0  0.05145  0.77517  0.38513  1.0000
  C   C546      1.0  0.07212  0.78264  0.36280  1.0000
  H   H651      1.0  0.06721  0.76074  0.36112  1.0000
  H   H652      1.0  0.09252  0.79213  0.36822  1.0000
  H   H653      1.0  0.08129  0.81148  0.39649  1.0000
  C   C547      1.0  0.02481  0.85218  0.47035  1.0000
  C   C548      1.0  0.07320  0.87391  0.46855  1.0000
  H   H654      1.0  0.05616  0.82503  0.36257  1.0000
  C   C549      1.0  0.01331  0.78479  0.47605  1.0000
  N   N35       1.0  0.23226  0.96427  0.35694  1.0000
  H   H655      1.0  0.01209  0.78417  0.45318  1.0000
  H   H656      1.0  0.02426  0.78540  0.35376  1.0000
  H   H657      1.0  0.22097  0.94486  0.37668  1.0000
  H   H658      1.0  0.23605  0.95303  0.32804  1.0000
  H   H659      1.0  0.07329  0.79125  0.35223  1.0000
  C   C550      1.0  0.04397  0.85846  0.44737  1.0000
  C   C551      1.0  0.05083  0.86489  0.47729  1.0000
  H   H660      1.0  0.24677  0.93832  0.36789  1.0000
  H   H661      1.0  0.04625  0.82109  0.38045  1.0000
  H   H662      1.0  0.02285  0.73406  0.37860  1.0000
  S   S142      1.0  0.00413  0.78177  0.40995  1.0000
  C   C552      1.0  0.03574  0.74740  0.38700  1.0000
  C   C553      1.0  0.00121  0.78394  0.46254  1.0000
  H   H663      1.0  0.21286  0.92473  0.34658  1.0000
  C   C554      1.0  0.03569  0.73608  0.40002  1.0000
  H   H664      1.0  0.04138  0.85579  0.43595  1.0000
  C   C555      1.0  0.25435  0.96722  0.33342  1.0000
  H   H665      1.0  0.08042  0.82846  0.37621  1.0000
  H   H666      1.0  0.00881  0.77432  0.37007  1.0000
  C   C556      1.0  0.06824  0.79039  0.39691  1.0000
  C   C557      1.0  0.06972  0.87079  0.45382  1.0000
  H   H667      1.0  0.08033  0.79117  0.41883  1.0000
  N   N36       1.0  0.05182  0.78709  0.37127  1.0000
  C   C558      1.0  0.05897  0.81658  0.37271  1.0000
  H   H668      1.0  0.20033  0.94911  0.34059  1.0000
  H   H669      1.0  0.19115  0.93451  0.35708  1.0000
  H   H670      1.0  0.25423  0.97009  0.37719  1.0000
  H   H671      1.0  0.09361  0.88314  0.47305  1.0000
  S   S143      1.0  0.98676  0.83198  0.41594  1.0000
  H   H672      1.0  0.00658  0.84373  0.47602  1.0000
  H   H673      1.0  0.00161  0.83895  0.45053  1.0000
  H   H674      1.0  0.27497  0.97349  0.31394  1.0000
  S   S144      1.0  0.98848  0.81073  0.38315  1.0000
  H   H675      1.0  0.20629  0.97982  0.36697  1.0000
  C   C559      1.0  0.27664  0.97883  0.32514  1.0000
  C   C560      1.0  0.22452  0.98672  0.36063  1.0000
  H   H676      1.0  0.25891  0.85516  0.68364  1.0000
  H   H677      1.0  0.07362  0.90024  0.50894  1.0000
  S   S145      1.0  0.02084  0.75666  0.57256  1.0000
  Fe  Fe73      1.0  0.00857  0.83344  0.54979  1.0000
  S   S146      1.0  0.02875  0.87846  0.55500  1.0000
  S   S147      1.0  0.02954  0.80666  0.54487  1.0000
  H   H678      1.0  0.27284  0.84556  0.69871  1.0000
  S   S148      1.0  0.14503  0.94282  0.53197  1.0000
  H   H679      1.0  0.38429  0.94264  0.68563  1.0000
  Fe  Fe74      1.0  0.06416  0.68981  0.67987  1.0000
  S   S149      1.0  0.10694  0.69592  0.67667  1.0000
  S   S150      1.0  0.04327  0.67547  0.70044  1.0000
  Fe  Fe75      1.0  0.05533  0.70294  0.64864  1.0000
  S   S151      1.0  0.09747  0.70928  0.64364  1.0000
  S   S152      1.0  0.02445  0.70906  0.63349  1.0000
  Fe  Fe76      1.0  0.11002  0.73216  0.66470  1.0000
  S   S153      1.0  0.13887  0.77626  0.66828  1.0000
  S   S154      1.0  0.06799  0.72741  0.66925  1.0000
  Fe  Fe77      1.0  0.29328  0.92899  0.67466  1.0000
  S   S155      1.0  0.31407  0.90147  0.67109  1.0000
  S   S156      1.0  0.28120  0.93811  0.69643  1.0000
  Fe  Fe78      1.0  0.28555  0.93528  0.64217  1.0000
  S   S157      1.0  0.30647  0.90789  0.63676  1.0000
  S   S158      1.0  0.25946  0.94818  0.62671  1.0000
  Fe  Fe79      1.0  0.28212  0.88180  0.65367  1.0000
  S   S159      1.0  0.26052  0.83612  0.65161  1.0000
  Fe  Fe80      1.0  0.33681  0.93005  0.65474  1.0000
  S   S160      1.0  0.38327  0.94856  0.65683  1.0000
  S   S161      1.0  0.26001  0.90765  0.65823  1.0000
  S   S162      1.0  0.31722  0.95917  0.65921  1.0000
  C   C561      1.0  0.44990  0.91834  0.64786  1.0000
  C   C562      1.0  0.45523  0.94125  0.65668  1.0000
  C   C563      1.0  0.43452  0.94992  0.65942  1.0000
  C   C564      1.0  0.40807  0.93557  0.65363  1.0000
  C   C565      1.0  0.40258  0.91225  0.64510  1.0000
  C   C566      1.0  0.42342  0.90390  0.64213  1.0000
  Fe  Fe81      1.0  0.99931  0.77639  0.55825  1.0000
  H   H680      1.0  0.17666  0.95046  0.55700  1.0000
  H   H681      1.0  0.38244  0.90107  0.64048  1.0000
  H   H682      1.0  0.41897  0.88624  0.63523  1.0000
  C   C567      1.0  0.17198  0.79201  0.66251  1.0000
  C   C568      1.0  0.18659  0.77741  0.65803  1.0000
  C   C569      1.0  0.21360  0.79113  0.65445  1.0000
  C   C570      1.0  0.22601  0.81945  0.65513  1.0000
  C   C571      1.0  0.21098  0.83390  0.65914  1.0000
  C   C572      1.0  0.18426  0.82027  0.66299  1.0000
  H   H683      1.0  0.17737  0.75561  0.65766  1.0000
  H   H684      1.0  0.22504  0.77976  0.65130  1.0000
  H   H685      1.0  0.22003  0.85558  0.65951  1.0000
  H   H686      1.0  0.17317  0.83175  0.66649  1.0000
  H   H687      1.0  0.98452  0.90155  0.55823  1.0000
  H   H688      1.0  0.20704  0.90480  0.54265  1.0000
  H   H689      1.0  0.34074  0.91953  0.73099  1.0000
  C   C573      1.0  0.19066  0.94617  0.56430  1.0000
  N   N37       1.0  0.23549  0.84938  0.70221  1.0000
  H   H690      1.0  0.43913  0.96806  0.66594  1.0000
  C   C574      1.0  0.06130  0.89628  0.54880  1.0000
  C   C575      1.0  0.07543  0.92387  0.55251  1.0000
  C   C576      1.0  0.10126  0.93849  0.54756  1.0000
  C   C577      1.0  0.11301  0.92557  0.53880  1.0000
  C   C578      1.0  0.09893  0.89798  0.53515  1.0000
  C   C579      1.0  0.07319  0.88341  0.54010  1.0000
  H   H691      1.0  0.06637  0.93400  0.55922  1.0000
  H   H692      1.0  0.11192  0.95975  0.55041  1.0000
  H   H693      1.0  0.10793  0.88784  0.52842  1.0000
  H   H694      1.0  0.06254  0.86223  0.53715  1.0000
  C   C580      1.0  0.02134  0.74363  0.58963  1.0000
  C   C581      1.0  0.04364  0.73827  0.59403  1.0000
  C   C582      1.0  0.04529  0.72833  0.60746  1.0000
  C   C583      1.0  0.02435  0.72308  0.61666  1.0000
  C   C584      1.0  0.00198  0.72824  0.61223  1.0000
  C   C585      1.0  0.00053  0.73861  0.59889  1.0000
  H   H695      1.0  0.05988  0.74202  0.58699  1.0000
  H   H696      1.0  0.06243  0.72409  0.61050  1.0000
  C   C586      1.0  0.38304  0.98213  0.71400  1.0000
  C   C587      1.0  0.32364  0.92470  0.72948  1.0000
  C   C588      1.0  0.05853  0.68583  0.71772  1.0000
  C   C589      1.0  0.08444  0.70617  0.72004  1.0000
  H   H697      1.0  0.20114  0.85988  0.70039  1.0000
  H   H698      1.0  0.25946  0.90740  0.59966  1.0000
  H   H699      1.0  0.09605  0.71535  0.71114  1.0000
  C   C590      1.0  0.31359  0.92548  0.71568  1.0000
  C   C591      1.0  0.29249  0.93361  0.71357  1.0000
  C   C592      1.0  0.21894  0.82086  0.69750  1.0000
  H   H700      1.0  0.32248  0.92035  0.70668  1.0000
  H   H701      1.0  0.26399  0.94540  0.72392  1.0000
  H   H702      1.0  0.24718  0.94992  0.56511  1.0000
  N   N38       1.0  0.10298  0.79474  0.63264  1.0000
  C   C593      1.0  0.11564  0.77591  0.62907  1.0000
  C   C594      1.0  0.12396  0.81999  0.63921  1.0000
  C   C595      1.0  0.08306  0.78212  0.64342  1.0000
  C   C596      1.0  0.09100  0.80084  0.61969  1.0000
  C   C597      1.0  0.06336  0.79636  0.61812  1.0000
  C   C598      1.0  0.10723  0.81187  0.60814  1.0000
  C   C599      1.0  0.05281  0.80236  0.60570  1.0000
  C   C600      1.0  0.09630  0.81730  0.59568  1.0000
  C   C601      1.0  0.06912  0.81244  0.59445  1.0000
  H   H703      1.0  0.13281  0.78470  0.62215  1.0000
  H   H704      1.0  0.12400  0.77017  0.63867  1.0000
  H   H705      1.0  0.10072  0.75705  0.62364  1.0000
  H   H706      1.0  0.13256  0.81629  0.64934  1.0000
  H   H707      1.0  0.11553  0.83514  0.64153  1.0000
  H   H708      1.0  0.14122  0.82929  0.63238  1.0000
  H   H709      1.0  0.06698  0.76261  0.63928  1.0000
  H   H710      1.0  0.09264  0.77757  0.65296  1.0000
  H   H711      1.0  0.07355  0.79562  0.64718  1.0000
  H   H712      1.0  0.04921  0.78758  0.62615  1.0000
  H   H713      1.0  0.12844  0.81606  0.60862  1.0000
  H   H714      1.0  0.03153  0.79806  0.60453  1.0000
  H   H715      1.0  0.10881  0.82494  0.58682  1.0000
  H   H716      1.0  0.06043  0.81588  0.58464  1.0000
  N   N39       1.0  0.46298  0.82755  0.63415  1.0000
  C   C602      1.0  0.28319  0.98389  0.60541  1.0000
  C   C603      1.0  0.23809  0.85197  0.71784  1.0000
  S   S163      1.0  0.01566  0.78586  0.50514  1.0000
  C   C604      1.0  0.26341  0.86282  0.72556  1.0000
  C   C605      1.0  0.20134  0.89503  0.58034  1.0000
  C   C606      1.0  0.38508  0.94893  0.69697  1.0000
  C   C607      1.0  0.26168  0.85778  0.69539  1.0000
  H   H717      1.0  0.44791  0.85595  0.62627  1.0000
  H   H718      1.0  0.21872  0.81752  0.68587  1.0000
  C   C608      1.0  0.28047  0.93928  0.72542  1.0000
  C   C609      1.0  0.01226  0.72041  0.72881  1.0000
  C   C610      1.0  0.25959  0.96791  0.61189  1.0000
  C   C611      1.0  0.20343  0.92290  0.54580  1.0000
  H   H719      1.0  0.27455  0.87953  0.69775  1.0000
  H   H720      1.0  0.16496  0.87901  0.55625  1.0000
  H   H721      1.0  0.03573  0.72938  0.71039  1.0000
  H   H722      1.0  0.40368  0.94823  0.70175  1.0000
  S   S164      1.0  0.04710  0.66429  0.65969  1.0000
  H   H723      1.0  0.18045  0.88128  0.58050  1.0000
  Fe  Fe82      1.0  0.09010  0.67208  0.65603  1.0000
  H   H724      1.0  0.98553  0.72413  0.61917  1.0000
  C   C612      1.0  0.22210  0.86652  0.69698  1.0000
  H   H725      1.0  0.23342  0.88792  0.70087  1.0000
  H   H726      1.0  0.45910  0.85156  0.65183  1.0000
  H   H727      1.0  0.42040  0.97884  0.72061  1.0000
  H   H728      1.0  0.28228  0.86988  0.72045  1.0000
  H   H729      1.0  0.42133  0.81793  0.63832  1.0000
  C   C613      1.0  0.48143  0.81510  0.62981  1.0000
  H   H730      1.0  0.18306  0.94544  0.57509  1.0000
  H   H731      1.0  0.22097  0.86630  0.68525  1.0000
  H   H732      1.0  0.34204  0.96022  0.69288  1.0000
  H   H733      1.0  0.42619  0.79637  0.62507  1.0000
  H   H734      1.0  0.36755  0.93330  0.70175  1.0000
  H   H735      1.0  0.19479  0.83541  0.72070  1.0000
  N   N40       1.0  0.19261  0.92059  0.56009  1.0000
  H   H736      1.0  0.07165  0.85188  0.50935  1.0000
  C   C614      1.0  0.21887  0.89203  0.59062  1.0000
  C   C615      1.0  0.02971  0.85963  0.50044  1.0000
  H   H737      1.0  0.47333  0.82793  0.65625  1.0000
  H   H738      1.0  0.15208  0.90281  0.55062  1.0000
  Fe  Fe83      1.0  0.99918  0.78971  0.52654  1.0000
  C   C616      1.0  0.16483  0.89901  0.55899  1.0000
  H   H739      1.0  0.22697  0.80710  0.70238  1.0000
  H   H740      1.0  0.19748  0.81407  0.70011  1.0000
  C   C617      1.0  0.47321  0.78673  0.62801  1.0000
  N   N41       1.0  0.05513  0.86811  0.49287  1.0000
  H   H741      1.0  0.18932  0.92513  0.53763  1.0000
  C   C618      1.0  0.24611  0.90921  0.59138  1.0000
  H   H742      1.0  0.22262  0.94093  0.54506  1.0000
  C   C619      1.0  0.04374  0.67416  0.72946  1.0000
  H   H743      1.0  0.15419  0.89793  0.56891  1.0000
  C   C620      1.0  0.46268  0.84722  0.62373  1.0000
  H   H744      1.0  0.01776  0.87117  0.49728  1.0000
  H   H745      1.0  0.98318  0.74247  0.59572  1.0000
  H   H746      1.0  0.47544  0.95269  0.66114  1.0000
  C   C621      1.0  0.03550  0.73374  0.72161  1.0000
  H   H747      1.0  0.04515  0.66777  0.62655  1.0000
  C   C622      1.0  0.23867  0.93289  0.57167  1.0000
  H   H748      1.0  0.02366  0.65845  0.72778  1.0000
  H   H749      1.0  0.30238  0.98485  0.60952  1.0000
  H   H750      1.0  0.09262  0.90399  0.49374  1.0000
  H   H751      1.0  0.05841  0.83013  0.49383  1.0000
  C   C623      1.0  0.99938  0.78430  0.48835  1.0000
  C   C624      1.0  0.43470  0.80780  0.63530  1.0000
  H   H752      1.0  0.27712  0.94319  0.58271  1.0000
  H   H753      1.0  0.21050  0.96370  0.56433  1.0000
  H   H754      1.0  0.03361  0.86270  0.51211  1.0000
  C   C625      1.0  0.21079  0.91566  0.57052  1.0000
  C   C626      1.0  0.21471  0.84371  0.72583  1.0000
  H   H755      1.0  0.01701  0.83775  0.49849  1.0000
  C   C627      1.0  0.25603  0.92940  0.58183  1.0000
  H   H756      1.0  0.21129  0.87666  0.59827  1.0000
  H   H757      1.0  0.43314  0.79330  0.64360  1.0000
  C   C628      1.0  0.06954  0.85159  0.49763  1.0000
  H   H758      1.0  0.40001  0.92163  0.73202  1.0000
  H   H759      1.0  0.45303  0.77246  0.62978  1.0000
  H   H760      1.0  0.99442  0.70591  0.72306  1.0000
  H   H761      1.0  0.99652  0.67280  0.58710  1.0000
  C   C629      1.0  0.23489  0.96719  0.60632  1.0000
  H   H762      1.0  0.02683  0.67267  0.60621  1.0000
  C   C630      1.0  0.07167  0.89680  0.49724  1.0000
  H   H763      1.0  0.21460  0.98132  0.59058  1.0000
  H   H764      1.0  0.44073  0.91342  0.73375  1.0000
  C   C631      1.0  0.40325  0.98235  0.72395  1.0000
  H   H765      1.0  0.45739  0.83765  0.61288  1.0000
  H   H766      1.0  0.06254  0.91011  0.49288  1.0000
  Fe  Fe84      1.0  0.17385  0.98613  0.53793  1.0000
  H   H767      1.0  0.36359  0.97143  0.67857  1.0000
  C   C632      1.0  0.23370  0.98184  0.59445  1.0000
  H   H768      1.0  0.09012  0.85857  0.49363  1.0000
  H   H769      1.0  0.06668  0.66574  0.61281  1.0000
  C   C633      1.0  0.09507  0.71526  0.73393  1.0000
  H   H770      1.0  0.34483  0.98720  0.71277  1.0000
  H   H771      1.0  0.21649  0.95512  0.61126  1.0000
  N   N42       1.0  0.38461  0.97595  0.69883  1.0000
  C   C634      1.0  0.36161  0.97588  0.68989  1.0000
  C   C635      1.0  0.47250  0.84192  0.64814  1.0000
  C   C636      1.0  0.36140  0.98727  0.71941  1.0000
  C   C637      1.0  0.05880  0.75173  0.72896  1.0000
  H   H772      1.0  0.07708  0.76128  0.72335  1.0000
  S   S165      1.0  0.47574  0.90776  0.64305  1.0000
  C   C638      1.0  0.05449  0.65500  0.62164  1.0000
  Fe  Fe85      1.0  0.01137  0.82910  0.90865  1.0000
  S   S166      1.0  0.05432  0.85939  0.91403  1.0000
  S   S167      1.0  0.00641  0.78917  0.91699  1.0000
  Fe  Fe86      1.0  0.29035  0.93551  0.80936  1.0000
  S   S168      1.0  0.28716  0.89562  0.81719  1.0000
  Fe  Fe87      1.0  0.30887  0.92465  0.77989  1.0000
  S   S169      1.0  0.30595  0.88434  0.78616  1.0000
  S   S170      1.0  0.32773  0.93327  0.75836  1.0000
  Fe  Fe88      1.0  0.26719  0.87862  0.79583  1.0000
  S   S171      1.0  0.23161  0.83964  0.78892  1.0000
  Fe  Fe89      1.0  0.32668  0.90468  0.80671  1.0000
  S   S172      1.0  0.35834  0.88958  0.81421  1.0000
  S   S173      1.0  0.26839  0.91773  0.78821  1.0000
  S   S174      1.0  0.33146  0.94582  0.80030  1.0000
  Fe  Fe90      1.0  0.08240  0.70422  0.78506  1.0000
  S   S175      1.0  0.10772  0.68639  0.79648  1.0000
  S   S176      1.0  0.09372  0.71823  0.76281  1.0000
  Fe  Fe91      1.0  0.05433  0.70969  0.81271  1.0000
  S   S177      1.0  0.07752  0.69149  0.82555  1.0000
  S   S178      1.0  0.02917  0.73175  0.82132  1.0000
  Fe  Fe92      1.0  0.11332  0.71792  0.81373  1.0000
  S   S179      1.0  0.15201  0.74698  0.82520  1.0000
  S   S180      1.0  0.09060  0.73729  0.80178  1.0000
  S   S181      1.0  0.04373  0.67808  0.79472  1.0000
  Fe  Fe93      1.0  0.06959  0.66144  0.80699  1.0000
  H   H773      1.0  0.13195  0.75080  0.85289  1.0000
  H   H774      1.0  0.19477  0.92805  0.82075  1.0000
  C   C639      1.0  0.20869  0.81560  0.79958  1.0000
  C   C640      1.0  0.21234  0.81669  0.81430  1.0000
  C   C641      1.0  0.19468  0.79573  0.82213  1.0000
  C   C642      1.0  0.17297  0.77393  0.81534  1.0000
  C   C643      1.0  0.16877  0.77345  0.80071  1.0000
  C   C644      1.0  0.18667  0.79406  0.79288  1.0000
  H   H775      1.0  0.22890  0.83339  0.81963  1.0000
  H   H776      1.0  0.19803  0.79624  0.83345  1.0000
  H   H777      1.0  0.15222  0.75673  0.79533  1.0000
  H   H778      1.0  0.18365  0.79306  0.78151  1.0000
  C   C645      1.0  0.39354  0.90569  0.81158  1.0000
  C   C646      1.0  0.40570  0.93238  0.80764  1.0000
  C   C647      1.0  0.40985  0.89146  0.81381  1.0000
  H   H779      1.0  0.39352  0.94367  0.80597  1.0000
  H   H780      1.0  0.40074  0.87086  0.81694  1.0000
  C   C648      1.0  0.19508  0.92372  0.83182  1.0000
  C   C649      1.0  0.27470  0.95793  0.85036  1.0000
  H   H781      1.0  0.28561  0.94540  0.84864  1.0000
  C   C650      1.0  0.07275  0.89131  0.90729  1.0000
  C   C651      1.0  0.09826  0.90726  0.91363  1.0000
  C   C652      1.0  0.11394  0.93273  0.90870  1.0000
  C   C653      1.0  0.10440  0.94245  0.89725  1.0000
  C   C654      1.0  0.07890  0.92646  0.89083  1.0000
  C   C655      1.0  0.06304  0.90099  0.89586  1.0000
  H   H782      1.0  0.10592  0.89996  0.92249  1.0000
  H   H783      1.0  0.13332  0.94490  0.91388  1.0000
  H   H784      1.0  0.07130  0.93389  0.88200  1.0000
  H   H785      1.0  0.04339  0.88890  0.89091  1.0000
  C   C656      1.0  0.01971  0.73428  0.83904  1.0000
  C   C657      1.0  0.01596  0.71406  0.84854  1.0000
  C   C658      1.0  0.00644  0.71584  0.86205  1.0000
  C   C659      1.0  0.00103  0.73807  0.86645  1.0000
  C   C660      1.0  0.00576  0.75881  0.85714  1.0000
  C   C661      1.0  0.01467  0.75672  0.84349  1.0000
  H   H786      1.0  0.01954  0.69656  0.84533  1.0000
  H   H787      1.0  0.01743  0.77252  0.83629  1.0000
  S   S182      1.0  0.19022  0.97757  0.90897  1.0000
  N   N43       1.0  0.16520  0.93596  0.86568  1.0000
  C   C662      1.0  0.13618  0.92404  0.86109  1.0000
  C   C663      1.0  0.17529  0.96569  0.86572  1.0000
  C   C664      1.0  0.18077  0.92682  0.85587  1.0000
  C   C665      1.0  0.19807  0.91452  0.86048  1.0000
  C   C666      1.0  0.21310  0.90692  0.85094  1.0000
  C   C667      1.0  0.21168  0.91159  0.83666  1.0000
  H   H788      1.0  0.22422  0.90669  0.82939  1.0000
  H   H789      1.0  0.28043  0.82399  0.78746  1.0000
  C   C668      1.0  0.17977  0.93118  0.84123  1.0000
  H   H790      1.0  0.16773  0.94111  0.83699  1.0000
  H   H791      1.0  0.13556  0.76890  0.86960  1.0000
  C   C669      1.0  0.12110  0.75814  0.86060  1.0000
  H   H792      1.0  0.10524  0.73978  0.86464  1.0000
  H   H793      1.0  0.14857  0.80973  0.85522  1.0000
  H   H794      1.0  0.06717  0.74619  0.86976  1.0000
  N   N44       1.0  0.10978  0.77593  0.85401  1.0000
  H   H795      1.0  0.31505  0.83420  0.79273  1.0000
  C   C670      1.0  0.07070  0.80406  0.88579  1.0000
  H   H796      1.0  0.14156  0.78929  0.83929  1.0000
  C   C671      1.0  0.13212  0.79765  0.84733  1.0000
  C   C672      1.0  0.07480  0.76768  0.87207  1.0000
  C   C673      1.0  0.09653  0.78604  0.86477  1.0000
  C   C674      1.0  0.06230  0.77664  0.88248  1.0000
  H   H797      1.0  0.04578  0.76220  0.88794  1.0000
  H   H798      1.0  0.29617  0.80047  0.78560  1.0000
  C   C675      1.0  0.29001  0.93778  0.73924  1.0000
  C   C676      1.0  0.03181  0.84015  0.98191  1.0000
  N   N45       1.0  0.03305  0.85943  0.95809  1.0000
  H   H799      1.0  0.30538  0.84869  0.81549  1.0000
  C   C677      1.0  0.10469  0.81396  0.86843  1.0000
  H   H800      1.0  0.09934  0.75355  0.83388  1.0000
  H   H801      1.0  0.07401  0.74137  0.84632  1.0000
  C   C678      1.0  0.08977  0.76011  0.84259  1.0000
  H   H802      1.0  0.12481  0.81117  0.84165  1.0000
  C   C679      1.0  0.03214  0.83500  0.95026  1.0000
  C   C680      1.0  0.30910  0.80123  0.81326  1.0000
  H   H803      1.0  0.07931  0.77204  0.83793  1.0000
  H   H804      1.0  0.02867  0.72377  0.78527  1.0000
  H   H805      1.0  0.32923  0.81831  0.81265  1.0000
  H   H806      1.0  0.06077  0.81089  0.89380  1.0000
  C   C681      1.0  0.00517  0.85776  0.95871  1.0000
  C   C682      1.0  0.43280  0.92207  0.76894  1.0000
  H   H807      1.0  0.12093  0.82947  0.86346  1.0000
  C   C683      1.0  0.08011  0.70400  0.74567  1.0000
  C   C684      1.0  0.29497  0.81682  0.79251  1.0000
  H   H808      1.0  0.30673  0.79735  0.82465  1.0000
  C   C685      1.0  0.09182  0.82267  0.87878  1.0000
  N   N46       1.0  0.28723  0.80769  0.80691  1.0000
  H   H809      1.0  0.09818  0.84399  0.88147  1.0000
  C   C686      1.0  0.28593  0.83059  0.81524  1.0000
  H   H810      1.0  0.27015  0.83639  0.81058  1.0000
  H   H811      1.0  0.28121  0.82592  0.82639  1.0000
  H   H812      1.0  0.08043  0.89907  0.97158  1.0000
  H   H813      1.0  0.28098  0.94287  0.74824  1.0000
  C   C687      1.0  0.26097  0.78415  0.80711  1.0000
  H   H814      1.0  0.30982  0.78315  0.80777  1.0000
  C   C688      1.0  0.05448  0.68309  0.74337  1.0000
  C   C689      1.0  0.01223  0.72505  0.74339  1.0000
  H   H815      1.0  0.44115  0.92248  0.77947  1.0000
  H   H816      1.0  0.17353  0.97302  0.85512  1.0000
  H   H817      1.0  0.01871  0.81609  0.95498  1.0000
  C   C690      1.0  0.26862  0.96332  0.86420  1.0000
  H   H818      1.0  0.00194  0.77614  0.86034  1.0000
  C   C691      1.0  0.47861  0.90378  0.74524  1.0000
  C   C692      1.0  0.04473  0.86091  0.97259  1.0000
  H   H819      1.0  0.12391  0.92977  0.86869  1.0000
  S   S183      1.0  0.27570  0.96463  0.82115  1.0000
  N   N47       1.0  0.03520  0.74729  0.76673  1.0000
  H   H820      1.0  0.40022  0.93047  0.77700  1.0000
  H   H821      1.0  0.19685  0.97540  0.86946  1.0000
  H   H822      1.0  0.03884  0.88140  0.93902  1.0000
  C   C693      1.0  0.43277  0.91701  0.74350  1.0000
  H   H823      1.0  0.22681  0.89836  0.85471  1.0000
  C   C694      1.0  0.16726  0.92864  0.88049  1.0000
  H   H824      1.0  0.20103  0.91129  0.87145  1.0000
  H   H825      1.0  0.12806  0.90166  0.86026  1.0000
  H   H826      1.0  0.13229  0.93111  0.85075  1.0000
  C   C695      1.0  0.26716  0.96921  0.83883  1.0000
  H   H827      1.0  0.01447  0.76220  0.78145  1.0000
  H   H828      1.0  0.05256  0.83496  0.94990  1.0000
  C   C696      1.0  0.24168  0.85699  0.74783  1.0000
  H   H829      1.0  0.24823  0.78198  0.78468  1.0000
  C   C697      1.0  0.24355  0.77339  0.79485  1.0000
  H   H830      1.0  0.00288  0.69963  0.86911  1.0000
  C   C698      1.0  0.03572  0.74307  0.75125  1.0000
  C   C699      1.0  0.26502  0.86527  0.74033  1.0000
  C   C700      1.0  0.06145  0.76636  0.77343  1.0000
  C   C701      1.0  0.25161  0.77191  0.82000  1.0000
  H   H831      1.0  0.45983  0.89220  0.77892  1.0000
  H   H832      1.0  0.06044  0.76890  0.78507  1.0000
  H   H833      1.0  0.15483  0.93531  0.88749  1.0000
  H   H834      1.0  0.24306  0.85911  0.75927  1.0000
  C   C702      1.0  0.22660  0.75013  0.82053  1.0000
  C   C703      1.0  0.21865  0.75149  0.79551  1.0000
  H   H835      1.0  0.21946  0.74153  0.83052  1.0000
  H   H836      1.0  0.26326  0.77951  0.82983  1.0000
  H   H837      1.0  0.19042  0.72360  0.80885  1.0000
  C   C704      1.0  0.21019  0.73990  0.80830  1.0000
  H   H838      1.0  0.20531  0.74409  0.78613  1.0000
  C   C705      1.0  0.46311  0.88736  0.76783  1.0000
  S   S184      1.0  0.24894  0.98691  0.88465  1.0000
  C   C706      1.0  0.40935  0.92182  0.74231  1.0000
  C   C707      1.0  0.43380  0.94476  0.80618  1.0000
  H   H839      1.0  0.45015  0.89250  0.81393  1.0000
  H   H840      1.0  0.02429  0.83374  0.93917  1.0000
  H   H841      1.0  0.18329  0.97961  0.97697  1.0000
  H   H842      1.0  0.01356  0.82300  0.97859  1.0000
  C   C708      1.0  0.25314  0.98564  0.84140  1.0000
  H   H843      1.0  0.44472  0.86978  0.76372  1.0000
  C   C709      1.0  0.01491  0.75818  0.76989  1.0000
  C   C710      1.0  0.02774  0.72123  0.77353  1.0000
  H   H844      1.0  0.44296  0.96552  0.80330  1.0000
  H   H845      1.0  0.15999  0.90648  0.88130  1.0000
  H   H846      1.0  0.47999  0.88073  0.76844  1.0000
  C   C711      1.0  0.25473  0.97986  0.86677  1.0000
  C   C712      1.0  0.44503  0.91666  0.75694  1.0000
  S   S185      1.0  0.98823  0.81125  0.88804  1.0000
  C   C713      1.0  0.21657  0.84615  0.74060  1.0000
  C   C714      1.0  0.45012  0.93057  0.80844  1.0000
  H   H847      1.0  0.04270  0.67423  0.75227  1.0000
  H   H848      1.0  0.28451  0.87403  0.74604  1.0000
  H   H849      1.0  0.99133  0.83899  0.96339  1.0000
  H   H850      1.0  0.99379  0.71397  0.74850  1.0000
  H   H851      1.0  0.18836  0.93860  0.88506  1.0000
  C   C715      1.0  0.04849  0.88301  0.94977  1.0000
  C   C716      1.0  0.40941  0.92680  0.76763  1.0000
  H   H852      1.0  0.06919  0.88450  0.94802  1.0000
  H   H853      1.0  0.07753  0.75894  0.77188  1.0000
  H   H854      1.0  0.37932  0.92997  0.75344  1.0000
  H   H855      1.0  0.27495  0.95475  0.87300  1.0000
  H   H856      1.0  0.11489  0.73145  0.73558  1.0000
  C   C717      1.0  0.43793  0.90371  0.81213  1.0000
  C   C718      1.0  0.06894  0.88250  0.97790  1.0000
  H   H857      1.0  0.16385  0.97335  0.87282  1.0000
  S   S186      1.0  0.12417  0.97406  0.89050  1.0000
  N   N48       1.0  0.46917  0.91062  0.75874  1.0000
  C   C719      1.0  0.39762  0.92654  0.75436  1.0000
  H   H858      1.0  0.19849  0.83975  0.74652  1.0000
  C   C720      1.0  0.31208  0.93110  0.74134  1.0000
  H   H859      1.0  0.04973  0.90219  0.95491  1.0000
  H   H860      1.0  0.04162  0.71167  0.77064  1.0000
  H   H861      1.0  0.07824  0.76956  0.74862  1.0000
  C   C721      1.0  0.05913  0.75630  0.74357  1.0000
  H   H862      1.0  0.99604  0.85751  0.94799  1.0000
  H   H863      1.0  0.06802  0.78673  0.76915  1.0000
  H   H864      1.0  0.99106  0.76152  0.95897  1.0000
  S   S187      1.0  0.98714  0.73811  0.88330  1.0000
  H   H865      1.0  0.46272  0.88587  0.73955  1.0000
  H   H866      1.0  0.00473  0.87511  0.96507  1.0000
  H   H867      1.0  0.00701  0.70651  0.77033  1.0000
  H   H868      1.0  0.01938  0.77740  0.76459  1.0000
  H   H869      1.0  0.00512  0.75454  0.98321  1.0000
  C   C722      1.0  0.99135  0.76420  0.98182  1.0000
  H   H870      1.0  0.99416  0.74398  0.76630  1.0000
  H   H871      1.0  0.41684  0.98620  0.74589  1.0000
  C   C723      1.0  0.98346  0.76818  0.96805  1.0000
  C   C724      1.0  0.40147  0.98659  0.73843  1.0000
  C   C725      1.0  0.81515  0.25989  0.18968  1.0000
  H   H872      1.0  0.58432  0.07058  0.13743  1.0000
  C   C726      1.0  0.93724  0.29230  0.09872  1.0000
  Fe  Fe94      1.0  0.96102  0.28203  0.05772  1.0000
  S   S188      1.0  0.95370  0.23860  0.06068  1.0000
  H   H873      1.0  0.66341  0.23132  0.16859  1.0000
  Fe  Fe95      1.0  0.92820  0.22959  0.04037  1.0000
  S   S189      1.0  0.88445  0.20124  0.03527  1.0000
  S   S190      1.0  0.93384  0.27254  0.03816  1.0000
  Fe  Fe96      1.0  0.73202  0.03278  0.02999  1.0000
  S   S191      1.0  0.76257  0.01894  0.03915  1.0000
  S   S192      1.0  0.72328  0.01763  0.00671  1.0000
  Fe  Fe97      1.0  0.72297  0.05278  0.06002  1.0000
  S   S193      1.0  0.75287  0.03928  0.07052  1.0000
  S   S194      1.0  0.70206  0.07696  0.07125  1.0000
  Fe  Fe98      1.0  0.77856  0.05782  0.05225  1.0000
  S   S195      1.0  0.82418  0.08061  0.05355  1.0000
  H   H874      1.0  0.73301  0.15904  0.21479  1.0000
  S   S196      1.0  0.74975  0.07297  0.04221  1.0000
  S   S197      1.0  0.70245  0.01384  0.04668  1.0000
  H   H875      1.0  0.94044  0.27463  0.09548  1.0000
  C   C727      1.0  0.73275  0.31553  0.14796  1.0000
  C   C728      1.0  0.78705  0.23089  0.20724  1.0000
  Fe  Fe99      1.0  0.66178  0.12166  0.14892  1.0000
  S   S198      1.0  0.66262  0.16092  0.14159  1.0000
  S   S199      1.0  0.67144  0.09120  0.13517  1.0000
  Fe  Fe100     1.0  0.64338  0.13066  0.17869  1.0000
  S   S200      1.0  0.64301  0.17012  0.17289  1.0000
  S   S201      1.0  0.62561  0.11718  0.20005  1.0000
  Fe  Fe101     1.0  0.62315  0.14951  0.15225  1.0000
  S   S202      1.0  0.59000  0.15973  0.14223  1.0000
  Fe  Fe102     1.0  0.68222  0.17815  0.16301  1.0000
  S   S203      1.0  0.71468  0.21899  0.17023  1.0000
  S   S204      1.0  0.62094  0.10921  0.15835  1.0000
  S   S205      1.0  0.68403  0.13969  0.17000  1.0000
  C   C729      1.0  0.77253  0.28252  0.14259  1.0000
  C   C730      1.0  0.77509  0.28576  0.15730  1.0000
  C   C731      1.0  0.75704  0.26608  0.16551  1.0000
  C   C732      1.0  0.73698  0.24250  0.15917  1.0000
  C   C733      1.0  0.73492  0.23875  0.14445  1.0000
  C   C734      1.0  0.75239  0.25896  0.13617  1.0000
  H   H876      1.0  0.49700  0.15345  0.14037  1.0000
  H   H877      1.0  0.75832  0.26943  0.17680  1.0000
  H   H878      1.0  0.71979  0.22049  0.13943  1.0000
  H   H879      1.0  0.75029  0.25636  0.12479  1.0000
  C   C735      1.0  0.69534  0.08149  0.08933  1.0000
  C   C736      1.0  0.69565  0.06385  0.09969  1.0000
  C   C737      1.0  0.68864  0.06740  0.11362  1.0000
  C   C738      1.0  0.68170  0.08890  0.11756  1.0000
  C   C739      1.0  0.68187  0.10688  0.10727  1.0000
  C   C740      1.0  0.68831  0.10298  0.09327  1.0000
  H   H880      1.0  0.70083  0.04715  0.09692  1.0000
  H   H881      1.0  0.68857  0.05328  0.12140  1.0000
  H   H882      1.0  0.67683  0.12365  0.11002  1.0000
  H   H883      1.0  0.68800  0.11681  0.08540  1.0000
  C   C741      1.0  0.86820  0.16823  0.04114  1.0000
  C   C742      1.0  0.83997  0.15535  0.03961  1.0000
  C   C743      1.0  0.82619  0.12882  0.04377  1.0000
  C   C744      1.0  0.84057  0.11470  0.04921  1.0000
  C   C745      1.0  0.86883  0.12754  0.05067  1.0000
  C   C746      1.0  0.88262  0.15429  0.04674  1.0000
  H   H884      1.0  0.82866  0.16607  0.03536  1.0000
  H   H885      1.0  0.80444  0.11936  0.04279  1.0000
  H   H886      1.0  0.88010  0.11675  0.05488  1.0000
  H   H887      1.0  0.90437  0.16397  0.04794  1.0000
  H   H888      1.0  0.50933  0.09109  0.16210  1.0000
  C   C747      1.0  0.71844  0.30322  0.13540  1.0000
  H   H889      1.0  0.70226  0.13448  0.23420  1.0000
  H   H890      1.0  0.77394  0.27061  0.19959  1.0000
  C   C748      1.0  0.74788  0.17894  0.21277  1.0000
  C   C749      1.0  0.66934  0.12782  0.21907  1.0000
  C   C750      1.0  0.64165  0.12074  0.21708  1.0000
  H   H891      1.0  0.59294  0.04621  0.10170  1.0000
  H   H892      1.0  0.68364  0.27190  0.12560  1.0000
  H   H893      1.0  0.68160  0.13128  0.21000  1.0000
  C   C751      1.0  0.62589  0.11600  0.22899  1.0000
  C   C752      1.0  0.73126  0.06015  0.98909  1.0000
  C   C753      1.0  0.51028  0.14458  0.14430  1.0000
  C   C754      1.0  0.53798  0.15638  0.14167  1.0000
  C   C755      1.0  0.55556  0.14501  0.14657  1.0000
  C   C756      1.0  0.54511  0.12168  0.15419  1.0000
  C   C757      1.0  0.51729  0.10948  0.15650  1.0000
  H   H894      1.0  0.78603  0.03134  0.00667  1.0000
  H   H895      1.0  0.54575  0.17434  0.13571  1.0000
  H   H896      1.0  0.55831  0.11267  0.15807  1.0000
  H   H897      1.0  0.80360  0.22831  0.22832  1.0000
  H   H898      1.0  0.82281  0.24418  0.18726  1.0000
  H   H899      1.0  0.51807  0.05821  0.08454  1.0000
  H   H900      1.0  0.62901  0.21837  0.16226  1.0000
  H   H901      1.0  0.61183  0.06344  0.13184  1.0000
  N   N49       1.0  0.59383  0.07885  0.11564  1.0000
  C   C758      1.0  0.80994  0.25772  0.10663  1.0000
  Fe  Fe103     1.0  0.73405  0.00149  0.05618  1.0000
  H   H902      1.0  0.84605  0.28854  0.21087  1.0000
  C   C759      1.0  0.56696  0.07796  0.11153  1.0000
  C   C760      1.0  0.55345  0.06701  0.09822  1.0000
  C   C761      1.0  0.55347  0.08838  0.12102  1.0000
  C   C762      1.0  0.52806  0.06663  0.09474  1.0000
  C   C763      1.0  0.52816  0.08796  0.11743  1.0000
  C   C764      1.0  0.51546  0.07708  0.10432  1.0000
  H   H903      1.0  0.79890  0.25755  0.18168  1.0000
  H   H904      1.0  0.56209  0.05868  0.09030  1.0000
  H   H905      1.0  0.84153  0.26953  0.13077  1.0000
  H   H906      1.0  0.90586  0.23602  0.01219  1.0000
  H   H907      1.0  0.78711  0.27781  0.21754  1.0000
  H   H908      1.0  0.81985  0.12186  0.99601  1.0000
  H   H909      1.0  0.80264  0.26234  0.09638  1.0000
  H   H910      1.0  0.60678  0.11650  0.12810  1.0000
  H   H911      1.0  0.82106  0.03854  0.00359  1.0000
  C   C765      1.0  0.79266  0.27697  0.20641  1.0000
  H   H912      1.0  0.56246  0.09714  0.13132  1.0000
  H   H913      1.0  0.62580  0.06870  0.10810  1.0000
  H   H914      1.0  0.85996  0.18198  0.98665  1.0000
  H   H915      1.0  0.84062  0.23952  0.12197  1.0000
  N   N50       1.0  0.81252  0.07363  0.00719  1.0000
  C   C766      1.0  0.86919  0.20089  0.99342  1.0000
  C   C767      1.0  0.80738  0.04512  0.00960  1.0000
  C   C768      1.0  0.84049  0.09063  0.01260  1.0000
  C   C769      1.0  0.87038  0.27846  0.08725  1.0000
  H   H916      1.0  0.79558  0.07634  0.02698  1.0000
  Fe  Fe104     1.0  0.96963  0.27722  0.02568  1.0000
  H   H917      1.0  0.61449  0.11991  0.10990  1.0000
  H   H918      1.0  0.87071  0.31034  0.11136  1.0000
  H   H919      1.0  0.51187  0.11108  0.23309  1.0000
  H   H920      1.0  0.63346  0.10870  0.12199  1.0000
  H   H921      1.0  0.68411  0.20659  0.19664  1.0000
  H   H922      1.0  0.81082  0.04215  0.02095  1.0000
  H   H923      1.0  0.87089  0.26981  0.12261  1.0000
  H   H924      1.0  0.72957  0.17993  0.19248  1.0000
  H   H925      1.0  0.84430  0.08591  0.02361  1.0000
  H   H926      1.0  0.85547  0.08750  0.00591  1.0000
  H   H927      1.0  0.87996  0.23381  0.06443  1.0000
  C   C770      1.0  0.74607  0.19063  0.20017  1.0000
  H   H928      1.0  0.82689  0.27196  0.22505  1.0000
  H   H929      1.0  0.64129  0.20425  0.14062  1.0000
  H   H930      1.0  0.73816  0.24078  0.23260  1.0000
  H   H931      1.0  0.84690  0.20159  0.07941  1.0000
  H   H932      1.0  0.86399  0.19580  0.00454  1.0000
  C   C771      1.0  0.88055  0.26880  0.07601  1.0000
  C   C772      1.0  0.81362  0.10524  0.98822  1.0000
  H   H933      1.0  0.57783  0.04145  0.12610  1.0000
  C   C773      1.0  0.84851  0.26176  0.12140  1.0000
  H   H934      1.0  0.60442  0.11021  0.22754  1.0000
  H   H935      1.0  0.83156  0.27984  0.18775  1.0000
  H   H936      1.0  0.77009  0.18362  0.23252  1.0000
  S   S206      1.0  0.95900  0.31422  0.07337  1.0000
  H   H937      1.0  0.80102  0.26551  0.11519  1.0000
  C   C774      1.0  0.64833  0.23678  0.16276  1.0000
  H   H938      1.0  0.64489  0.25257  0.16909  1.0000
  H   H939      1.0  0.73407  0.31487  0.17053  1.0000
  H   H940      1.0  0.80121  0.23549  0.10735  1.0000
  C   C775      1.0  0.71275  0.22609  0.21397  1.0000
  H   H941      1.0  0.67657  0.21877  0.14588  1.0000
  H   H942      1.0  0.79729  0.10207  0.01549  1.0000
  N   N51       1.0  0.83984  0.26994  0.10803  1.0000
  C   C776      1.0  0.60569  0.06781  0.10451  1.0000
  C   C777      1.0  0.94365  0.31375  0.08976  1.0000
  C   C778      1.0  0.69377  0.28091  0.13564  1.0000
  C   C779      1.0  0.68805  0.20795  0.20798  1.0000
  C   C780      1.0  0.85105  0.26052  0.09600  1.0000
  C   C781      1.0  0.79363  0.08046  0.01570  1.0000
  H   H943      1.0  0.84277  0.30727  0.09943  1.0000
  C   C782      1.0  0.76520  0.21623  0.19745  1.0000
  N   N52       1.0  0.80631  0.25854  0.20442  1.0000
  H   H944      1.0  0.77236  0.06839  0.01190  1.0000
  C   C783      1.0  0.68279  0.26999  0.14855  1.0000
  C   C784      1.0  0.76879  0.19288  0.22273  1.0000
  H   H945      1.0  0.92355  0.27780  0.11918  1.0000
  N   N53       1.0  0.65709  0.24571  0.14845  1.0000
  C   C785      1.0  0.66011  0.22303  0.14076  1.0000
  C   C786      1.0  0.69795  0.28305  0.16119  1.0000
  H   H946      1.0  0.83926  0.30594  0.11807  1.0000
  H   H947      1.0  0.69166  0.27595  0.17149  1.0000
  H   H948      1.0  0.84128  0.25450  0.21356  1.0000
  C   C787      1.0  0.80886  0.07880  0.99221  1.0000
  H   H949      1.0  0.63293  0.26852  0.14636  1.0000
  H   H950      1.0  0.63884  0.25508  0.12991  1.0000
  H   H951      1.0  0.76231  0.22453  0.18765  1.0000
  C   C788      1.0  0.84310  0.23251  0.09292  1.0000
  C   C789      1.0  0.87199  0.24119  0.07316  1.0000
  C   C790      1.0  0.91042  0.19584  0.99818  1.0000
  C   C791      1.0  0.63520  0.25092  0.14120  1.0000
  H   H952      1.0  0.61542  0.23317  0.14135  1.0000
  H   H953      1.0  0.93186  0.24996  0.00002  1.0000
  S   S207      1.0  0.96220  0.23382  0.02648  1.0000
  C   C792      1.0  0.84860  0.29965  0.10916  1.0000
  H   H954      1.0  0.66490  0.22703  0.12957  1.0000
  H   H955      1.0  0.82900  0.21764  0.09929  1.0000
  C   C793      1.0  0.72247  0.30555  0.16081  1.0000
  C   C794      1.0  0.83107  0.26858  0.21393  1.0000
  C   C795      1.0  0.85334  0.22308  0.08162  1.0000
  C   C796      1.0  0.61290  0.10718  0.11905  1.0000
  H   H956      1.0  0.73183  0.07227  0.99846  1.0000
  H   H957      1.0  0.85921  0.21428  0.99031  1.0000
  S   S208      1.0  0.85437  0.31604  0.15515  1.0000
  H   H958      1.0  0.72781  0.23880  0.20717  1.0000
  C   C797      1.0  0.92756  0.29414  0.11218  1.0000
  C   C798      1.0  0.59184  0.06293  0.12829  1.0000
  H   H959      1.0  0.60896  0.07951  0.09482  1.0000
  H   H960      1.0  0.90603  0.19257  0.00951  1.0000
  H   H961      1.0  0.89553  0.28285  0.06957  1.0000
  C   C799      1.0  0.49968  0.12084  0.15160  1.0000
  H   H962      1.0  0.80573  0.29784  0.20372  1.0000
  C   C800      1.0  0.78807  0.21856  0.22011  1.0000
  C   C801      1.0  0.72767  0.03333  0.99026  1.0000
  H   H963      1.0  0.87835  0.30008  0.08898  1.0000
  H   H964      1.0  0.84484  0.11247  0.01314  1.0000
  H   H965      1.0  0.49583  0.07683  0.10162  1.0000
  C   C802      1.0  0.71828  0.22726  0.22855  1.0000
  H   H966      1.0  0.79035  0.30396  0.16235  1.0000
  S   S209      1.0  0.79349  0.30831  0.13218  1.0000
  H   H967      1.0  0.55937  0.11960  0.23147  1.0000
  C   C803      1.0  0.92363  0.31713  0.11678  1.0000
  H   H968      1.0  0.51840  0.09621  0.12488  1.0000
  C   C804      1.0  0.66865  0.19107  0.21653  1.0000
  H   H969      1.0  0.64969  0.17643  0.21175  1.0000
  H   H970      1.0  0.90195  0.17554  0.99266  1.0000
  C   C805      1.0  0.90975  0.23946  0.00083  1.0000
  H   H971      1.0  0.90087  0.25374  0.99775  1.0000
  S   S210      1.0  0.97756  0.29973  0.00536  1.0000
  C   C806      1.0  0.97875  0.28537  0.98846  1.0000
  H   H972      1.0  0.72695  0.31070  0.12543  1.0000
  H   H973      1.0  0.93278  0.20471  0.99773  1.0000
  N   N54       1.0  0.89877  0.21383  0.99209  1.0000
  C   C807      1.0  0.68097  0.12967  0.23279  1.0000
  C   C808      1.0  0.67380  0.19228  0.23113  1.0000
  S   S211      1.0  0.91355  0.31932  0.13434  1.0000
  Fe  Fe105     1.0  0.73322  0.02000  0.43338  1.0000
  S   S212      1.0  0.77469  0.02206  0.43082  1.0000
  H   H974      1.0  0.84118  0.99426  0.40376  1.0000
  Fe  Fe106     1.0  0.73097  0.04080  0.40330  1.0000
  S   S213      1.0  0.77267  0.04366  0.39901  1.0000
  S   S214      1.0  0.70645  0.05921  0.39026  1.0000
  Fe  Fe107     1.0  0.75978  0.00316  0.40903  1.0000
  Fe  Fe108     1.0  0.78393  0.06170  0.42114  1.0000
  S   S215      1.0  0.82054  0.09874  0.42927  1.0000
  H   H975      1.0  0.49900  0.20540  0.29355  1.0000
  S   S216      1.0  0.74327  0.06103  0.42517  1.0000
  H   H976      1.0  0.87351  0.01386  0.41257  1.0000
  C   C809      1.0  0.55134  0.12014  0.24174  1.0000
  H   H977      1.0  0.81888  0.15814  0.41090  1.0000
  Fe  Fe109     1.0  0.95067  0.27005  0.39698  1.0000
  H   H978      1.0  0.60416  0.08287  0.32553  1.0000
  S   S217      1.0  0.93451  0.29741  0.38519  1.0000
  Fe  Fe110     1.0  0.94421  0.21267  0.40233  1.0000
  S   S218      1.0  0.91809  0.17051  0.39340  1.0000
  S   S219      1.0  0.92375  0.23804  0.41067  1.0000
  Fe  Fe111     1.0  0.66395  0.12885  0.28339  1.0000
  S   S220      1.0  0.64320  0.15569  0.28946  1.0000
  S   S221      1.0  0.68100  0.12806  0.26175  1.0000
  Fe  Fe112     1.0  0.66902  0.11363  0.31465  1.0000
  S   S222      1.0  0.64885  0.13990  0.32267  1.0000
  S   S223      1.0  0.68703  0.08818  0.32682  1.0000
  Fe  Fe113     1.0  0.61933  0.12311  0.30383  1.0000
  S   S224      1.0  0.57331  0.10299  0.30519  1.0000
  Fe  Fe114     1.0  0.67427  0.17013  0.30761  1.0000
  S   S225      1.0  0.69730  0.21448  0.31374  1.0000
  S   S226      1.0  0.63824  0.09497  0.29648  1.0000
  S   S227      1.0  0.69625  0.14517  0.30089  1.0000
  S   S228      1.0  0.80222  0.27914  0.28095  1.0000
  C   C810      1.0  0.87920  0.06194  0.40337  1.0000
  C   C811      1.0  0.66521  0.12499  0.24469  1.0000
  H   H979      1.0  0.86285  0.19408  0.40865  1.0000
  H   H980      1.0  0.88047  0.18233  0.45733  1.0000
  C   C812      1.0  0.72742  0.23227  0.30524  1.0000
  C   C813      1.0  0.73661  0.21930  0.29507  1.0000
  C   C814      1.0  0.76019  0.23384  0.28814  1.0000
  C   C815      1.0  0.77472  0.26148  0.29123  1.0000
  C   C816      1.0  0.76612  0.27444  0.30170  1.0000
  C   C817      1.0  0.74243  0.25984  0.30865  1.0000
  H   H981      1.0  0.72545  0.19811  0.29246  1.0000
  H   H982      1.0  0.76714  0.22368  0.28026  1.0000
  H   H983      1.0  0.77719  0.29580  0.30413  1.0000
  H   H984      1.0  0.73552  0.27000  0.31656  1.0000
  C   C818      1.0  0.54900  0.11725  0.30612  1.0000
  C   C819      1.0  0.52138  0.09998  0.30571  1.0000
  C   C820      1.0  0.50140  0.11033  0.30634  1.0000
  C   C821      1.0  0.50878  0.13819  0.30751  1.0000
  C   C822      1.0  0.53639  0.15543  0.30796  1.0000
  C   C823      1.0  0.55636  0.14510  0.30717  1.0000
  H   H985      1.0  0.51540  0.07840  0.30493  1.0000
  S   S229      1.0  0.87712  0.31788  0.28602  1.0000
  H   H986      1.0  0.54250  0.17698  0.30898  1.0000
  H   H987      1.0  0.57745  0.15868  0.30755  1.0000
  N   N55       1.0  0.60329  0.04558  0.33317  1.0000
  C   C824      1.0  0.60899  0.04049  0.35920  1.0000
  N   N56       1.0  0.70533  0.21148  0.25296  1.0000
  C   C825      1.0  0.51557  0.25009  0.32166  1.0000
  S   S230      1.0  0.96941  0.24368  0.38761  1.0000
  C   C826      1.0  0.84653  0.11901  0.41875  1.0000
  C   C827      1.0  0.86723  0.14221  0.42503  1.0000
  C   C828      1.0  0.88887  0.15844  0.41723  1.0000
  C   C829      1.0  0.89010  0.15142  0.40306  1.0000
  C   C830      1.0  0.86921  0.12836  0.39668  1.0000
  C   C831      1.0  0.84734  0.11229  0.40448  1.0000
  H   H988      1.0  0.86671  0.14762  0.43602  1.0000
  H   H989      1.0  0.90488  0.17613  0.42224  1.0000
  H   H990      1.0  0.87013  0.12287  0.38571  1.0000
  H   H991      1.0  0.83142  0.09457  0.39956  1.0000
  C   C832      1.0  0.70267  0.06821  0.37258  1.0000
  C   C833      1.0  0.71332  0.05984  0.36107  1.0000
  C   C834      1.0  0.70864  0.06652  0.34725  1.0000
  C   C835      1.0  0.69360  0.08195  0.34468  1.0000
  C   C836      1.0  0.68358  0.09095  0.35624  1.0000
  C   C837      1.0  0.68797  0.08397  0.37004  1.0000
  H   H992      1.0  0.72452  0.04759  0.36275  1.0000
  H   H993      1.0  0.71644  0.05934  0.33842  1.0000
  H   H994      1.0  0.67200  0.10281  0.35454  1.0000
  H   H995      1.0  0.67954  0.09054  0.37881  1.0000
  Fe  Fe115     1.0  0.95734  0.25249  0.42765  1.0000
  H   H996      1.0  0.85828  0.30045  0.33419  1.0000
  H   H997      1.0  0.63301  0.04946  0.31787  1.0000
  Fe  Fe116     1.0  0.83655  0.31837  0.28871  1.0000
  C   C838      1.0  0.63847  0.02081  0.36853  1.0000
  C   C839      1.0  0.72219  0.01497  0.47116  1.0000
  C   C840      1.0  0.91917  0.08989  0.39091  1.0000
  C   C841      1.0  0.51227  0.22115  0.30145  1.0000
  H   H998      1.0  0.93116  0.09318  0.38170  1.0000
  H   H999      1.0  0.83206  0.05380  0.41677  1.0000
  H   H1000     1.0  0.94448  0.12839  0.40102  1.0000
  C   C842      1.0  0.57343  0.03274  0.33326  1.0000
  C   C843      1.0  0.61533  0.03665  0.34512  1.0000
  C   C844      1.0  0.48261  0.29125  0.29464  1.0000
  H   H1001     1.0  0.60549  0.08190  0.34430  1.0000
  H   H1002     1.0  0.72080  0.24082  0.27064  1.0000
  C   C845      1.0  0.63762  0.11829  0.24273  1.0000
  C   C846      1.0  0.96098  0.26025  0.46698  1.0000
  H   H1003     1.0  0.74378  0.20920  0.25071  1.0000
  H   H1004     1.0  0.72708  0.19502  0.26637  1.0000
  C   C847      1.0  0.84404  0.18078  0.37387  1.0000
  H   H1005     1.0  0.57108  0.12980  0.27654  1.0000
  C   C848      1.0  0.89581  0.06627  0.39167  1.0000
  C   C849      1.0  0.55798  0.12598  0.26708  1.0000
  C   C850      1.0  0.94826  0.26417  0.47901  1.0000
  H   H1006     1.0  0.70717  0.25169  0.25586  1.0000
  H   H1007     1.0  0.91738  0.12146  0.42198  1.0000
  H   H1008     1.0  0.81939  0.01787  0.41605  1.0000
  C   C851      1.0  0.73707  0.04248  0.47439  1.0000
  H   H1009     1.0  0.87661  0.08121  0.42373  1.0000
  H   H1010     1.0  0.52309  0.23766  0.32820  1.0000
  H   H1011     1.0  0.60101  0.04527  0.31036  1.0000
  H   H1012     1.0  0.92884  0.26517  0.47771  1.0000
  N   N57       1.0  0.83283  0.25970  0.32671  1.0000
  C   C852      1.0  0.85243  0.24952  0.33247  1.0000
  C   C853      1.0  0.83893  0.26674  0.31190  1.0000
  C   C854      1.0  0.83731  0.28504  0.33493  1.0000
  C   C855      1.0  0.80504  0.23870  0.32717  1.0000
  C   C856      1.0  0.79777  0.21314  0.32004  1.0000
  C   C857      1.0  0.78443  0.24289  0.33437  1.0000
  C   C858      1.0  0.77159  0.19308  0.32014  1.0000
  C   C859      1.0  0.75833  0.22267  0.33440  1.0000
  C   C860      1.0  0.75193  0.19785  0.32731  1.0000
  H   H1013     1.0  0.85240  0.23204  0.32607  1.0000
  H   H1014     1.0  0.87347  0.26520  0.33260  1.0000
  H   H1015     1.0  0.84816  0.24335  0.34350  1.0000
  H   H1016     1.0  0.83729  0.24926  0.30496  1.0000
  H   H1017     1.0  0.85977  0.28236  0.31112  1.0000
  H   H1018     1.0  0.82486  0.27484  0.30731  1.0000
  H   H1019     1.0  0.83416  0.28158  0.34635  1.0000
  H   H1020     1.0  0.93716  0.28948  0.33302  1.0000
  H   H1021     1.0  0.82392  0.29445  0.33083  1.0000
  H   H1022     1.0  0.81218  0.20863  0.31412  1.0000
  H   H1023     1.0  0.78770  0.26175  0.33985  1.0000
  H   H1024     1.0  0.76629  0.17387  0.31441  1.0000
  H   H1025     1.0  0.74259  0.22652  0.33950  1.0000
  H   H1026     1.0  0.73145  0.18258  0.32707  1.0000
  C   C861      1.0  0.61090  0.03888  0.31912  1.0000
  C   C862      1.0  0.61223  0.07521  0.33454  1.0000
  H   H1027     1.0  0.56594  0.01038  0.33285  1.0000
  C   C863      1.0  0.48759  0.24967  0.30035  1.0000
  H   H1028     1.0  0.84975  0.03687  0.42614  1.0000
  H   H1029     1.0  0.64793  0.01549  0.37748  1.0000
  H   H1030     1.0  0.73977  0.25030  0.25555  1.0000
  C   C864      1.0  0.72377  0.19784  0.25504  1.0000
  H   H1031     1.0  0.67188  0.17559  0.25882  1.0000
  H   H1032     1.0  0.61573  0.03624  0.38137  1.0000
  H   H1033     1.0  0.74380  0.05616  0.46593  1.0000
  H   H1034     1.0  0.52137  0.21054  0.30835  1.0000
  H   H1035     1.0  0.48622  0.13041  0.27710  1.0000
  C   C865      1.0  0.91377  0.31962  0.36462  1.0000
  C   C866      1.0  0.71328  0.99754  0.48233  1.0000
  H   H1036     1.0  0.81627  0.01820  0.39117  1.0000
  C   C867      1.0  0.85019  0.18473  0.39922  1.0000
  S   S231      1.0  0.71255  0.00179  0.45343  1.0000
  C   C868      1.0  0.85997  0.19291  0.38604  1.0000
  H   H1037     1.0  0.84843  0.13461  0.45901  1.0000
  H   H1038     1.0  0.56567  0.03897  0.34279  1.0000
  C   C869      1.0  0.51302  0.11548  0.25610  1.0000
  N   N58       1.0  0.48403  0.10968  0.25692  1.0000
  H   H1039     1.0  0.84495  0.03256  0.38094  1.0000
  H   H1040     1.0  0.63462  0.08552  0.33485  1.0000
  H   H1041     1.0  0.65997  0.00843  0.35331  1.0000
  C   C870      1.0  0.86305  0.14485  0.46764  1.0000
  H   H1042     1.0  0.66582  0.20597  0.25941  1.0000
  C   C871      1.0  0.64522  0.01684  0.35488  1.0000
  C   C872      1.0  0.93515  0.29155  0.35571  1.0000
  H   H1043     1.0  0.88012  0.20847  0.38528  1.0000
  C   C873      1.0  0.93039  0.29784  0.34181  1.0000
  C   C874      1.0  0.85994  0.01311  0.40337  1.0000
  H   H1044     1.0  0.86984  0.01093  0.39365  1.0000
  C   C875      1.0  0.49260  0.27710  0.30358  1.0000
  H   H1045     1.0  0.85186  0.18717  0.36364  1.0000
  H   H1046     1.0  0.91340  0.20556  0.47649  1.0000
  C   C876      1.0  0.88101  0.17163  0.46673  1.0000
  N   N59       1.0  0.49730  0.23380  0.30967  1.0000
  H   H1047     1.0  0.52442  0.12207  0.27878  1.0000
  S   S232      1.0  0.94389  0.25557  0.45011  1.0000
  H   H1048     1.0  0.94534  0.27841  0.35745  1.0000
  H   H1049     1.0  0.56388  0.03846  0.32408  1.0000
  H   H1050     1.0  0.62526  0.11418  0.25177  1.0000
  C   C877      1.0  0.83822  0.03661  0.41620  1.0000
  H   H1051     1.0  0.49079  0.15074  0.25343  1.0000
  H   H1052     1.0  0.71525  0.17736  0.24972  1.0000
  C   C878      1.0  0.71880  0.23975  0.25889  1.0000
  H   H1053     1.0  0.89059  0.05160  0.38289  1.0000
  H   H1054     1.0  0.48572  0.31182  0.29756  1.0000
  C   C879      1.0  0.92690  0.10965  0.40184  1.0000
  H   H1055     1.0  0.60487  0.01682  0.31738  1.0000
  C   C880      1.0  0.88798  0.08232  0.41448  1.0000
  H   H1056     1.0  0.65814  0.17799  0.23702  1.0000
  C   C881      1.0  0.56818  0.12544  0.25387  1.0000
  H   H1057     1.0  0.68647  0.19992  0.27284  1.0000
  H   H1058     1.0  0.59551  0.05006  0.36145  1.0000
  C   C882      1.0  0.83625  0.03555  0.39093  1.0000
  N   N60       1.0  0.78104  0.12858  0.38880  1.0000
  C   C883      1.0  0.77384  0.12024  0.40338  1.0000
  C   C884      1.0  0.76017  0.13687  0.38283  1.0000
  C   C885      1.0  0.78001  0.10459  0.38044  1.0000
  C   C886      1.0  0.80800  0.15092  0.38811  1.0000
  C   C887      1.0  0.82469  0.16395  0.40034  1.0000
  C   C888      1.0  0.81833  0.16025  0.37484  1.0000
  H   H1059     1.0  0.58917  0.12902  0.25305  1.0000
  C   C889      1.0  0.62042  0.03266  0.37069  1.0000
  C   C890      1.0  0.63405  0.02473  0.34331  1.0000
  H   H1060     1.0  0.75353  0.10335  0.40353  1.0000
  H   H1061     1.0  0.78834  0.11303  0.40840  1.0000
  H   H1062     1.0  0.77302  0.13691  0.41018  1.0000
  H   H1063     1.0  0.76239  0.14078  0.37143  1.0000
  H   H1064     1.0  0.76103  0.15552  0.38845  1.0000
  H   H1065     1.0  0.73950  0.12092  0.38375  1.0000
  H   H1066     1.0  0.79683  0.09912  0.38384  1.0000
  H   H1067     1.0  0.76083  0.08671  0.38167  1.0000
  H   H1068     1.0  0.78115  0.10769  0.36894  1.0000
  C   C891      1.0  0.92720  0.30272  0.36727  1.0000
  H   H1069     1.0  0.80669  0.15148  0.36511  1.0000
  C   C892      1.0  0.52416  0.11524  0.24279  1.0000
  C   C893      1.0  0.91155  0.10570  0.41366  1.0000
  H   H1070     1.0  0.83254  0.05413  0.39019  1.0000
  C   C894      1.0  0.68124  0.19770  0.26127  1.0000
  N   N61       1.0  0.85385  0.03735  0.40357  1.0000
  C   C895      1.0  0.86386  0.13118  0.47969  1.0000
  C   C896      1.0  0.53087  0.12125  0.26824  1.0000
  H   H1071     1.0  0.64108  0.02200  0.33312  1.0000
  H   H1072     1.0  0.50504  0.25858  0.32895  1.0000
  H   H1073     1.0  0.53357  0.26685  0.31786  1.0000
  S   S233      1.0  0.71727  0.99898  0.41190  1.0000
  S   S234      1.0  0.48459  0.15257  0.30880  1.0000
  C   C897      1.0  0.89999  0.18474  0.47778  1.0000
  S   S235      1.0  0.97646  0.22499  0.41998  1.0000
  C   C898      1.0  0.91724  0.31499  0.33918  1.0000
  C   C899      1.0  0.69874  0.21073  0.23763  1.0000
  H   H1074     1.0  0.52875  0.23644  0.29581  1.0000
  H   H1075     1.0  0.84972  0.11036  0.48035  1.0000
  H   H1076     1.0  0.81317  0.14807  0.47956  1.0000
  H   H1077     1.0  0.50361  0.28799  0.31308  1.0000
  Fe  Fe117     1.0  0.77156  0.06114  0.56611  1.0000
  S   S236      1.0  0.73059  0.05603  0.55729  1.0000
  S   S237      1.0  0.80218  0.10225  0.57526  1.0000
  H   H1078     1.0  0.60221  0.03245  0.62127  1.0000
  H   H1079     1.0  0.96441  0.13473  0.57813  1.0000
  Fe  Fe118     1.0  0.73865  0.03264  0.53919  1.0000
  C   C900      1.0  0.82505  0.17404  0.51882  1.0000
  Fe  Fe119     1.0  0.71317  0.01690  0.56859  1.0000
  H   H1080     1.0  0.95429  0.18021  0.49046  1.0000
  S   S238      1.0  0.77996  0.03905  0.54790  1.0000
  S   S239      1.0  0.75363  0.02403  0.57879  1.0000
  Fe  Fe120     1.0  0.94116  0.22633  0.55222  1.0000
  S   S240      1.0  0.94875  0.26636  0.54279  1.0000
  S   S241      1.0  0.90513  0.18624  0.54610  1.0000
  C   C901      1.0  0.94976  0.19644  0.49564  1.0000
  H   H1081     1.0  0.91644  0.22212  0.49991  1.0000
  C   C902      1.0  0.92337  0.16791  0.51304  1.0000
  C   C903      1.0  0.90182  0.17126  0.49009  1.0000
  C   C904      1.0  0.80218  0.13840  0.50093  1.0000
  C   C905      1.0  0.58790  0.99767  0.58385  1.0000
  H   H1082     1.0  0.66493  0.02155  0.62921  1.0000
  H   H1083     1.0  0.79115  0.09272  0.51611  1.0000
  C   C906      1.0  0.61719  0.03090  0.60119  1.0000
  H   H1084     1.0  0.88227  0.13226  0.49980  1.0000
  C   C907      1.0  0.79587  0.14132  0.54071  1.0000
  C   C908      1.0  0.73305  0.03511  0.49976  1.0000
  N   N62       1.0  0.92261  0.18543  0.50149  1.0000
  H   H1085     1.0  0.78443  0.12672  0.54859  1.0000
  H   H1086     1.0  0.75494  0.13627  0.52214  1.0000
  C   C909      1.0  0.80581  0.14728  0.51539  1.0000
  C   C910      1.0  0.83195  0.12478  0.56761  1.0000
  C   C911      1.0  0.84560  0.15116  0.57360  1.0000
  C   C912      1.0  0.86869  0.16997  0.56754  1.0000
  C   C913      1.0  0.87820  0.16271  0.55527  1.0000
  C   C914      1.0  0.86488  0.13618  0.54945  1.0000
  C   C915      1.0  0.84212  0.11724  0.55566  1.0000
  H   H1087     1.0  0.83807  0.15720  0.58291  1.0000
  H   H1088     1.0  0.87858  0.19029  0.57214  1.0000
  H   H1089     1.0  0.87210  0.13023  0.54001  1.0000
  H   H1090     1.0  0.83222  0.09689  0.55111  1.0000
  C   C916      1.0  0.71896  0.00747  0.49656  1.0000
  C   C917      1.0  0.66945  0.00970  0.60780  1.0000
  H   H1091     1.0  0.78996  0.15862  0.54159  1.0000
  H   H1092     1.0  0.68848  0.02668  0.60676  1.0000
  H   H1093     1.0  0.95421  0.20433  0.59412  1.0000
  C   C918      1.0  0.79761  0.10521  0.52617  1.0000
  H   H1094     1.0  0.94011  0.18674  0.56914  1.0000
  H   H1095     1.0  0.92758  0.15062  0.50904  1.0000
  H   H1096     1.0  0.81970  0.11160  0.52782  1.0000
  N   N63       1.0  0.79048  0.12879  0.52615  1.0000
  C   C919      1.0  0.92519  0.14937  0.58810  1.0000
  C   C920      1.0  0.91118  0.15565  0.59909  1.0000
  C   C921      1.0  0.91075  0.12526  0.57974  1.0000
  C   C922      1.0  0.88444  0.13877  0.60144  1.0000
  C   C923      1.0  0.88405  0.10855  0.58221  1.0000
  C   C924      1.0  0.87093  0.11529  0.59304  1.0000
  C   C925      1.0  0.65598  0.00672  0.62057  1.0000
  H   H1097     1.0  0.89797  0.20042  0.51323  1.0000
  H   H1098     1.0  0.75460  0.10700  0.51263  1.0000
  C   C926      1.0  0.96051  0.26710  0.49267  1.0000
  S   S242      1.0  0.73826  0.04944  0.51736  1.0000
  H   H1099     1.0  0.82948  0.18259  0.52951  1.0000
  H   H1100     1.0  0.93939  0.17922  0.52132  1.0000
  C   C927      1.0  0.91737  0.20798  0.50787  1.0000
  H   H1101     1.0  0.63689  0.04645  0.60432  1.0000
  H   H1102     1.0  0.92023  0.17365  0.60591  1.0000
  C   C928      1.0  0.55630  0.00706  0.63113  1.0000
  H   H1103     1.0  0.87388  0.14415  0.60966  1.0000
  H   H1104     1.0  0.87314  0.09057  0.57549  1.0000
  H   H1105     1.0  0.84996  0.10264  0.59465  1.0000
  N   N64       1.0  0.95328  0.16701  0.58502  1.0000
  H   H1106     1.0  0.91983  0.11939  0.57104  1.0000
  H   H1107     1.0  0.95064  0.27049  0.50177  1.0000
  H   H1108     1.0  0.95192  0.21154  0.48766  1.0000
  H   H1109     1.0  0.62894  0.02428  0.58049  1.0000
  C   C929      1.0  0.95383  0.17631  0.57049  1.0000
  H   H1110     1.0  0.96994  0.14366  0.59671  1.0000
  C   C930      1.0  0.52485  0.99410  0.61115  1.0000
  H   H1111     1.0  0.74906  0.10555  0.53088  1.0000
  S   S243      1.0  0.96487  0.24568  0.57268  1.0000
  H   H1112     1.0  0.57368  0.00502  0.63671  1.0000
  H   H1113     1.0  0.94726  0.15954  0.56231  1.0000
  H   H1114     1.0  0.81747  0.14843  0.54417  1.0000
  H   H1115     1.0  0.90419  0.16018  0.51861  1.0000
  H   H1116     1.0  0.93351  0.22012  0.51596  1.0000
  H   H1117     1.0  0.71160  0.99386  0.50499  1.0000
  H   H1118     1.0  0.78755  0.09140  0.53462  1.0000
  H   H1119     1.0  0.56129  0.02885  0.62999  1.0000
  C   C931      1.0  0.76110  0.11915  0.52278  1.0000
  H   H1120     1.0  0.78819  0.11821  0.49756  1.0000
  C   C932      1.0  0.61276  0.01841  0.58775  1.0000
  Fe  Fe121     1.0  0.75858  0.00144  0.55957  1.0000
  C   C933      1.0  0.57121  0.00153  0.60723  1.0000
  N   N65       1.0  0.54931  0.99183  0.61723  1.0000
  C   C934      1.0  0.59689  0.02261  0.61087  1.0000
  C   C935      1.0  0.74212  0.05248  0.48859  1.0000
  C   C936      1.0  0.56737  0.98933  0.59339  1.0000
  H   H1121     1.0  0.84619  0.19446  0.48614  1.0000
  H   H1122     1.0  0.52931  0.01524  0.60850  1.0000
  H   H1123     1.0  0.53937  0.99946  0.63836  1.0000
  S   S244      1.0  0.67265  0.99509  0.57941  1.0000
  C   C937      1.0  0.83511  0.18142  0.49424  1.0000
  C   C938      1.0  0.96559  0.19137  0.59474  1.0000
  H   H1124     1.0  0.96597  0.20708  0.50397  1.0000
  H   H1125     1.0  0.75274  0.07387  0.49088  1.0000
  Fe  Fe122     1.0  0.97550  0.28555  0.56272  1.0000
  C   C939      1.0  0.65779  0.99136  0.59628  1.0000
  S   S245      1.0  0.97699  0.22340  0.54235  1.0000
  C   C940      1.0  0.81652  0.15530  0.49054  1.0000
  H   H1126     1.0  0.63791  0.02172  0.72932  1.0000
  C   C941      1.0  0.88282  0.14408  0.49081  1.0000
  H   H1127     1.0  0.96672  0.18594  0.60587  1.0000
  C   C942      1.0  0.97059  0.15188  0.58607  1.0000
  C   C943      1.0  0.83935  0.19076  0.50833  1.0000
  H   H1128     1.0  0.85375  0.21116  0.51118  1.0000
  S   S246      1.0  0.71781  0.99306  0.54952  1.0000
  H   H1129     1.0  0.97447  0.19055  0.56794  1.0000
  C   C944      1.0  0.89600  0.23698  0.96991  1.0000
  H   H1130     1.0  0.67648  0.98883  0.83306  1.0000
  Fe  Fe123     1.0  0.77776  0.05852  0.90183  1.0000
  S   S247      1.0  0.74290  0.07017  0.90512  1.0000
  S   S248      1.0  0.82126  0.08204  0.89550  1.0000
  Fe  Fe124     1.0  0.73909  0.05009  0.92594  1.0000
  S   S249      1.0  0.73384  0.06990  0.94659  1.0000
  Fe  Fe125     1.0  0.71606  0.02857  0.89543  1.0000
  H   H1131     1.0  0.66266  0.99837  0.78941  1.0000
  S   S250      1.0  0.77528  0.04117  0.92320  1.0000
  S   S251      1.0  0.75130  0.01823  0.89064  1.0000
  Fe  Fe126     1.0  0.94087  0.23156  0.89697  1.0000
  S   S252      1.0  0.95346  0.27134  0.90942  1.0000
  S   S253      1.0  0.89515  0.20870  0.89299  1.0000
  C   C945      1.0  0.66027  0.99745  0.77765  1.0000
  H   H1132     1.0  0.88497  0.24690  0.97519  1.0000
  H   H1133     1.0  0.86276  0.03825  0.90679  1.0000
  H   H1134     1.0  0.66061  0.07084  0.94080  1.0000
  C   C946      1.0  0.90153  0.24252  0.95579  1.0000
  C   C947      1.0  0.66423  0.99097  0.84136  1.0000
  C   C948      1.0  0.90479  0.21926  0.97710  1.0000
  H   H1135     1.0  0.89506  0.25648  0.95058  1.0000
  H   H1136     1.0  0.62253  0.01655  0.77580  1.0000
  C   C949      1.0  0.67633  0.00076  0.85500  1.0000
  C   C950      1.0  0.73201  0.05552  0.96330  1.0000
  C   C951      1.0  0.72895  0.02888  0.96451  1.0000
  C   C952      1.0  0.80003  0.05809  0.98129  1.0000
  H   H1137     1.0  0.91183  0.29003  0.89298  1.0000
  C   C953      1.0  0.64474  0.06233  0.93213  1.0000
  C   C954      1.0  0.73322  0.07109  0.97567  1.0000
  H   H1138     1.0  0.72810  0.01668  0.95511  1.0000
  H   H1139     1.0  0.97487  0.31771  0.97739  1.0000
  S   S254      1.0  0.96826  0.21828  0.90975  1.0000
  C   C955      1.0  0.87519  0.17356  0.89477  1.0000
  C   C956      1.0  0.84704  0.16440  0.89555  1.0000
  C   C957      1.0  0.83034  0.13666  0.89628  1.0000
  C   C958      1.0  0.84150  0.11755  0.89591  1.0000
  C   C959      1.0  0.86966  0.12672  0.89519  1.0000
  C   C960      1.0  0.88642  0.15449  0.89479  1.0000
  H   H1140     1.0  0.83804  0.17885  0.89549  1.0000
  H   H1141     1.0  0.80877  0.13005  0.89673  1.0000
  H   H1142     1.0  0.87861  0.11224  0.89484  1.0000
  H   H1143     1.0  0.90795  0.16107  0.89410  1.0000
  H   H1144     1.0  0.92686  0.19359  0.97366  1.0000
  H   H1145     1.0  0.64323  0.02365  0.75506  1.0000
  S   S255      1.0  0.97131  0.24940  0.88039  1.0000
  H   H1146     1.0  0.63938  0.03399  0.89921  1.0000
  C   C961      1.0  0.67948  0.06317  0.91681  1.0000
  H   H1147     1.0  0.81243  0.00531  0.87804  1.0000
  H   H1148     1.0  0.79740  0.09383  0.95294  1.0000
  H   H1149     1.0  0.92039  0.23502  0.93751  1.0000
  C   C962      1.0  0.66107  0.00450  0.86580  1.0000
  H   H1150     1.0  0.94358  0.31558  0.88921  1.0000
  H   H1151     1.0  0.87241  0.01176  0.90082  1.0000
  H   H1152     1.0  0.87834  0.29964  0.86866  1.0000
  H   H1153     1.0  0.69468  0.06808  0.92577  1.0000
  H   H1154     1.0  0.92019  0.26083  0.87639  1.0000
  H   H1155     1.0  0.68113  0.08257  0.91254  1.0000
  H   H1156     1.0  0.78902  0.99607  0.90085  1.0000
  C   C963      1.0  0.91567  0.23040  0.94838  1.0000
  H   H1157     1.0  0.81274  0.13073  0.97140  1.0000
  H   H1158     1.0  0.93584  0.20382  0.94925  1.0000
  H   H1159     1.0  0.88193  0.27467  0.85705  1.0000
  H   H1160     1.0  0.64235  0.08008  0.92784  1.0000
  C   C964      1.0  0.80941  0.00762  0.90592  1.0000
  C   C965      1.0  0.97751  0.29906  0.97632  1.0000
  C   C966      1.0  0.92171  0.30696  0.88596  1.0000
  C   C967      1.0  0.80115  0.08985  0.96375  1.0000
  H   H1161     1.0  0.66799  0.01863  0.77443  1.0000
  H   H1162     1.0  0.67342  0.99824  0.95565  1.0000
  H   H1163     1.0  0.68548  0.05218  0.90846  1.0000
  S   S256      1.0  0.67526  0.01794  0.88312  1.0000
  C   C968      1.0  0.79649  0.06374  0.96728  1.0000
  H   H1164     1.0  0.92330  0.26713  0.85808  1.0000
  H   H1165     1.0  0.69760  0.00603  0.85706  1.0000
  H   H1166     1.0  0.63231  0.06134  0.90528  1.0000
  H   H1167     1.0  0.83705  0.03641  0.88551  1.0000
  C   C969      1.0  0.91903  0.20708  0.96918  1.0000
  H   H1168     1.0  0.91482  0.29378  0.84180  1.0000
  C   C970      1.0  0.92426  0.21264  0.95504  1.0000
  N   N66       1.0  0.65195  0.04670  0.92111  1.0000
  H   H1169     1.0  0.80847  0.00198  0.91710  1.0000
  H   H1170     1.0  0.61218  0.02821  0.91094  1.0000
  C   C971      1.0  0.83198  0.01435  0.88431  1.0000
  H   H1171     1.0  0.78912  0.04759  0.95913  1.0000
  C   C972      1.0  0.64053  0.99640  0.91852  1.0000
  C   C973      1.0  0.85643  0.01597  0.90608  1.0000
  C   C974      1.0  0.92817  0.27718  0.86881  1.0000
  H   H1172     1.0  0.87738  0.26853  0.87525  1.0000
  H   H1173     1.0  0.81339  0.02940  0.90616  1.0000
  H   H1174     1.0  0.85593  0.00953  0.91710  1.0000
  C   C975      1.0  0.72657  0.01782  0.97789  1.0000
  H   H1175     1.0  0.62553  0.04952  0.93687  1.0000
  S   S257      1.0  0.71030  0.00989  0.91663  1.0000
  C   C976      1.0  0.97995  0.28897  0.96280  1.0000
  Fe  Fe127     1.0  0.74682  0.00218  0.91236  1.0000
  H   H1176     1.0  0.95052  0.28668  0.87037  1.0000
  H   H1177     1.0  0.72382  0.99707  0.97864  1.0000
  C   C977      1.0  0.63302  0.04221  0.90865  1.0000
  C   C978      1.0  0.61503  0.99501  0.77831  1.0000
  H   H1178     1.0  0.73561  0.09173  0.97486  1.0000
  H   H1179     1.0  0.63238  0.99474  0.90783  1.0000
  C   C979      1.0  0.80970  0.11058  0.97420  1.0000
  C   C980      1.0  0.88740  0.28464  0.86779  1.0000
  N   N67       1.0  0.91698  0.29768  0.87081  1.0000
  C   C981      1.0  0.63622  0.00415  0.74954  1.0000
  C   C982      1.0  0.66368  0.02127  0.94009  1.0000
  H   H1180     1.0  0.79511  0.03724  0.98329  1.0000
  H   H1181     1.0  0.67411  0.03965  0.94651  1.0000
  H   H1182     1.0  0.97920  0.29980  0.95355  1.0000
  C   C983      1.0  0.65146  0.02131  0.92662  1.0000
  N   N68       1.0  0.83002  0.00208  0.89823  1.0000
  C   C984      1.0  0.66376  0.99762  0.94538  1.0000
  H   H1183     1.0  0.84807  0.01222  0.87811  1.0000
  H   H1184     1.0  0.61463  0.99466  0.79006  1.0000
  C   C985      1.0  0.63343  0.99766  0.86278  1.0000
  H   H1185     1.0  0.62136  0.00053  0.87097  1.0000
  C   C986      1.0  0.92640  0.31394  0.84623  1.0000
  C   C987      1.0  0.92955  0.31960  0.86106  1.0000
  C   C988      1.0  0.63343  0.00333  0.73480  1.0000
  H   H1186     1.0  0.67365  0.98835  0.77336  1.0000
  Fe  Fe128     1.0  0.86229  0.57141  0.15071  1.0000
  S   S258      1.0  0.90566  0.60050  0.15457  1.0000
  S   S259      1.0  0.84533  0.52576  0.14576  1.0000
  Fe  Fe129     1.0  0.84252  0.61668  0.15386  1.0000
  C   C989      1.0  0.88708  0.41909  0.21997  1.0000
  S   S260      1.0  0.81057  0.63341  0.15505  1.0000
  Fe  Fe130     1.0  0.89582  0.62777  0.13979  1.0000
  H   H1187     1.0  0.89455  0.58517  0.12170  1.0000
  Fe  Fe131     1.0  0.89022  0.61858  0.17219  1.0000
  S   S261      1.0  0.91064  0.63324  0.19423  1.0000
  S   S262      1.0  0.85308  0.59748  0.13507  1.0000
  S   S263      1.0  0.84751  0.58810  0.16910  1.0000
  Fe  Fe132     1.0  0.64369  0.62849  0.13990  1.0000
  S   S264      1.0  0.63124  0.58465  0.13315  1.0000
  H   H1188     1.0  0.89501  0.55893  0.13270  1.0000
  Fe  Fe133     1.0  0.63395  0.61381  0.17166  1.0000
  S   S265      1.0  0.62187  0.56970  0.16677  1.0000
  S   S266      1.0  0.63768  0.63293  0.19391  1.0000
  Fe  Fe134     1.0  0.65628  0.58307  0.15223  1.0000
  S   S267      1.0  0.68480  0.56213  0.15127  1.0000
  Fe  Fe135     1.0  0.59762  0.57493  0.14835  1.0000
  S   S268      1.0  0.55243  0.54824  0.14453  1.0000
  S   S269      1.0  0.67017  0.62681  0.15841  1.0000
  S   S270      1.0  0.60829  0.61912  0.15388  1.0000
  Fe  Fe136     1.0  0.87782  0.39249  0.15033  1.0000
  S   S271      1.0  0.90304  0.37457  0.16222  1.0000
  S   S272      1.0  0.89657  0.43864  0.14961  1.0000
  C   C990      1.0  0.70944  0.64919  0.10017  1.0000
  H   H1189     1.0  0.83181  0.33240  0.22218  1.0000
  Fe  Fe137     1.0  0.86425  0.34913  0.17201  1.0000
  H   H1190     1.0  0.88066  0.54796  0.09439  1.0000
  S   S273      1.0  0.86851  0.36256  0.13161  1.0000
  S   S274      1.0  0.83966  0.36822  0.16092  1.0000
  H   H1191     1.0  0.51745  0.54334  0.16774  1.0000
  H   H1192     1.0  0.88411  0.53424  0.23352  1.0000
  C   C991      1.0  0.92546  0.49667  0.11902  1.0000
  C   C992      1.0  0.80319  0.60451  0.19223  1.0000
  H   H1193     1.0  0.90169  0.41298  0.21519  1.0000
  C   C993      1.0  0.89693  0.35974  0.21299  1.0000
  C   C994      1.0  0.50509  0.49886  0.18393  1.0000
  H   H1194     1.0  0.84447  0.57129  0.22522  1.0000
  H   H1195     1.0  0.90896  0.36411  0.20381  1.0000
  H   H1196     1.0  0.59562  0.55567  0.22398  1.0000
  C   C995      1.0  0.62811  0.61693  0.21009  1.0000
  C   C996      1.0  0.63363  0.63296  0.22270  1.0000
  H   H1197     1.0  0.94922  0.53856  0.11941  1.0000
  H   H1198     1.0  0.94394  0.57762  0.12670  1.0000
  C   C997      1.0  0.61495  0.58893  0.21070  1.0000
  H   H1199     1.0  0.91484  0.55663  0.08979  1.0000
  H   H1200     1.0  0.61131  0.57634  0.20115  1.0000
  C   C998      1.0  0.53352  0.51297  0.14623  1.0000
  C   C999      1.0  0.54577  0.49553  0.14951  1.0000
  C   C1000     1.0  0.52986  0.46790  0.15112  1.0000
  C   C1001     1.0  0.50517  0.50238  0.14473  1.0000
  H   H1201     1.0  0.56750  0.50324  0.15067  1.0000
  H   H1202     1.0  0.53962  0.45457  0.15346  1.0000
  H   H1203     1.0  0.49542  0.51561  0.14216  1.0000
  C   C1002     1.0  0.85981  0.50185  0.14786  1.0000
  C   C1003     1.0  0.88723  0.50957  0.15135  1.0000
  C   C1004     1.0  0.89795  0.48990  0.15214  1.0000
  C   C1005     1.0  0.88143  0.46227  0.14964  1.0000
  C   C1006     1.0  0.85392  0.45453  0.14643  1.0000
  C   C1007     1.0  0.84327  0.47422  0.14545  1.0000
  H   H1204     1.0  0.90027  0.53066  0.15324  1.0000
  H   H1205     1.0  0.91927  0.49616  0.15455  1.0000
  H   H1206     1.0  0.84097  0.43344  0.14437  1.0000
  H   H1207     1.0  0.82205  0.46799  0.14272  1.0000
  C   C1008     1.0  0.89692  0.62123  0.21072  1.0000
  C   C1009     1.0  0.87313  0.59803  0.21153  1.0000
  H   H1208     1.0  0.53935  0.57705  0.17318  1.0000
  C   C1010     1.0  0.92909  0.33813  0.10761  1.0000
  H   H1209     1.0  0.86277  0.58672  0.20195  1.0000
  C   C1011     1.0  0.73444  0.61954  0.11779  1.0000
  C   C1012     1.0  0.77595  0.61242  0.15495  1.0000
  C   C1013     1.0  0.75816  0.62375  0.15911  1.0000
  C   C1014     1.0  0.73027  0.60824  0.15841  1.0000
  C   C1015     1.0  0.71987  0.58136  0.15336  1.0000
  C   C1016     1.0  0.73773  0.56974  0.14965  1.0000
  C   C1017     1.0  0.76576  0.58522  0.15047  1.0000
  H   H1210     1.0  0.88268  0.50135  0.21500  1.0000
  H   H1211     1.0  0.71683  0.61720  0.16167  1.0000
  H   H1212     1.0  0.72982  0.54885  0.14584  1.0000
  H   H1213     1.0  0.77935  0.57627  0.14729  1.0000
  C   C1018     1.0  0.50151  0.45732  0.14970  1.0000
  C   C1019     1.0  0.68287  0.55936  0.21477  1.0000
  N   N69       1.0  0.53428  0.54812  0.18911  1.0000
  C   C1020     1.0  0.54314  0.56954  0.20065  1.0000
  C   C1021     1.0  0.55859  0.54431  0.18487  1.0000
  C   C1022     1.0  0.52379  0.55809  0.17696  1.0000
  C   C1023     1.0  0.51310  0.52224  0.19310  1.0000
  H   H1214     1.0  0.84291  0.64227  0.18053  1.0000
  H   H1215     1.0  0.66484  0.65160  0.05846  1.0000
  H   H1216     1.0  0.94235  0.49209  0.12234  1.0000
  H   H1217     1.0  0.94431  0.35334  0.08750  1.0000
  C   C1024     1.0  0.93735  0.57859  0.11557  1.0000
  H   H1218     1.0  0.55060  0.56296  0.21026  1.0000
  H   H1219     1.0  0.56005  0.58826  0.19753  1.0000
  H   H1220     1.0  0.78379  0.64125  0.19985  1.0000
  H   H1221     1.0  0.56604  0.53482  0.19324  1.0000
  H   H1222     1.0  0.57525  0.56384  0.18264  1.0000
  H   H1223     1.0  0.55505  0.53177  0.17491  1.0000
  C   C1025     1.0  0.84512  0.64317  0.19225  1.0000
  C   C1026     1.0  0.81056  0.60921  0.22225  1.0000
  H   H1224     1.0  0.86979  0.55161  0.11879  1.0000
  H   H1225     1.0  0.91345  0.47821  0.21652  1.0000
  H   H1226     1.0  0.68230  0.65197  0.08390  1.0000
  H   H1227     1.0  0.51454  0.49927  0.17409  1.0000
  H   H1228     1.0  0.73944  0.61133  0.12756  1.0000
  H   H1229     1.0  0.68685  0.62376  0.21881  1.0000
  H   H1230     1.0  0.93854  0.59944  0.11453  1.0000
  H   H1231     1.0  0.74513  0.61472  0.10904  1.0000
  H   H1232     1.0  0.85802  0.46512  0.11202  1.0000
  C   C1027     1.0  0.84962  0.43177  0.21743  1.0000
  Fe  Fe138     1.0  0.89087  0.34299  0.14406  1.0000
  C   C1028     1.0  0.86882  0.34752  0.21127  1.0000
  C   C1029     1.0  0.68555  0.58341  0.22231  1.0000
  H   H1233     1.0  0.78220  0.59548  0.19574  1.0000
  H   H1234     1.0  0.97901  0.33469  0.13616  1.0000
  C   C1030     1.0  0.89148  0.56364  0.12170  1.0000
  H   H1235     1.0  0.95212  0.57643  0.10835  1.0000
  N   N70       1.0  0.90964  0.55789  0.11211  1.0000
  H   H1236     1.0  0.71243  0.60798  0.11550  1.0000
  C   C1031     1.0  0.82251  0.63253  0.21431  1.0000
  C   C1032     1.0  0.86284  0.58929  0.22476  1.0000
  C   C1033     1.0  0.90687  0.52986  0.11362  1.0000
  C   C1034     1.0  0.68117  0.57862  0.19232  1.0000
  C   C1035     1.0  0.88125  0.50798  0.11148  1.0000
  C   C1036     1.0  0.91026  0.63541  0.22335  1.0000
  C   C1037     1.0  0.68361  0.60242  0.19936  1.0000
  C   C1038     1.0  0.68070  0.55708  0.20001  1.0000
  H   H1237     1.0  0.70422  0.64104  0.12917  1.0000
  H   H1238     1.0  0.68351  0.61898  0.19332  1.0000
  C   C1039     1.0  0.90953  0.36609  0.22668  1.0000
  H   H1239     1.0  0.75225  0.33234  0.14769  1.0000
  C   C1040     1.0  0.85354  0.34169  0.22335  1.0000
  C   C1041     1.0  0.89673  0.50556  0.22407  1.0000
  H   H1240     1.0  0.85725  0.63170  0.19511  1.0000
  C   C1042     1.0  0.92903  0.52339  0.11739  1.0000
  H   H1241     1.0  0.86337  0.51131  0.10888  1.0000
  H   H1242     1.0  0.79826  0.58961  0.21739  1.0000
  S   S275      1.0  0.88467  0.64846  0.15785  1.0000
  H   H1243     1.0  0.67945  0.57680  0.18088  1.0000
  H   H1244     1.0  0.50317  0.53638  0.21320  1.0000
  S   S276      1.0  0.85160  0.33752  0.19444  1.0000
  H   H1245     1.0  0.50590  0.56196  0.17969  1.0000
  H   H1246     1.0  0.83519  0.43558  0.21067  1.0000
  C   C1043     1.0  0.87794  0.48140  0.11316  1.0000
  H   H1247     1.0  0.89721  0.45520  0.11871  1.0000
  S   S277      1.0  0.92256  0.64563  0.12098  1.0000
  Fe  Fe139     1.0  0.83262  0.33672  0.14348  1.0000
  H   H1248     1.0  0.86862  0.42153  0.19998  1.0000
  C   C1044     1.0  0.93933  0.33655  0.09429  1.0000
  C   C1045     1.0  0.90201  0.56132  0.09740  1.0000
  H   H1249     1.0  0.52401  0.48269  0.22077  1.0000
  H   H1250     1.0  0.92638  0.35603  0.11098  1.0000
  H   H1251     1.0  0.80139  0.60465  0.18052  1.0000
  C   C1046     1.0  0.86847  0.42396  0.21137  1.0000
  C   C1047     1.0  0.90000  0.47576  0.11692  1.0000
  H   H1252     1.0  0.90422  0.58238  0.09590  1.0000
  C   C1048     1.0  0.68562  0.60490  0.21412  1.0000
  N   N71       1.0  0.81861  0.63202  0.19876  1.0000
  H   H1253     1.0  0.67862  0.53856  0.19442  1.0000
  H   H1254     1.0  0.69297  0.63424  0.10536  1.0000
  H   H1255     1.0  0.81341  0.59092  0.19459  1.0000
  C   C1049     1.0  0.60630  0.57728  0.22369  1.0000
  H   H1256     1.0  0.68256  0.54214  0.22025  1.0000
  C   C1050     1.0  0.91404  0.49249  0.22491  1.0000
  H   H1257     1.0  0.76593  0.64474  0.16270  1.0000
  C   C1051     1.0  0.48420  0.47455  0.18703  1.0000
  C   C1052     1.0  0.49877  0.51971  0.20563  1.0000
  H   H1258     1.0  0.52673  0.57576  0.20345  1.0000
  H   H1259     1.0  0.49080  0.44494  0.23199  1.0000
  H   H1260     1.0  0.93128  0.37554  0.22793  1.0000
  C   C1053     1.0  0.52149  0.48436  0.23200  1.0000
  C   C1054     1.0  0.48925  0.47482  0.14657  1.0000
  C   C1055     1.0  0.84905  0.43429  0.23212  1.0000
  N   N72       1.0  0.74208  0.64900  0.11953  1.0000
  H   H1261     1.0  0.80019  0.64853  0.18342  1.0000
  C   C1056     1.0  0.80378  0.64875  0.19507  1.0000
  H   H1262     1.0  0.73219  0.64997  0.14138  1.0000
  H   H1263     1.0  0.92869  0.65335  0.22286  1.0000
  S   S278      1.0  0.48267  0.42216  0.15175  1.0000
  H   H1264     1.0  0.77478  0.65349  0.13446  1.0000
  C   C1057     1.0  0.72609  0.65408  0.13074  1.0000
  Fe  Fe140     1.0  0.61768  0.58840  0.27447  1.0000
  S   S279      1.0  0.62887  0.55469  0.28063  1.0000
  S   S280      1.0  0.59776  0.57812  0.25212  1.0000
  Fe  Fe141     1.0  0.63851  0.61807  0.30412  1.0000
  S   S281      1.0  0.65107  0.58580  0.31151  1.0000
  Fe  Fe142     1.0  0.66729  0.58691  0.28995  1.0000
  S   S282      1.0  0.70676  0.58954  0.28170  1.0000
  Fe  Fe143     1.0  0.61084  0.55662  0.30131  1.0000
  S   S283      1.0  0.58407  0.51793  0.31166  1.0000
  S   S284      1.0  0.65704  0.62074  0.28291  1.0000
  S   S285      1.0  0.59741  0.58881  0.29493  1.0000
  Fe  Fe144     1.0  0.87300  0.60071  0.27739  1.0000
  S   S286      1.0  0.84996  0.56313  0.28887  1.0000
  S   S287      1.0  0.86198  0.59102  0.25369  1.0000
  Fe  Fe145     1.0  0.90054  0.63268  0.30579  1.0000
  S   S288      1.0  0.88067  0.59621  0.31841  1.0000
  N   N73       1.0  0.86549  0.43055  0.25674  1.0000
  Fe  Fe146     1.0  0.88912  0.57210  0.30077  1.0000
  S   S289      1.0  0.90753  0.54092  0.30122  1.0000
  Fe  Fe147     1.0  0.84340  0.59039  0.30514  1.0000
  S   S290      1.0  0.80567  0.58394  0.31669  1.0000
  S   S291      1.0  0.91261  0.60938  0.28904  1.0000
  S   S292      1.0  0.86276  0.62717  0.29282  1.0000
  Fe  Fe148     1.0  0.88806  0.35738  0.27598  1.0000
  S   S293      1.0  0.84674  0.35638  0.27727  1.0000
  S   S294      1.0  0.91073  0.36902  0.25577  1.0000
  Fe  Fe149     1.0  0.88927  0.34080  0.30717  1.0000
  H   H1265     1.0  0.54700  0.52878  0.26018  1.0000
  H   H1266     1.0  0.85624  0.63583  0.35385  1.0000
  H   H1267     1.0  0.83390  0.44017  0.23632  1.0000
  Fe  Fe150     1.0  0.86188  0.37822  0.29845  1.0000
  S   S295      1.0  0.84807  0.41232  0.30249  1.0000
  S   S296      1.0  0.90419  0.38106  0.29674  1.0000
  H   H1268     1.0  0.94337  0.58467  0.24584  1.0000
  C   C1058     1.0  0.56329  0.55666  0.34481  1.0000
  H   H1269     1.0  0.50209  0.43440  0.31436  1.0000
  H   H1270     1.0  0.89139  0.55730  0.27248  1.0000
  H   H1271     1.0  0.92460  0.59351  0.25888  1.0000
  C   C1059     1.0  0.89054  0.50515  0.30128  1.0000
  C   C1060     1.0  0.86256  0.49208  0.30197  1.0000
  C   C1061     1.0  0.85003  0.46373  0.30236  1.0000
  C   C1062     1.0  0.86519  0.44801  0.30193  1.0000
  C   C1063     1.0  0.89313  0.46104  0.30093  1.0000
  C   C1064     1.0  0.90569  0.48942  0.30063  1.0000
  H   H1272     1.0  0.85060  0.50382  0.30251  1.0000
  H   H1273     1.0  0.82842  0.45392  0.30316  1.0000
  H   H1274     1.0  0.90514  0.44933  0.30072  1.0000
  H   H1275     1.0  0.92736  0.49929  0.30018  1.0000
  C   C1065     1.0  0.73406  0.58860  0.29188  1.0000
  C   C1066     1.0  0.73263  0.58402  0.30631  1.0000
  C   C1067     1.0  0.75479  0.58276  0.31387  1.0000
  C   C1068     1.0  0.77838  0.58605  0.30705  1.0000
  C   C1069     1.0  0.77989  0.59099  0.29269  1.0000
  C   C1070     1.0  0.75779  0.59222  0.28514  1.0000
  H   H1276     1.0  0.71431  0.58092  0.31154  1.0000
  H   H1277     1.0  0.75346  0.57870  0.32496  1.0000
  H   H1278     1.0  0.79796  0.59349  0.28735  1.0000
  H   H1279     1.0  0.75904  0.59577  0.27399  1.0000
  C   C1071     1.0  0.54883  0.49804  0.30869  1.0000
  C   C1072     1.0  0.53123  0.50874  0.30325  1.0000
  C   C1073     1.0  0.50319  0.49288  0.30217  1.0000
  C   C1074     1.0  0.53801  0.47112  0.31267  1.0000
  H   H1280     1.0  0.53915  0.52939  0.30018  1.0000
  H   H1281     1.0  0.54403  0.55416  0.34956  1.0000
  H   H1282     1.0  0.55138  0.46265  0.31696  1.0000
  C   C1075     1.0  0.86732  0.42883  0.24122  1.0000
  C   C1076     1.0  0.87603  0.60358  0.23738  1.0000
  H   H1283     1.0  0.50947  0.42734  0.26769  1.0000
  H   H1284     1.0  0.58693  0.61868  0.38648  1.0000
  H   H1285     1.0  0.89870  0.33896  0.34896  1.0000
  C   C1077     1.0  0.49422  0.43374  0.27216  1.0000
  H   H1286     1.0  0.54132  0.58798  0.33205  1.0000
  H   H1287     1.0  0.66755  0.56611  0.25591  1.0000
  C   C1078     1.0  0.86610  0.34790  0.23699  1.0000
  H   H1288     1.0  0.85405  0.34325  0.24616  1.0000
  C   C1079     1.0  0.58371  0.60609  0.35056  1.0000
  H   H1289     1.0  0.90135  0.41673  0.24064  1.0000
  C   C1080     1.0  0.97630  0.36756  0.35844  1.0000
  C   C1081     1.0  0.66570  0.56444  0.24414  1.0000
  H   H1290     1.0  0.61690  0.58441  0.34214  1.0000
  H   H1291     1.0  0.62929  0.63400  0.24528  1.0000
  N   N74       1.0  0.91750  0.55138  0.25748  1.0000
  H   H1292     1.0  0.57024  0.60541  0.32198  1.0000
  H   H1293     1.0  0.57622  0.55196  0.35267  1.0000
  H   H1294     1.0  0.88518  0.52290  0.26869  1.0000
  H   H1295     1.0  0.48975  0.50160  0.29825  1.0000
  H   H1296     1.0  0.91033  0.63790  0.24620  1.0000
  H   H1297     1.0  0.94837  0.52036  0.25573  1.0000
  C   C1082     1.0  0.60031  0.64925  0.37136  1.0000
  H   H1298     1.0  0.93407  0.53745  0.27495  1.0000
  H   H1299     1.0  0.85458  0.46470  0.25680  1.0000
  H   H1300     1.0  0.82211  0.41756  0.25655  1.0000
  C   C1083     1.0  0.51002  0.45503  0.31122  1.0000
  C   C1084     1.0  0.49236  0.46593  0.30613  1.0000
  C   C1085     1.0  0.89779  0.52441  0.23471  1.0000
  C   C1086     1.0  0.88546  0.42343  0.26473  1.0000
  H   H1301     1.0  0.65842  0.63349  0.34306  1.0000
  C   C1087     1.0  0.92374  0.57755  0.25096  1.0000
  C   C1088     1.0  0.49894  0.46422  0.25339  1.0000
  H   H1302     1.0  0.70943  0.62905  0.24053  1.0000
  C   C1089     1.0  0.89989  0.62669  0.23661  1.0000
  H   H1303     1.0  0.67318  0.61561  0.24171  1.0000
  H   H1304     1.0  0.59890  0.63877  0.33604  1.0000
  H   H1305     1.0  0.50499  0.45044  0.28012  1.0000
  H   H1306     1.0  0.73181  0.59712  0.23728  1.0000
  C   C1090     1.0  0.91645  0.53088  0.24653  1.0000
  S   S297      1.0  0.84771  0.33945  0.31025  1.0000
  H   H1307     1.0  0.96291  0.37691  0.36146  1.0000
  C   C1091     1.0  0.83828  0.41182  0.26066  1.0000
  H   H1308     1.0  0.90755  0.32847  0.37344  1.0000
  H   H1309     1.0  0.89010  0.47306  0.25862  1.0000
  N   N75       1.0  0.68908  0.58568  0.23792  1.0000
  C   C1092     1.0  0.90866  0.32560  0.35071  1.0000
  C   C1093     1.0  0.88664  0.42141  0.23468  1.0000
  H   H1310     1.0  0.61347  0.60496  0.32849  1.0000
  H   H1311     1.0  0.95885  0.56348  0.26515  1.0000
  H   H1312     1.0  0.83663  0.41131  0.27234  1.0000
  H   H1313     1.0  0.55353  0.56985  0.31992  1.0000
  H   H1314     1.0  0.88312  0.42418  0.27633  1.0000
  S   S298      1.0  0.91246  0.32251  0.32131  1.0000
  H   H1315     1.0  0.86897  0.46037  0.27313  1.0000
  C   C1094     1.0  0.50242  0.46269  0.23864  1.0000
  H   H1316     1.0  0.90654  0.43741  0.26290  1.0000
  H   H1317     1.0  0.84047  0.64314  0.31706  1.0000
  C   C1095     1.0  0.58069  0.60130  0.36518  1.0000
  C   C1096     1.0  0.61143  0.59340  0.23628  1.0000
  H   H1318     1.0  0.88294  0.40253  0.26183  1.0000
  H   H1319     1.0  0.90818  0.57640  0.24278  1.0000
  C   C1097     1.0  0.53435  0.51031  0.25417  1.0000
  H   H1320     1.0  0.69399  0.61295  0.25596  1.0000
  H   H1321     1.0  0.83357  0.39088  0.25656  1.0000
  H   H1322     1.0  0.93829  0.57149  0.27715  1.0000
  C   C1098     1.0  0.71392  0.58220  0.24221  1.0000
  C   C1099     1.0  0.86996  0.45838  0.26147  1.0000
  N   N76       1.0  0.57732  0.58412  0.33955  1.0000
  C   C1100     1.0  0.85840  0.64036  0.34251  1.0000
  C   C1101     1.0  0.89419  0.36011  0.23874  1.0000
  C   C1102     1.0  0.55985  0.58704  0.32793  1.0000
  H   H1323     1.0  0.66355  0.54379  0.24104  1.0000
  H   H1324     1.0  0.55822  0.54073  0.33613  1.0000
  H   H1325     1.0  0.64653  0.56600  0.24091  1.0000
  H   H1326     1.0  0.87458  0.54158  0.25622  1.0000
  C   C1103     1.0  0.60279  0.58574  0.33372  1.0000
  H   H1327     1.0  0.51389  0.49156  0.27214  1.0000
  H   H1328     1.0  0.59915  0.56910  0.32570  1.0000
  C   C1104     1.0  0.69156  0.61204  0.24421  1.0000
  C   C1105     1.0  0.89098  0.54276  0.26389  1.0000
  C   C1106     1.0  0.51538  0.48881  0.26091  1.0000
  C   C1107     1.0  0.93817  0.55603  0.26909  1.0000
  H   H1329     1.0  0.57246  0.58126  0.36904  1.0000
  H   H1330     1.0  0.80731  0.62584  0.33595  1.0000
  H   H1331     1.0  0.71807  0.58499  0.25384  1.0000
  H   H1332     1.0  0.84856  0.62061  0.33644  1.0000
  C   C1108     1.0  0.58893  0.62268  0.37537  1.0000
  C   C1109     1.0  0.93362  0.51693  0.24715  1.0000
  C   C1110     1.0  0.59508  0.63342  0.34687  1.0000
  H   H1333     1.0  0.80676  0.59225  0.24274  1.0000
  H   H1334     1.0  0.74413  0.62469  0.33481  1.0000
  C   C1111     1.0  0.81504  0.61042  0.23690  1.0000
  H   H1335     1.0  0.81404  0.64415  0.35273  1.0000
  H   H1336     1.0  0.71256  0.56173  0.23929  1.0000
  C   C1112     1.0  0.81710  0.64638  0.34123  1.0000
  H   H1337     1.0  0.71528  0.63026  0.31560  1.0000
  C   C1113     1.0  0.53743  0.50808  0.23976  1.0000
  C   C1114     1.0  0.74021  0.64274  0.33486  1.0000
  C   C1115     1.0  0.62551  0.62129  0.23574  1.0000
  H   H1338     1.0  0.83557  0.63515  0.25535  1.0000
  H   H1339     1.0  0.96947  0.37045  0.33622  1.0000
  C   C1116     1.0  0.72389  0.64576  0.32403  1.0000
  H   H1340     1.0  0.67257  0.65258  0.36765  1.0000
  C   C1117     1.0  0.83139  0.63464  0.24407  1.0000
  H   H1341     1.0  0.94572  0.48773  0.23704  1.0000
  C   C1118     1.0  0.93228  0.49800  0.23646  1.0000
  C   C1119     1.0  0.97997  0.36394  0.34420  1.0000
  H   H1342     1.0  0.88011  0.64839  0.34016  1.0000
  H   H1343     1.0  0.93173  0.65316  0.34258  1.0000
  H   H1344     1.0  0.55235  0.52483  0.23467  1.0000
  C   C1120     1.0  0.66269  0.65441  0.34555  1.0000
  S   S299      1.0  0.98005  0.32496  0.57462  1.0000
  S   S300      1.0  0.49347  0.60528  0.64627  1.0000
  H   H1345     1.0  0.50863  0.62381  0.68480  1.0000
  H   H1346     1.0  0.51943  0.58655  0.67962  1.0000
  C   C1121     1.0  0.48685  0.61008  0.68468  1.0000
  C   C1122     1.0  0.49786  0.57230  0.67990  1.0000
  H   H1347     1.0  0.96626  0.58681  0.58131  1.0000
  Fe  Fe151     1.0  0.51892  0.65086  0.64992  1.0000
  H   H1348     1.0  0.49741  0.55271  0.68319  1.0000
  C   C1123     1.0  0.49464  0.58635  0.70389  1.0000
  H   H1349     1.0  0.51566  0.60219  0.70480  1.0000
  H   H1350     1.0  0.50507  0.63633  0.72632  1.0000
  H   H1351     1.0  0.49592  0.56772  0.70758  1.0000
  N   N77       1.0  0.48272  0.58288  0.68926  1.0000
  H   H1352     1.0  0.48931  0.56913  0.66884  1.0000
  C   C1124     1.0  0.52502  0.65219  0.72603  1.0000
  H   H1353     1.0  0.96613  0.63025  0.57435  1.0000
  C   C1125     1.0  0.97993  0.60544  0.58677  1.0000
  C   C1126     1.0  0.97976  0.62985  0.58285  1.0000
  H   H1354     1.0  0.48259  0.59237  0.71143  1.0000
  C   C1127     1.0  0.95803  0.36660  0.85630  1.0000
  H   H1355     1.0  0.53702  0.63890  0.83195  1.0000
  S   S301      1.0  0.53753  0.64448  0.79645  1.0000
  H   H1356     1.0  0.52854  0.59570  0.85372  1.0000
  C   C1128     1.0  0.95464  0.36030  0.84183  1.0000
  H   H1357     1.0  0.48618  0.63489  0.85697  1.0000
  H   H1358     1.0  0.53886  0.63068  0.85818  1.0000
  H   H1359     1.0  0.50162  0.56308  0.83736  1.0000
  C   C1129     1.0  0.93884  0.33403  0.83680  1.0000
  H   H1360     1.0  0.96506  0.37563  0.83452  1.0000
  H   H1361     1.0  0.95032  0.35282  0.87689  1.0000
  C   C1130     1.0  0.52082  0.61144  0.85585  1.0000
  H   H1362     1.0  0.50935  0.60626  0.86562  1.0000
  H   H1363     1.0  0.93685  0.32917  0.82553  1.0000
  H   H1364     1.0  0.52726  0.60364  0.82852  1.0000
  C   C1131     1.0  0.51932  0.61907  0.83099  1.0000
  N   N78       1.0  0.50364  0.61358  0.84388  1.0000
  H   H1365     1.0  0.48527  0.64070  0.83834  1.0000
  S   S302      1.0  0.52896  0.64569  0.75456  1.0000
  C   C1132     1.0  0.49740  0.63729  0.84715  1.0000
  H   H1366     1.0  0.50649  0.61934  0.82167  1.0000
  C   C1133     1.0  0.94584  0.34665  0.86584  1.0000
  H   H1367     1.0  0.97110  0.38690  0.86015  1.0000
  H   H1368     1.0  0.91361  0.32235  0.88830  1.0000
  Fe  Fe152     1.0  0.72765  0.77047  0.02641  1.0000
  S   S303      1.0  0.76632  0.80424  0.03419  1.0000
  S   S304      1.0  0.71951  0.75272  0.00356  1.0000
  Fe  Fe153     1.0  0.70771  0.75889  0.05699  1.0000
  S   S305      1.0  0.74474  0.79313  0.06658  1.0000
  S   S306      1.0  0.67356  0.72679  0.06872  1.0000
  Fe  Fe154     1.0  0.74084  0.81747  0.04836  1.0000
  S   S307      1.0  0.75780  0.86370  0.04846  1.0000
  Fe  Fe155     1.0  0.76745  0.77814  0.05169  1.0000
  S   S308      1.0  0.80266  0.77016  0.06020  1.0000
  S   S309      1.0  0.70160  0.78445  0.03964  1.0000
  S   S310      1.0  0.73089  0.74295  0.04297  1.0000
  Fe  Fe156     1.0  0.94951  0.81064  0.04385  1.0000
  S   S311      1.0  0.91955  0.82773  0.03739  1.0000
  S   S312      1.0  0.94099  0.76683  0.04063  1.0000
  S   S313      1.0  0.71756  0.95711  0.06178  1.0000
  C   C1134     1.0  0.93798  0.71780  0.09212  1.0000
  C   C1135     1.0  0.92294  0.71500  0.10426  1.0000
  C   C1136     1.0  0.92732  0.67329  0.10989  1.0000
  C   C1137     1.0  0.94237  0.67609  0.09775  1.0000
  C   C1138     1.0  0.94757  0.69802  0.08893  1.0000
  H   H1369     1.0  0.91064  0.76456  0.01122  1.0000
  C   C1139     1.0  0.72015  0.87931  0.01376  1.0000
  C   C1140     1.0  0.64703  0.67278  0.09993  1.0000
  C   C1141     1.0  0.83478  0.78599  0.05340  1.0000
  C   C1142     1.0  0.85536  0.77845  0.05805  1.0000
  C   C1143     1.0  0.88133  0.79087  0.05302  1.0000
  C   C1144     1.0  0.88692  0.81120  0.04345  1.0000
  C   C1145     1.0  0.86631  0.81863  0.03868  1.0000
  C   C1146     1.0  0.84023  0.80594  0.04359  1.0000
  H   H1370     1.0  0.85122  0.76295  0.06560  1.0000
  H   H1371     1.0  0.89710  0.78500  0.05674  1.0000
  H   H1372     1.0  0.87053  0.83428  0.03123  1.0000
  H   H1373     1.0  0.82441  0.81155  0.03975  1.0000
  C   C1147     1.0  0.74637  0.88928  0.05276  1.0000
  C   C1148     1.0  0.76321  0.91621  0.05034  1.0000
  C   C1149     1.0  0.75499  0.93729  0.05326  1.0000
  C   C1150     1.0  0.72979  0.93168  0.05870  1.0000
  C   C1151     1.0  0.71311  0.90478  0.06130  1.0000
  C   C1152     1.0  0.72126  0.88366  0.05830  1.0000
  H   H1374     1.0  0.78267  0.92082  0.04605  1.0000
  H   H1375     1.0  0.76811  0.95785  0.05126  1.0000
  H   H1376     1.0  0.69362  0.90020  0.06557  1.0000
  H   H1377     1.0  0.70811  0.86311  0.06028  1.0000
  C   C1153     1.0  0.67250  0.70972  0.08475  1.0000
  C   C1154     1.0  0.69383  0.71853  0.09501  1.0000
  C   C1155     1.0  0.69161  0.70478  0.10765  1.0000
  C   C1156     1.0  0.66824  0.68177  0.11027  1.0000
  C   C1157     1.0  0.75630  0.67971  0.09880  1.0000
  C   C1158     1.0  0.64911  0.68673  0.08736  1.0000
  H   H1378     1.0  0.71194  0.73614  0.09329  1.0000
  Fe  Fe157     1.0  0.96254  0.77102  0.06203  1.0000
  C   C1159     1.0  0.67598  0.92439  0.02821  1.0000
  H   H1379     1.0  0.76513  0.70591  0.08131  1.0000
  H   H1380     1.0  0.71663  0.90449  0.03040  1.0000
  H   H1381     1.0  0.91541  0.73007  0.10693  1.0000
  H   H1382     1.0  0.66966  0.73444  0.01639  1.0000
  C   C1160     1.0  0.87659  0.88920  0.06152  1.0000
  C   C1161     1.0  0.82641  0.89298  0.06596  1.0000
  H   H1383     1.0  0.80474  0.86935  0.08851  1.0000
  H   H1384     1.0  0.84143  0.91213  0.07108  1.0000
  H   H1385     1.0  0.80604  0.89231  0.06799  1.0000
  H   H1386     1.0  0.82777  0.89367  0.05429  1.0000
  H   H1387     1.0  0.87304  0.90522  0.05668  1.0000
  H   H1388     1.0  0.91613  0.90308  0.05315  1.0000
  H   H1389     1.0  0.72609  0.80727  0.99637  1.0000
  H   H1390     1.0  0.82299  0.84912  0.09116  1.0000
  C   C1162     1.0  0.61282  0.67930  0.02177  1.0000
  H   H1391     1.0  0.60324  0.66697  0.03079  1.0000
  C   C1163     1.0  0.82439  0.86820  0.08663  1.0000
  C   C1164     1.0  0.69807  0.90563  0.99578  1.0000
  C   C1165     1.0  0.84850  0.76652  0.00486  1.0000
  C   C1166     1.0  0.70310  0.65920  0.08783  1.0000
  C   C1167     1.0  0.69694  0.67733  0.02886  1.0000
  H   H1392     1.0  0.62376  0.72935  0.03369  1.0000
  N   N79       1.0  0.82987  0.86916  0.07139  1.0000
  C   C1168     1.0  0.90158  0.88831  0.05943  1.0000
  C   C1169     1.0  0.63603  0.71847  0.03740  1.0000
  H   H1393     1.0  0.84045  0.88524  0.09282  1.0000
  C   C1170     1.0  0.79479  0.75969  0.00952  1.0000
  C   C1171     1.0  0.85687  0.86949  0.06935  1.0000
  H   H1394     1.0  0.78872  0.84393  0.06514  1.0000
  S   S314      1.0  0.94476  0.74671  0.08168  1.0000
  H   H1395     1.0  0.65119  0.70589  0.00436  1.0000
  C   C1172     1.0  0.70156  0.91324  0.01045  1.0000
  C   C1173     1.0  0.80931  0.84488  0.06387  1.0000
  H   H1396     1.0  0.68554  0.91854  0.03729  1.0000
  C   C1174     1.0  0.64954  0.71782  0.01375  1.0000
  C   C1175     1.0  0.68118  0.94601  0.00625  1.0000
  H   H1397     1.0  0.95915  0.69968  0.07969  1.0000
  H   H1398     1.0  0.89174  0.77333  0.02378  1.0000
  H   H1399     1.0  0.71791  0.68820  0.07189  1.0000
  N   N80       1.0  0.69450  0.93480  0.01659  1.0000
  H   H1400     1.0  0.81254  0.84491  0.05236  1.0000
  H   H1401     1.0  0.85738  0.66464  0.19544  1.0000
  N   N81       1.0  0.63951  0.70090  0.02604  1.0000
  H   H1402     1.0  0.80941  0.82586  0.06778  1.0000
  H   H1403     1.0  0.86410  0.73418  0.98925  1.0000
  S   S315      1.0  0.96814  0.81432  0.06558  1.0000
  H   H1404     1.0  0.77721  0.68873  0.10248  1.0000
  H   H1405     1.0  0.66968  0.93998  0.03277  1.0000
  H   H1406     1.0  0.63233  0.67971  0.07965  1.0000
  H   H1407     1.0  0.72992  0.95111  0.03079  1.0000
  H   H1408     1.0  0.89334  0.83216  0.07675  1.0000
  C   C1176     1.0  0.72196  0.76895  0.98728  1.0000
  C   C1177     1.0  0.83623  0.75694  0.01774  1.0000
  C   C1178     1.0  0.86373  0.84895  0.07481  1.0000
  C   C1179     1.0  0.90770  0.86802  0.06508  1.0000
  C   C1180     1.0  0.65769  0.68849  0.03116  1.0000
  C   C1181     1.0  0.71628  0.87218  0.99937  1.0000
  H   H1409     1.0  0.84936  0.83251  0.08028  1.0000
  H   H1410     1.0  0.91468  0.80450  0.99974  1.0000
  H   H1411     1.0  0.72816  0.67534  0.13107  1.0000
  H   H1412     1.0  0.95633  0.79177  0.00093  1.0000
  H   H1413     1.0  0.84676  0.75240  0.02643  1.0000
  C   C1182     1.0  0.71932  0.95736  0.02239  1.0000
  H   H1414     1.0  0.72193  0.85652  0.99516  1.0000
  H   H1415     1.0  0.62887  0.65525  0.10171  1.0000
  H   H1416     1.0  0.68992  0.91511  0.98823  1.0000
  C   C1183     1.0  0.88886  0.84847  0.07280  1.0000
  H   H1417     1.0  0.71468  0.97377  0.02728  1.0000
  H   H1418     1.0  0.92674  0.86688  0.06306  1.0000
  H   H1419     1.0  0.77436  0.75727  0.01133  1.0000
  H   H1420     1.0  0.73375  0.96620  0.01403  1.0000
  H   H1421     1.0  0.89157  0.81196  0.01027  1.0000
  C   C1184     1.0  0.71297  0.89952  0.01922  1.0000
  H   H1422     1.0  0.66214  0.93016  0.00149  1.0000
  C   C1185     1.0  0.80974  0.75353  0.01993  1.0000
  H   H1423     1.0  0.69477  0.95607  0.99773  1.0000
  C   C1186     1.0  0.91755  0.69295  0.11302  1.0000
  H   H1424     1.0  0.63597  0.72753  0.01036  1.0000
  H   H1425     1.0  0.71451  0.67898  0.02321  1.0000
  H   H1426     1.0  0.70823  0.71202  0.11547  1.0000
  H   H1427     1.0  0.87841  0.73985  0.01535  1.0000
  N   N82       1.0  0.87665  0.77085  0.00221  1.0000
  C   C1187     1.0  0.72311  0.67962  0.08109  1.0000
  H   H1428     1.0  0.59860  0.68768  0.01759  1.0000
  C   C1188     1.0  0.98155  0.77253  0.99379  1.0000
  H   H1429     1.0  0.67600  0.96199  0.01130  1.0000
  C   C1189     1.0  0.88976  0.76166  0.01365  1.0000
  C   C1190     1.0  0.83849  0.65703  0.22201  1.0000
  C   C1191     1.0  0.74967  0.68974  0.08651  1.0000
  C   C1192     1.0  0.73621  0.65922  0.10610  1.0000
  C   C1193     1.0  0.89296  0.80001  0.00081  1.0000
  C   C1194     1.0  0.68042  0.68955  0.02378  1.0000
  H   H1430     1.0  0.88622  0.80788  0.99146  1.0000
  H   H1431     1.0  0.97382  0.72645  0.14100  1.0000
  H   H1432     1.0  0.95018  0.66120  0.09516  1.0000
  H   H1433     1.0  0.62591  0.70724  0.04660  1.0000
  H   H1434     1.0  0.90608  0.69136  0.12229  1.0000
  C   C1195     1.0  0.83270  0.77278  0.99451  1.0000
  C   C1196     1.0  0.87747  0.75600  0.98894  1.0000
  H   H1435     1.0  0.84798  0.67564  0.21675  1.0000
  H   H1436     1.0  0.65757  0.90646  0.02453  1.0000
  H   H1437     1.0  0.80090  0.74657  0.02992  1.0000
  H   H1438     1.0  0.97826  0.79854  0.09552  1.0000
  H   H1439     1.0  0.79448  0.77425  0.98882  1.0000
  H   H1440     1.0  0.77771  0.68391  0.12667  1.0000
  H   H1441     1.0  0.68629  0.70015  0.01420  1.0000
  H   H1442     1.0  0.78409  0.65820  0.11667  1.0000
  C   C1197     1.0  0.72473  0.79563  0.98669  1.0000
  C   C1198     1.0  0.65231  0.67391  0.04365  1.0000
  H   H1443     1.0  0.81506  0.67021  0.19869  1.0000
  H   H1444     1.0  0.65588  0.73387  0.04149  1.0000
  C   C1199     1.0  0.96374  0.78497  0.99183  1.0000
  H   H1445     1.0  0.61469  0.66539  0.01341  1.0000
  S   S316      1.0  0.66702  0.66503  0.12644  1.0000
  C   C1200     1.0  0.80623  0.76930  0.99684  1.0000
  H   H1446     1.0  0.89822  0.75765  0.98707  1.0000
  H   H1447     1.0  0.72890  0.86924  0.02075  1.0000
  C   C1201     1.0  0.77094  0.66184  0.12447  1.0000
  C   C1202     1.0  0.66906  0.66195  0.04868  1.0000
  H   H1448     1.0  0.63541  0.67208  0.04984  1.0000
  C   C1203     1.0  0.70532  0.88533  0.99041  1.0000
  H   H1449     1.0  0.70453  0.65469  0.04534  1.0000
  C   C1204     1.0  0.69139  0.66371  0.04132  1.0000
  Fe  Fe158     1.0  0.98209  0.78289  0.03156  1.0000
  H   H1450     1.0  0.84079  0.78071  0.98459  1.0000
  H   H1451     1.0  0.64382  0.65464  0.22235  1.0000
  Fe  Fe159     1.0  0.73704  0.77754  0.42121  1.0000
  S   S317      1.0  0.76745  0.81206  0.41012  1.0000
  S   S318      1.0  0.74472  0.78904  0.44504  1.0000
  Fe  Fe160     1.0  0.71052  0.74693  0.39194  1.0000
  S   S319      1.0  0.73854  0.78068  0.37973  1.0000
  S   S320      1.0  0.68514  0.70486  0.38120  1.0000
  Fe  Fe161     1.0  0.77078  0.78064  0.39521  1.0000
  S   S321      1.0  0.80389  0.76832  0.38862  1.0000
  Fe  Fe162     1.0  0.73240  0.80912  0.39590  1.0000
  S   S322      1.0  0.71983  0.84382  0.39180  1.0000
  S   S323      1.0  0.74301  0.74647  0.40724  1.0000
  S   S324      1.0  0.70165  0.77516  0.40722  1.0000
  H   H1452     1.0  0.75630  0.68052  0.37395  1.0000
  S   S325      1.0  0.92368  0.67574  0.31577  1.0000
  C   C1205     1.0  0.72154  0.93497  0.44919  1.0000
  Fe  Fe163     1.0  0.95760  0.81506  0.39721  1.0000
  S   S326      1.0  0.93044  0.83613  0.39159  1.0000
  S   S327      1.0  0.94177  0.77271  0.40420  1.0000
  C   C1206     1.0  0.95306  0.71432  0.36107  1.0000
  C   C1207     1.0  0.95053  0.72967  0.34999  1.0000
  C   C1208     1.0  0.94142  0.71750  0.33630  1.0000
  N   N83       1.0  0.84621  0.65933  0.33853  1.0000
  C   C1209     1.0  0.93669  0.67440  0.34455  1.0000
  C   C1210     1.0  0.67088  0.66538  0.35952  1.0000
  C   C1211     1.0  0.94610  0.68663  0.35820  1.0000
  C   C1212     1.0  0.84912  0.66289  0.32316  1.0000
  C   C1213     1.0  0.83887  0.78796  0.39013  1.0000
  C   C1214     1.0  0.85615  0.77461  0.39010  1.0000
  C   C1215     1.0  0.88419  0.78925  0.39077  1.0000
  C   C1216     1.0  0.89521  0.81737  0.39115  1.0000
  C   C1217     1.0  0.87790  0.83079  0.39116  1.0000
  C   C1218     1.0  0.84974  0.81613  0.39081  1.0000
  H   H1453     1.0  0.84788  0.75282  0.38957  1.0000
  H   H1454     1.0  0.89726  0.77873  0.39074  1.0000
  H   H1455     1.0  0.88633  0.85258  0.39140  1.0000
  H   H1456     1.0  0.83654  0.82658  0.39065  1.0000
  C   C1219     1.0  0.73614  0.87941  0.39520  1.0000
  C   C1220     1.0  0.72072  0.89484  0.39426  1.0000
  C   C1221     1.0  0.73261  0.92307  0.39695  1.0000
  C   C1222     1.0  0.76027  0.93636  0.40036  1.0000
  C   C1223     1.0  0.77571  0.92094  0.40126  1.0000
  C   C1224     1.0  0.76372  0.89265  0.39884  1.0000
  H   H1457     1.0  0.69939  0.88487  0.39143  1.0000
  H   H1458     1.0  0.72046  0.93457  0.39608  1.0000
  H   H1459     1.0  0.79714  0.93097  0.40377  1.0000
  H   H1460     1.0  0.77591  0.88116  0.39949  1.0000
  C   C1225     1.0  0.67658  0.69260  0.36313  1.0000
  C   C1226     1.0  0.67408  0.70873  0.35245  1.0000
  C   C1227     1.0  0.66521  0.69758  0.33857  1.0000
  H   H1461     1.0  0.85593  0.67669  0.24227  1.0000
  H   H1462     1.0  0.72360  0.70555  0.33440  1.0000
  C   C1228     1.0  0.96105  0.78199  0.47351  1.0000
  C   C1229     1.0  0.90979  0.80782  0.43403  1.0000
  H   H1463     1.0  0.70157  0.97626  0.47996  1.0000
  H   H1464     1.0  0.83856  0.67490  0.31885  1.0000
  H   H1465     1.0  0.61252  0.67529  0.35405  1.0000
  C   C1230     1.0  0.72548  0.74796  0.46412  1.0000
  C   C1231     1.0  0.73788  0.77562  0.46210  1.0000
  C   C1232     1.0  0.74581  0.79363  0.47408  1.0000
  H   H1466     1.0  0.72682  0.93819  0.42692  1.0000
  C   C1233     1.0  0.65923  0.67030  0.33499  1.0000
  H   H1467     1.0  0.71923  0.73380  0.45507  1.0000
  H   H1468     1.0  0.75552  0.81506  0.47273  1.0000
  C   C1234     1.0  0.89044  0.71729  0.36439  1.0000
  H   H1469     1.0  0.67810  0.72960  0.35498  1.0000
  C   C1235     1.0  0.78900  0.71725  0.35728  1.0000
  C   C1236     1.0  0.74640  0.68652  0.34601  1.0000
  Fe  Fe164     1.0  0.97301  0.78926  0.42223  1.0000
  H   H1470     1.0  0.79643  0.72445  0.34676  1.0000
  H   H1471     1.0  0.75955  0.74141  0.34563  1.0000
  H   H1472     1.0  0.91030  0.83804  0.41996  1.0000
  Fe  Fe165     1.0  0.97392  0.76866  0.39116  1.0000
  H   H1473     1.0  0.90656  0.72172  0.37244  1.0000
  H   H1474     1.0  0.76346  0.74766  0.36432  1.0000
  H   H1475     1.0  0.93061  0.81135  0.43251  1.0000
  H   H1476     1.0  0.78969  0.77827  0.42591  1.0000
  H   H1477     1.0  0.72778  0.68884  0.37151  1.0000
  N   N84       1.0  0.72862  0.85887  0.44429  1.0000
  C   C1237     1.0  0.70601  0.83697  0.45068  1.0000
  C   C1238     1.0  0.72929  0.84981  0.42941  1.0000
  C   C1239     1.0  0.75428  0.86226  0.45173  1.0000
  C   C1240     1.0  0.72543  0.88462  0.44570  1.0000
  C   C1241     1.0  0.72722  0.90109  0.43412  1.0000
  C   C1242     1.0  0.72199  0.89474  0.45914  1.0000
  H   H1478     1.0  0.94804  0.67448  0.36661  1.0000
  C   C1243     1.0  0.72109  0.73854  0.47792  1.0000
  S   S328      1.0  0.77678  0.97214  0.40286  1.0000
  H   H1479     1.0  0.68626  0.83497  0.44590  1.0000
  H   H1480     1.0  0.73033  0.82977  0.42864  1.0000
  H   H1481     1.0  0.70579  0.84018  0.46228  1.0000
  H   H1482     1.0  0.71088  0.84775  0.42305  1.0000
  H   H1483     1.0  0.93980  0.72969  0.32784  1.0000
  H   H1484     1.0  0.74727  0.86385  0.42418  1.0000
  H   H1485     1.0  0.75431  0.86666  0.46325  1.0000
  H   H1486     1.0  0.75817  0.84378  0.45050  1.0000
  H   H1487     1.0  0.77162  0.87914  0.44749  1.0000
  H   H1488     1.0  0.73030  0.89543  0.42356  1.0000
  H   H1489     1.0  0.72122  0.88380  0.46853  1.0000
  H   H1490     1.0  0.90360  0.77622  0.44820  1.0000
  H   H1491     1.0  0.80585  0.65791  0.33712  1.0000
  H   H1492     1.0  0.85407  0.74722  0.34827  1.0000
  C   C1244     1.0  0.72927  0.68871  0.33491  1.0000
  N   N85       1.0  0.75927  0.70785  0.35733  1.0000
  H   H1493     1.0  0.75852  0.71286  0.37996  1.0000
  C   C1245     1.0  0.93438  0.68977  0.33344  1.0000
  C   C1246     1.0  0.86743  0.78308  0.44468  1.0000
  C   C1247     1.0  0.81159  0.78359  0.42513  1.0000
  H   H1494     1.0  0.82250  0.77877  0.46005  1.0000
  H   H1495     1.0  0.73109  0.72664  0.35665  1.0000
  H   H1496     1.0  0.81394  0.76541  0.42079  1.0000
  H   H1497     1.0  0.79589  0.70131  0.36004  1.0000
  C   C1248     1.0  0.75299  0.73184  0.35581  1.0000
  S   S329      1.0  0.95801  0.78012  0.44452  1.0000
  H   H1498     1.0  0.88810  0.67810  0.35992  1.0000
  H   H1499     1.0  0.83387  0.70317  0.33545  1.0000
  H   H1500     1.0  0.79113  0.77004  0.45030  1.0000
  H   H1501     1.0  0.95567  0.75094  0.35194  1.0000
  H   H1502     1.0  0.85677  0.76727  0.45158  1.0000
  H   H1503     1.0  0.81161  0.75256  0.44598  1.0000
  C   C1249     1.0  0.81247  0.77273  0.44931  1.0000
  S   S330      1.0  0.64624  0.65708  0.31743  1.0000
  C   C1250     1.0  0.89827  0.82285  0.42696  1.0000
  C   C1251     1.0  0.85501  0.79804  0.43756  1.0000
  S   S331      1.0  0.96510  0.72850  0.37858  1.0000
  C   C1252     1.0  0.82433  0.81860  0.44361  1.0000
  H   H1504     1.0  0.80309  0.81533  0.44540  1.0000
  C   C1253     1.0  0.87124  0.81793  0.42855  1.0000
  H   H1505     1.0  0.89032  0.75670  0.36668  1.0000
  H   H1506     1.0  0.66262  0.71016  0.33056  1.0000
  H   H1507     1.0  0.83648  0.82729  0.45363  1.0000
  C   C1254     1.0  0.86086  0.73161  0.35078  1.0000
  C   C1255     1.0  0.72527  0.92586  0.43590  1.0000
  H   H1508     1.0  0.94066  0.78065  0.47259  1.0000
  C   C1256     1.0  0.89443  0.78800  0.44286  1.0000
  H   H1509     1.0  0.70725  0.81708  0.44908  1.0000
  H   H1510     1.0  0.83135  0.83415  0.43563  1.0000
  H   H1511     1.0  0.81880  0.79903  0.41709  1.0000
  H   H1512     1.0  0.79947  0.73428  0.36517  1.0000
  C   C1257     1.0  0.75014  0.69697  0.37125  1.0000
  H   H1513     1.0  0.86308  0.82955  0.42244  1.0000
  C   C1258     1.0  0.87949  0.69211  0.35709  1.0000
  N   N86       1.0  0.82639  0.79318  0.43898  1.0000
  C   C1259     1.0  0.71992  0.91949  0.46080  1.0000
  H   H1514     1.0  0.72007  0.95418  0.45051  1.0000
  C   C1260     1.0  0.84956  0.70640  0.34349  1.0000
  H   H1515     1.0  0.70511  0.67058  0.31581  1.0000
  C   C1261     1.0  0.75125  0.66271  0.34574  1.0000
  C   C1262     1.0  0.97490  0.78234  0.46120  1.0000
  C   C1263     1.0  0.88130  0.73704  0.36118  1.0000
  H   H1516     1.0  0.76353  0.65936  0.35399  1.0000
  C   C1264     1.0  0.85864  0.68588  0.34636  1.0000
  H   H1517     1.0  0.71725  0.92691  0.47113  1.0000
  H   H1518     1.0  0.71142  0.71710  0.47933  1.0000
  C   C1265     1.0  0.71835  0.66861  0.32410  1.0000
  H   H1519     1.0  0.87074  0.67314  0.32072  1.0000
  H   H1520     1.0  0.60739  0.66579  0.37928  1.0000
  C   C1266     1.0  0.84299  0.65794  0.23665  1.0000
  C   C1267     1.0  0.60313  0.65459  0.35713  1.0000
  H   H1521     1.0  0.62349  0.95521  0.58917  1.0000
  C   C1268     1.0  0.81159  0.72390  0.55490  1.0000
  C   C1269     1.0  0.70907  0.87342  0.59059  1.0000
  Fe  Fe166     1.0  0.95266  0.78803  0.54456  1.0000
  S   S332      1.0  0.90904  0.78184  0.53874  1.0000
  C   C1270     1.0  0.51809  0.79248  0.62199  1.0000
  Fe  Fe167     1.0  0.72862  0.81357  0.54683  1.0000
  S   S333      1.0  0.69596  0.77392  0.53893  1.0000
  S   S334      1.0  0.71308  0.84644  0.54570  1.0000
  Fe  Fe168     1.0  0.76651  0.78711  0.55493  1.0000
  S   S335      1.0  0.73535  0.74571  0.54817  1.0000
  S   S336      1.0  0.80748  0.79365  0.56546  1.0000
  Fe  Fe169     1.0  0.72868  0.76576  0.52875  1.0000
  S   S337      1.0  0.72317  0.74346  0.50707  1.0000
  Fe  Fe170     1.0  0.70507  0.75766  0.55907  1.0000
  S   S338      1.0  0.66730  0.73007  0.57043  1.0000
  S   S339      1.0  0.76101  0.80666  0.53514  1.0000
  S   S340      1.0  0.73669  0.79771  0.56723  1.0000
  Fe  Fe171     1.0  0.51794  0.91973  0.65346  1.0000
  S   S341      1.0  0.54746  0.96099  0.66136  1.0000
  C   C1271     1.0  0.83584  0.72138  0.55339  1.0000
  Fe  Fe172     1.0  0.55815  0.89495  0.66015  1.0000
  S   S342      1.0  0.58974  0.93442  0.66905  1.0000
  S   S343      1.0  0.57258  0.86154  0.65751  1.0000
  Fe  Fe173     1.0  0.55562  0.93937  0.67979  1.0000
  S   S344      1.0  0.55806  0.95786  0.70219  1.0000
  Fe  Fe174     1.0  0.57919  0.95219  0.64986  1.0000
  H   H1522     1.0  0.81334  0.72360  0.50029  1.0000
  S   S345      1.0  0.52467  0.89840  0.67225  1.0000
  S   S346      1.0  0.54889  0.91242  0.64061  1.0000
  Fe  Fe175     1.0  0.55598  0.68855  0.67368  1.0000
  S   S347      1.0  0.51183  0.67423  0.66819  1.0000
  C   C1272     1.0  0.84377  0.71764  0.53998  1.0000
  Fe  Fe176     1.0  0.57148  0.69849  0.64202  1.0000
  S   S348      1.0  0.52758  0.68426  0.63463  1.0000
  S   S349      1.0  0.61012  0.72101  0.62983  1.0000
  Fe  Fe177     1.0  0.52395  0.70852  0.65359  1.0000
  S   S350      1.0  0.50148  0.73569  0.65462  1.0000
  S   S351      1.0  0.56765  0.72440  0.66022  1.0000
  C   C1273     1.0  0.75661  0.70135  0.51855  1.0000
  H   H1523     1.0  0.65467  0.81257  0.54800  1.0000
  C   C1274     1.0  0.63287  0.96952  0.59797  1.0000
  H   H1524     1.0  0.58823  0.77223  0.68481  1.0000
  H   H1525     1.0  0.68037  0.79501  0.56284  1.0000
  C   C1275     1.0  0.55469  0.94193  0.71855  1.0000
  S   S352      1.0  0.97982  0.80470  0.56431  1.0000
  H   H1526     1.0  0.55897  0.79438  0.68092  1.0000
  C   C1276     1.0  0.55242  0.91547  0.71936  1.0000
  C   C1277     1.0  0.55515  0.95662  0.73115  1.0000
  H   H1527     1.0  0.55206  0.90393  0.70979  1.0000
  H   H1528     1.0  0.63502  0.76651  0.55175  1.0000
  H   H1529     1.0  0.70319  0.95477  0.61659  1.0000
  C   C1278     1.0  0.53467  0.66315  0.71303  1.0000
  H   H1530     1.0  0.60033  0.94963  0.61176  1.0000
  H   H1531     1.0  0.71504  0.94194  0.57306  1.0000
  C   C1279     1.0  0.55221  0.82675  0.65691  1.0000
  C   C1280     1.0  0.56340  0.80889  0.65241  1.0000
  C   C1281     1.0  0.54797  0.78097  0.65169  1.0000
  C   C1282     1.0  0.52121  0.77068  0.65554  1.0000
  C   C1283     1.0  0.50999  0.78853  0.66013  1.0000
  C   C1284     1.0  0.52551  0.81655  0.66087  1.0000
  H   H1532     1.0  0.58408  0.81670  0.64936  1.0000
  H   H1533     1.0  0.55667  0.76747  0.64791  1.0000
  H   H1534     1.0  0.59680  0.70837  0.72476  1.0000
  H   H1535     1.0  0.51698  0.83026  0.66455  1.0000
  H   H1536     1.0  0.70402  0.97805  0.60358  1.0000
  H   H1537     1.0  0.74727  0.79838  0.49691  1.0000
  C   C1285     1.0  0.73201  0.88108  0.54996  1.0000
  C   C1286     1.0  0.72086  0.89936  0.54635  1.0000
  C   C1287     1.0  0.73467  0.92702  0.54997  1.0000
  C   C1288     1.0  0.75954  0.93658  0.55754  1.0000
  C   C1289     1.0  0.77080  0.91832  0.56110  1.0000
  C   C1290     1.0  0.75714  0.89064  0.55728  1.0000
  H   H1538     1.0  0.70148  0.89212  0.54063  1.0000
  H   H1539     1.0  0.72593  0.94088  0.54702  1.0000
  H   H1540     1.0  0.79006  0.92557  0.56693  1.0000
  H   H1541     1.0  0.76588  0.87671  0.56013  1.0000
  C   C1291     1.0  0.65239  0.72717  0.58729  1.0000
  C   C1292     1.0  0.62564  0.70827  0.58853  1.0000
  C   C1293     1.0  0.61247  0.70589  0.60137  1.0000
  C   C1294     1.0  0.62584  0.72237  0.61331  1.0000
  C   C1295     1.0  0.65263  0.74123  0.61208  1.0000
  C   C1296     1.0  0.66583  0.74360  0.59924  1.0000
  H   H1542     1.0  0.61493  0.69534  0.57945  1.0000
  H   H1543     1.0  0.59194  0.69126  0.60203  1.0000
  H   H1544     1.0  0.66334  0.75407  0.62119  1.0000
  H   H1545     1.0  0.68642  0.75810  0.59863  1.0000
  C   C1297     1.0  0.88186  0.78669  0.54655  1.0000
  C   C1298     1.0  0.88063  0.79023  0.56114  1.0000
  C   C1299     1.0  0.85784  0.79249  0.56675  1.0000
  C   C1300     1.0  0.83603  0.79126  0.55788  1.0000
  C   C1301     1.0  0.83760  0.78841  0.54329  1.0000
  C   C1302     1.0  0.86026  0.78598  0.53768  1.0000
  H   H1546     1.0  0.89685  0.79051  0.56814  1.0000
  H   H1547     1.0  0.85693  0.79487  0.57805  1.0000
  H   H1548     1.0  0.82133  0.78819  0.53639  1.0000
  H   H1549     1.0  0.86100  0.78332  0.52639  1.0000
  H   H1550     1.0  0.49295  0.85843  0.64794  1.0000
  C   C1303     1.0  0.55126  0.90411  0.73260  1.0000
  C   C1304     1.0  0.63112  0.80154  0.58160  1.0000
  C   C1305     1.0  0.62480  0.78263  0.59231  1.0000
  C   C1306     1.0  0.62612  0.82495  0.58434  1.0000
  C   C1307     1.0  0.61393  0.78661  0.60488  1.0000
  C   C1308     1.0  0.61506  0.82870  0.59693  1.0000
  C   C1309     1.0  0.60899  0.80957  0.60717  1.0000
  H   H1551     1.0  0.62838  0.76458  0.59112  1.0000
  H   H1552     1.0  0.63071  0.84071  0.57696  1.0000
  H   H1553     1.0  0.60941  0.77170  0.61287  1.0000
  H   H1554     1.0  0.61133  0.84663  0.59881  1.0000
  H   H1555     1.0  0.60054  0.81253  0.61695  1.0000
  C   C1310     1.0  0.89712  0.85810  0.54426  1.0000
  C   C1311     1.0  0.96296  0.89775  0.55955  1.0000
  C   C1312     1.0  0.56079  0.68308  0.71243  1.0000
  C   C1313     1.0  0.58423  0.77127  0.69626  1.0000
  H   H1556     1.0  0.54991  0.88375  0.73308  1.0000
  C   C1314     1.0  0.55536  0.79420  0.69239  1.0000
  C   C1315     1.0  0.68554  0.90007  0.60755  1.0000
  S   S353      1.0  0.97004  0.75740  0.53932  1.0000
  H   H1557     1.0  0.96228  0.78275  0.49635  1.0000
  C   C1316     1.0  0.87048  0.85475  0.54586  1.0000
  C   C1317     1.0  0.95039  0.85081  0.56369  1.0000
  H   H1558     1.0  0.66611  0.86189  0.61713  1.0000
  C   C1318     1.0  0.69151  0.85953  0.60078  1.0000
  H   H1559     1.0  0.74767  0.70934  0.52694  1.0000
  H   H1560     1.0  0.77889  0.70831  0.49433  1.0000
  H   H1561     1.0  0.54720  0.80703  0.71723  1.0000
  H   H1562     1.0  0.84096  0.85491  0.56033  1.0000
  C   C1319     1.0  0.63087  0.98511  0.62221  1.0000
  C   C1320     1.0  0.55286  0.76941  0.71419  1.0000
  H   H1563     1.0  0.87303  0.86859  0.58107  1.0000
  C   C1321     1.0  0.88002  0.86619  0.57076  1.0000
  H   H1564     1.0  0.55704  0.97715  0.73064  1.0000
  H   H1565     1.0  0.80953  0.76097  0.51424  1.0000
  C   C1322     1.0  0.74083  0.95884  0.59836  1.0000
  H   H1566     1.0  0.83526  0.71409  0.51799  1.0000
  N   N87       1.0  0.55712  0.77039  0.69884  1.0000
  N   N88       1.0  0.94461  0.86983  0.55473  1.0000
  C   C1323     1.0  0.57662  0.69281  0.72507  1.0000
  C   C1324     1.0  0.71503  0.90063  0.58889  1.0000
  H   H1567     1.0  0.70923  0.96993  0.57939  1.0000
  C   C1325     1.0  0.91620  0.86599  0.55597  1.0000
  C   C1326     1.0  0.90681  0.87000  0.56927  1.0000
  H   H1568     1.0  0.95854  0.91276  0.55346  1.0000
  H   H1569     1.0  0.54786  0.83327  0.62261  1.0000
  H   H1570     1.0  0.74729  0.98099  0.59790  1.0000
  C   C1327     1.0  0.70406  0.94829  0.58102  1.0000
  H   H1571     1.0  0.80599  0.72800  0.56530  1.0000
  H   H1572     1.0  0.90203  0.85377  0.53381  1.0000
  H   H1573     1.0  0.53501  0.79421  0.69327  1.0000
  H   H1574     1.0  0.75252  0.95330  0.59041  1.0000
  H   H1575     1.0  0.78010  0.75431  0.52414  1.0000
  H   H1576     1.0  0.61116  0.93602  0.72791  1.0000
  H   H1577     1.0  0.93922  0.84399  0.53608  1.0000
  C   C1328     1.0  0.82743  0.71628  0.52801  1.0000
  H   H1578     1.0  0.85605  0.84812  0.53689  1.0000
  H   H1579     1.0  0.92000  0.87567  0.57868  1.0000
  H   H1580     1.0  0.52720  0.95533  0.62786  1.0000
  H   H1581     1.0  0.53469  0.94978  0.61018  1.0000
  H   H1582     1.0  0.94702  0.85342  0.57500  1.0000
  H   H1583     1.0  0.86323  0.71684  0.53884  1.0000
  H   H1584     1.0  0.60561  0.76721  0.55970  1.0000
  H   H1585     1.0  0.54861  0.97288  0.58993  1.0000
  C   C1329     1.0  0.64617  0.81712  0.55780  1.0000
  H   H1586     1.0  0.62651  0.75333  0.56847  1.0000
  H   H1587     1.0  0.67556  0.94668  0.60348  1.0000
  H   H1588     1.0  0.97180  0.85364  0.56319  1.0000
  H   H1589     1.0  0.52206  0.65619  0.70347  1.0000
  C   C1330     1.0  0.70366  0.91490  0.59738  1.0000
  C   C1331     1.0  0.54813  0.78970  0.72204  1.0000
  H   H1590     1.0  0.74737  0.95480  0.60895  1.0000
  H   H1591     1.0  0.97290  0.86852  0.53960  1.0000
  C   C1332     1.0  0.78808  0.74688  0.51506  1.0000
  H   H1592     1.0  0.60034  0.78907  0.70192  1.0000
  N   N89       1.0  0.64335  0.79706  0.56859  1.0000
  H   H1593     1.0  0.68402  0.81872  0.57701  1.0000
  H   H1594     1.0  0.77740  0.72628  0.54478  1.0000
  S   S354      1.0  0.57445  0.69702  0.69630  1.0000
  H   H1595     1.0  0.84898  0.72331  0.56258  1.0000
  H   H1596     1.0  0.62640  0.81738  0.55464  1.0000
  C   C1333     1.0  0.62681  0.76995  0.56188  1.0000
  C   C1334     1.0  0.74118  0.78422  0.48785  1.0000
  C   C1335     1.0  0.50884  0.83152  0.62759  1.0000
  H   H1597     1.0  0.58664  0.75305  0.69980  1.0000
  H   H1598     1.0  0.71848  0.86330  0.58403  1.0000
  C   C1336     1.0  0.53655  0.74593  0.69133  1.0000
  C   C1337     1.0  0.79522  0.72278  0.54301  1.0000
  H   H1599     1.0  0.67582  0.90913  0.61446  1.0000
  H   H1600     1.0  0.68711  0.83848  0.60222  1.0000
  H   H1601     1.0  0.67022  0.78332  0.57986  1.0000
  H   H1602     1.0  0.66059  0.83778  0.56152  1.0000
  C   C1338     1.0  0.95132  0.86519  0.54012  1.0000
  C   C1339     1.0  0.67060  0.79859  0.57230  1.0000
  N   N90       1.0  0.78542  0.71893  0.51671  1.0000
  C   C1340     1.0  0.80243  0.71863  0.52919  1.0000
  H   H1603     1.0  0.94801  0.87918  0.53277  1.0000
  C   C1341     1.0  0.86192  0.85862  0.55908  1.0000
  H   H1604     1.0  0.53851  0.72715  0.69429  1.0000
  C   C1342     1.0  0.61962  0.96627  0.61083  1.0000
  H   H1605     1.0  0.57089  0.81345  0.69715  1.0000
  C   C1343     1.0  0.69788  0.95619  0.60531  1.0000
  C   C1344     1.0  0.54272  0.96316  0.61985  1.0000
  H   H1606     1.0  0.48242  0.86482  0.62356  1.0000
  S   S355      1.0  0.77623  0.97077  0.56351  1.0000
  C   C1345     1.0  0.67971  0.87280  0.60919  1.0000
  N   N91       1.0  0.71129  0.94401  0.59565  1.0000
  H   H1607     1.0  0.68208  0.93721  0.57841  1.0000
  H   H1608     1.0  0.75399  0.68067  0.52119  1.0000
  H   H1609     1.0  0.72897  0.91056  0.58094  1.0000
  C   C1346     1.0  0.72873  0.75657  0.48989  1.0000
  H   H1610     1.0  0.96137  0.90203  0.57093  1.0000
  C   C1347     1.0  0.79306  0.70950  0.50335  1.0000
  H   H1611     1.0  0.51684  0.85317  0.62923  1.0000
  H   H1612     1.0  0.53832  0.74663  0.67969  1.0000
  H   H1613     1.0  0.77667  0.74847  0.50542  1.0000
  H   H1614     1.0  0.48928  0.78063  0.66311  1.0000
  H   H1615     1.0  0.51577  0.74367  0.69349  1.0000
  H   H1616     1.0  0.79283  0.68904  0.50426  1.0000
  C   C1348     1.0  0.52680  0.82031  0.62371  1.0000
  H   H1617     1.0  0.93743  0.82954  0.56019  1.0000
  S   S356      1.0  0.61371  0.98401  0.63820  1.0000
  C   C1349     1.0  0.97325  0.78317  0.48700  1.0000
  C   C1350     1.0  0.55353  0.74763  0.72178  1.0000
  H   H1618     1.0  0.56105  0.96062  0.62376  1.0000
  H   H1619     1.0  0.55706  0.73158  0.71650  1.0000
  H   H1620     1.0  0.53224  0.78376  0.61948  1.0000
  H   H1621     1.0  0.74372  0.69976  0.50888  1.0000
  C   C1351     1.0  0.49139  0.77574  0.62417  1.0000
  S   S357      1.0  0.56321  0.66351  0.65623  1.0000
  C   C1352     1.0  0.62446  0.97881  0.72706  1.0000
  H   H1622     1.0  0.51654  0.98112  0.60137  1.0000
  H   H1623     1.0  0.62155  0.97809  0.71565  1.0000
  H   H1624     1.0  0.48503  0.75403  0.62338  1.0000
  S   S358      1.0  0.98054  0.81887  0.53065  1.0000
  C   C1353     1.0  0.61855  0.95508  0.73400  1.0000
  H   H1625     1.0  0.58480  0.98771  0.57345  1.0000
  H   H1626     1.0  0.50828  0.98778  0.61864  1.0000
  H   H1627     1.0  0.82754  0.81911  0.88796  1.0000
  H   H1628     1.0  0.64781  0.78642  0.80728  1.0000
  H   H1629     1.0  0.88107  0.76642  0.89989  1.0000
  Fe  Fe178     1.0  0.95075  0.80713  0.89944  1.0000
  S   S359      1.0  0.91787  0.81800  0.88920  1.0000
  S   S360      1.0  0.94286  0.76622  0.90722  1.0000
  Fe  Fe179     1.0  0.75896  0.78367  0.89863  1.0000
  S   S361      1.0  0.72170  0.75826  0.90998  1.0000
  S   S362      1.0  0.78998  0.76527  0.89581  1.0000
  Fe  Fe180     1.0  0.73702  0.82643  0.89339  1.0000
  S   S363      1.0  0.69921  0.80426  0.90447  1.0000
  S   S364      1.0  0.74109  0.86355  0.88173  1.0000
  Fe  Fe181     1.0  0.72619  0.79720  0.92108  1.0000
  S   S365      1.0  0.72293  0.80787  0.94443  1.0000
  Fe  Fe182     1.0  0.69792  0.76740  0.89235  1.0000
  S   S366      1.0  0.65732  0.73710  0.88205  1.0000
  S   S367      1.0  0.76451  0.82224  0.91056  1.0000
  S   S368      1.0  0.73461  0.79000  0.88043  1.0000
  Fe  Fe183     1.0  0.53871  0.88792  0.81305  1.0000
  S   S369      1.0  0.57605  0.90814  0.80138  1.0000
  S   S370      1.0  0.53348  0.85058  0.82461  1.0000
  Fe  Fe184     1.0  0.51801  0.93079  0.80672  1.0000
  S   S371      1.0  0.55514  0.95493  0.79498  1.0000
  H   H1630     1.0  0.57849  0.76676  0.83196  1.0000
  Fe  Fe185     1.0  0.54936  0.91508  0.78473  1.0000
  S   S372      1.0  0.55157  0.90355  0.76154  1.0000
  Fe  Fe186     1.0  0.57904  0.94633  0.81274  1.0000
  C   C1354     1.0  0.54530  0.76636  0.74368  1.0000
  S   S373      1.0  0.51143  0.89136  0.79563  1.0000
  S   S374      1.0  0.54254  0.92564  0.82529  1.0000
  Fe  Fe187     1.0  0.53802  0.71573  0.79326  1.0000
  S   S375      1.0  0.57129  0.70489  0.78602  1.0000
  S   S376      1.0  0.54488  0.75765  0.78701  1.0000
  C   C1355     1.0  0.62090  0.95558  0.74874  1.0000
  Fe  Fe188     1.0  0.56710  0.68454  0.80670  1.0000
  S   S377      1.0  0.60747  0.69504  0.81918  1.0000
  S   S378      1.0  0.50571  0.67899  0.78255  1.0000
  S   S379      1.0  0.53475  0.69681  0.81424  1.0000
  H   H1631     1.0  0.82127  0.96708  0.87410  1.0000
  H   H1632     1.0  0.93957  0.80290  0.86492  1.0000
  Fe  Fe189     1.0  0.50545  0.65828  0.80260  1.0000
  H   H1633     1.0  0.66117  0.72923  0.83003  1.0000
  S   S380      1.0  0.95419  0.78564  0.94911  1.0000
  S   S381      1.0  0.48539  0.94722  0.80613  1.0000
  C   C1356     1.0  0.53627  0.82448  0.81421  1.0000
  C   C1357     1.0  0.54268  0.82810  0.80009  1.0000
  C   C1358     1.0  0.54509  0.80729  0.79193  1.0000
  C   C1359     1.0  0.54085  0.78262  0.79776  1.0000
  C   C1360     1.0  0.53447  0.77890  0.81191  1.0000
  C   C1361     1.0  0.53232  0.79990  0.82014  1.0000
  H   H1634     1.0  0.54562  0.84689  0.79540  1.0000
  H   H1635     1.0  0.55005  0.81028  0.78100  1.0000
  H   H1636     1.0  0.53093  0.75984  0.81644  1.0000
  H   H1637     1.0  0.52716  0.79696  0.83105  1.0000
  C   C1362     1.0  0.72334  0.79240  0.96072  1.0000
  C   C1363     1.0  0.72104  0.76586  0.96133  1.0000
  C   C1364     1.0  0.81186  0.92996  0.88361  1.0000
  H   H1638     1.0  0.66999  0.68766  0.87247  1.0000
  H   H1639     1.0  0.59388  0.98482  0.77389  1.0000
  H   H1640     1.0  0.71950  0.75419  0.95164  1.0000
  H   H1641     1.0  0.60145  0.81302  0.82317  1.0000
  H   H1642     1.0  0.72701  0.82767  0.97318  1.0000
  C   C1365     1.0  0.74201  0.89116  0.89237  1.0000
  C   C1366     1.0  0.74369  0.91479  0.88608  1.0000
  C   C1367     1.0  0.74531  0.93732  0.89446  1.0000
  C   C1368     1.0  0.74560  0.93635  0.90918  1.0000
  C   C1369     1.0  0.74376  0.91266  0.91541  1.0000
  C   C1370     1.0  0.74180  0.89008  0.90704  1.0000
  H   H1643     1.0  0.74411  0.91577  0.87473  1.0000
  H   H1644     1.0  0.74679  0.95550  0.88957  1.0000
  H   H1645     1.0  0.74400  0.91178  0.92678  1.0000
  H   H1646     1.0  0.74057  0.87199  0.91200  1.0000
  C   C1371     1.0  0.64368  0.72824  0.86427  1.0000
  C   C1372     1.0  0.65979  0.73474  0.85259  1.0000
  C   C1373     1.0  0.64826  0.72504  0.83886  1.0000
  C   C1374     1.0  0.62039  0.70943  0.83651  1.0000
  C   C1375     1.0  0.60411  0.70398  0.84810  1.0000
  C   C1376     1.0  0.61574  0.71304  0.86188  1.0000
  H   H1647     1.0  0.68125  0.74643  0.85419  1.0000
  H   H1648     1.0  0.58272  0.69187  0.84655  1.0000
  H   H1649     1.0  0.60305  0.70791  0.87080  1.0000
  C   C1377     1.0  0.67802  0.82255  0.84550  1.0000
  H   H1650     1.0  0.83142  0.74650  0.90201  1.0000
  H   H1651     1.0  0.66690  0.82259  0.82382  1.0000
  H   H1652     1.0  0.61526  0.76213  0.80120  1.0000
  C   C1378     1.0  0.64560  0.78988  0.85950  1.0000
  C   C1379     1.0  0.94642  0.70765  0.84247  1.0000
  H   H1653     1.0  0.60871  0.76351  0.84928  1.0000
  C   C1380     1.0  0.88272  0.80395  0.89241  1.0000
  C   C1381     1.0  0.86722  0.81857  0.88906  1.0000
  C   C1382     1.0  0.83907  0.80758  0.89063  1.0000
  C   C1383     1.0  0.82585  0.78142  0.89521  1.0000
  C   C1384     1.0  0.84134  0.76674  0.89848  1.0000
  C   C1385     1.0  0.86958  0.77801  0.89728  1.0000
  H   H1654     1.0  0.87707  0.83859  0.88523  1.0000
  N   N92       1.0  0.61053  0.90291  0.85300  1.0000
  C   C1386     1.0  0.58307  0.88083  0.85159  1.0000
  C   C1387     1.0  0.60893  0.92485  0.86213  1.0000
  C   C1388     1.0  0.61786  0.91292  0.83873  1.0000
  C   C1389     1.0  0.63129  0.89461  0.85907  1.0000
  C   C1390     1.0  0.65829  0.91383  0.86163  1.0000
  C   C1391     1.0  0.62557  0.86769  0.86268  1.0000
  C   C1392     1.0  0.67811  0.90670  0.86771  1.0000
  C   C1393     1.0  0.64561  0.86080  0.86872  1.0000
  C   C1394     1.0  0.67179  0.88025  0.87127  1.0000
  H   H1655     1.0  0.57589  0.87254  0.86197  1.0000
  H   H1656     1.0  0.56794  0.88792  0.84718  1.0000
  H   H1657     1.0  0.58216  0.86415  0.84417  1.0000
  H   H1658     1.0  0.60433  0.91844  0.87309  1.0000
  H   H1659     1.0  0.59306  0.93122  0.85805  1.0000
  H   H1660     1.0  0.62803  0.94329  0.86276  1.0000
  H   H1661     1.0  0.61955  0.89713  0.83156  1.0000
  H   H1662     1.0  0.60249  0.91907  0.83377  1.0000
  H   H1663     1.0  0.63732  0.93092  0.83893  1.0000
  H   H1664     1.0  0.66427  0.93466  0.85907  1.0000
  H   H1665     1.0  0.60573  0.85162  0.86106  1.0000
  H   H1666     1.0  0.69846  0.92183  0.86983  1.0000
  H   H1667     1.0  0.64081  0.84029  0.87162  1.0000
  H   H1668     1.0  0.68721  0.87486  0.87610  1.0000
  N   N93       1.0  0.61606  0.78172  0.82150  1.0000
  H   H1669     1.0  0.57620  0.75345  0.81428  1.0000
  H   H1670     1.0  0.68493  0.81784  0.86753  1.0000
  C   C1395     1.0  0.66014  0.81317  0.83363  1.0000
  C   C1396     1.0  0.63430  0.79172  0.83434  1.0000
  C   C1397     1.0  0.80818  0.91618  0.89600  1.0000
  H   H1671     1.0  0.69777  0.83878  0.84474  1.0000
  H   H1672     1.0  0.55473  0.95694  0.75397  1.0000
  H   H1673     1.0  0.88156  0.73835  0.85268  1.0000
  C   C1398     1.0  0.63661  0.98419  0.83834  1.0000
  C   C1399     1.0  0.58948  0.75997  0.82412  1.0000
  H   H1674     1.0  0.59158  0.74165  0.82780  1.0000
  N   N94       1.0  0.63184  0.98162  0.77264  1.0000
  H   H1675     1.0  0.59669  0.79691  0.80588  1.0000
  H   H1676     1.0  0.49688  0.95235  0.75923  1.0000
  C   C1400     1.0  0.89684  0.75954  0.85283  1.0000
  H   H1677     1.0  0.91708  0.76653  0.87914  1.0000
  H   H1678     1.0  0.49631  0.89866  0.74706  1.0000
  H   H1679     1.0  0.89026  0.77181  0.86025  1.0000
  C   C1401     1.0  0.61080  0.80405  0.81541  1.0000
  C   C1402     1.0  0.92299  0.75333  0.87204  1.0000
  N   N95       1.0  0.92396  0.76124  0.85718  1.0000
  C   C1403     1.0  0.70243  0.69283  0.85804  1.0000
  C   C1404     1.0  0.62754  0.78030  0.84770  1.0000
  C   C1405     1.0  0.67082  0.81083  0.85839  1.0000
  H   H1680     1.0  0.62933  0.82042  0.81194  1.0000
  C   C1406     1.0  0.62123  0.98737  0.84922  1.0000
  C   C1407     1.0  0.93186  0.74423  0.84740  1.0000
  C   C1408     1.0  0.55385  0.94520  0.74441  1.0000
  C   C1409     1.0  0.74362  0.69410  0.86951  1.0000
  C   C1410     1.0  0.93475  0.74988  0.83290  1.0000
  H   H1681     1.0  0.94649  0.74027  0.81266  1.0000
  H   H1682     1.0  0.89625  0.76720  0.84218  1.0000
  H   H1683     1.0  0.70672  0.69444  0.88735  1.0000
  H   H1684     1.0  0.64033  0.78050  0.86953  1.0000
  C   C1411     1.0  0.62881  0.77081  0.81083  1.0000
  H   H1685     1.0  0.63367  0.75438  0.81514  1.0000
  C   C1412     1.0  0.94978  0.71424  0.82841  1.0000
  H   H1686     1.0  0.68833  0.66984  0.82326  1.0000
  H   H1687     1.0  0.80177  0.89447  0.89553  1.0000
  C   C1413     1.0  0.70650  0.68694  0.84384  1.0000
  H   H1688     1.0  0.57933  0.68983  0.74771  1.0000
  H   H1689     1.0  0.72820  0.74590  0.85978  1.0000
  C   C1414     1.0  0.94363  0.78972  0.85691  1.0000
  C   C1415     1.0  0.68477  0.67354  0.83413  1.0000
  C   C1416     1.0  0.93764  0.72233  0.85188  1.0000
  C   C1417     1.0  0.94373  0.73517  0.82360  1.0000
  H   H1690     1.0  0.70258  0.87980  0.97919  1.0000
  C   C1418     1.0  0.71803  0.71354  0.88215  1.0000
  H   H1691     1.0  0.94319  0.79856  0.84659  1.0000
  C   C1419     1.0  0.67527  0.68376  0.86200  1.0000
  H   H1692     1.0  0.73247  0.67377  0.87359  1.0000
  H   H1693     1.0  0.76110  0.70538  0.87709  1.0000
  H   H1694     1.0  0.75098  0.73353  0.85214  1.0000
  Fe  Fe190     1.0  0.98152  0.77132  0.89675  1.0000
  H   H1695     1.0  0.93060  0.76612  0.82872  1.0000
  C   C1420     1.0  0.65372  0.67023  0.85223  1.0000
  H   H1696     1.0  0.72655  0.69318  0.84006  1.0000
  C   C1421     1.0  0.72018  0.75421  0.97451  1.0000
  Fe  Fe191     1.0  0.96883  0.78849  0.92656  1.0000
  C   C1422     1.0  0.62284  0.95478  0.77880  1.0000
  C   C1423     1.0  0.65234  0.97345  0.93731  1.0000
  H   H1697     1.0  0.96452  0.79153  0.85919  1.0000
  H   H1698     1.0  0.70557  0.72549  0.88179  1.0000
  H   H1699     1.0  0.94305  0.75500  0.87616  1.0000
  H   H1700     1.0  0.48536  0.92104  0.73820  1.0000
  H   H1701     1.0  0.82075  0.96767  0.91996  1.0000
  H   H1702     1.0  0.65309  0.95531  0.94131  1.0000
  C   C1424     1.0  0.55221  0.91893  0.74520  1.0000
  C   C1425     1.0  0.82269  0.97266  0.89721  1.0000
  H   H1703     1.0  0.95164  0.69167  0.84625  1.0000
  C   C1426     1.0  0.74140  0.73517  0.86205  1.0000
  N   N96       1.0  0.72578  0.70855  0.86783  1.0000
  H   H1704     1.0  0.75808  0.74841  0.86959  1.0000
  C   C1427     1.0  0.95551  0.78856  0.97808  1.0000
  C   C1428     1.0  0.72522  0.80716  0.97351  1.0000
  H   H1705     1.0  0.95758  0.70338  0.82133  1.0000
  C   C1429     1.0  0.81165  0.93012  0.90899  1.0000
  H   H1706     1.0  0.94164  0.79809  0.97669  1.0000
  H   H1707     1.0  0.80841  0.91874  0.87355  1.0000
  C   C1430     1.0  0.56671  0.68244  0.73813  1.0000
  H   H1708     1.0  0.63321  0.66443  0.85537  1.0000
  C   C1431     1.0  0.81884  0.95792  0.90963  1.0000
  H   H1709     1.0  0.51024  0.93040  0.76716  1.0000
  H   H1710     1.0  0.71802  0.73356  0.97479  1.0000
  H   H1711     1.0  0.90794  0.73239  0.87322  1.0000
  H   H1712     1.0  0.54098  0.80374  0.74242  1.0000
  H   H1713     1.0  0.54248  0.76517  0.75495  1.0000
  H   H1714     1.0  0.63532  0.94388  0.77552  1.0000
  H   H1715     1.0  0.93651  0.71662  0.86272  1.0000
  S   S382      1.0  0.74929  0.96445  0.92026  1.0000
  H   H1716     1.0  0.63287  0.95422  0.91745  1.0000
  S   S383      1.0  0.62264  0.97267  0.82077  1.0000
  H   H1717     1.0  0.73603  0.72523  0.88928  1.0000
  H   H1718     1.0  0.80795  0.91914  0.91858  1.0000
  C   C1432     1.0  0.64087  0.97287  0.92389  1.0000
  C   C1433     1.0  0.54100  0.66172  0.73865  1.0000
  H   H1719     1.0  0.61497  0.93624  0.75336  1.0000
  C   C1434     1.0  0.62966  0.98024  0.75700  1.0000
  H   H1720     1.0  0.75226  0.69145  0.85943  1.0000
  C   C1435     1.0  0.96535  0.78028  0.96611  1.0000
  C   C1436     1.0  0.81907  0.95780  0.88411  1.0000
  S   S384      1.0  0.97504  0.82931  0.91907  1.0000
  H   H1721     1.0  0.87111  0.76378  0.97944  1.0000
  H   H1722     1.0  0.60006  0.98257  0.84710  1.0000
  H   H1723     1.0  0.48698  0.93975  0.77627  1.0000
  H   H1724     1.0  0.62443  0.95647  0.79056  1.0000
  C   C1437     1.0  0.65844  0.66541  0.83830  1.0000
  C   C1438     1.0  0.49175  0.93430  0.76563  1.0000
  H   H1725     1.0  0.60135  0.94201  0.77568  1.0000
  C   C1439     1.0  0.54447  0.78807  0.73658  1.0000
  H   H1726     1.0  0.55043  0.72924  0.74181  1.0000
  Fe  Fe192     1.0  0.53870  0.66670  0.77656  1.0000
  C   C1440     1.0  0.54978  0.74615  0.73628  1.0000
  H   H1727     1.0  0.51600  0.65624  0.84875  1.0000
  H   H1728     1.0  0.64162  0.65583  0.83066  1.0000
