data_image0
_chemical_formula_structural       FeS2FeS2FeSFeS3FeS2FeS2FeSFeS3FeS2FeS2FeCFeHS2HC4H2C6H5CHCHC3HCHCHC6H5CHCHC2H2CHC5H3CNCH2CHC2H2C2H3C2HNC6H3CH8C2NCH2NH4CH7CH2C2H4CNC9H14SHCH3C2H3CH2C2H2NHC2H2C2HCHC2HCH5CHCSCHC2HCHC2HCFeSCFeS2FeSFeS3FeS2FeS2FeHFeS3FeSHFeS2FeSFeS3HC4H5C6H5C4H3C3H4C3HC2H4C6H4NCHCH2C3H2NC8H12CH7SNC4HC3H9CH2CH7CNHC2H2C5H3C2HC2HCNHC2H2CHC3H3CHCH2CH4CHC4SHC2S2H2C3H6CHCH3NCHCHCHFeS2FeS2FeSFeS3FeSHFeSHFeSFeS3FeSHFeS2FeSFeS3HC5H3NC2H4C7HCH4NCHC6H4C6H4C4H5CH3C2HCHC3HCH2C2H2CNC5H3CH2C3H4CH2CH2CH2CHCH3CH4C2NC2HC2HCHC2H5CH3CH5CH3CH2CH2NH2C2HNHCH3CH4CH2NCHC4HCH4CHSHCSH3CSC2FeS2FeS2FeSFeS3FeS2FeS2FeSFeS3FeS2FeSHFeSFeS3C2H5NCH4C3H3C4H5C3H2C6H5C4H3C6H4NHCHCH2C2H5C2HCH3NCH2CH7CHCH2NC9HC3H2NH2CHSHC2H2CH5C2HC2HCH4CH2C5HCHC2HC4H3C3H7CH2C3H2CH4CHCHC6H3FeS2FeS2FeSFeS3FeS2FeS2FeNFeHS2FeS2FeS2FeSFeS3CNCHNC5H5C3H6CH2C7H4C6H4C3HCH2C2H3NHCHCH3SCHCH2C2H5C5H2CH3CH4CH2CH2CH7CH6C2HCHCNHC2H2C2HC2H4CH3C2HC2NC5HC3HSHCH7CH2CH5C2HC2H2C3H2C4H3C2FeS2FeS2FeSFeS3FeS2FeS2FeHFeS3FeS2FeS2FeCFeS3C6H4C2H4CHC2HC7H4C6H5C4H3C6H9CNC9H12C3H3CH3C2H7C5HCHSHCH3CNC3H6CH2CH2C2H2CH2CH2C2HCHCNH2NC2HC4HCHCH4C2H3CH2CH3CNC2H4CFeSCFeSCFeSFeS3FeS2FeS2FeSFeS3FeS2FeSHFeSFeS3C3HC7H3C2HCH2C5HCHC6H6C6H4C6H4CH2CNHC3HCNHCHCH2CSCH3CH2CHCH19CHCH6CHSH2NC9H14C3H2CHC3H2CHC2NCHC5HCH2CH3C2H3SH3C2HCNC4NHCFeS2FeS2FeSFeS3FeS2FeS2FeCFeS3FeS2FeS2FeSFeHS2H2C6H4C2H6C8H5N2C7H2C7H5C2H2NCH5CHC2H8C2H3CH2C2HC2H2CHC2HCHC2HCHCH2NC4HCHCH8CH6C2SCHC3HC3H6CHSH2CH2CHCNC9H14NC5H12CH5C3HNC2HCFeSCFeSCFeSFeS3FeSHFeS2FeSFeS3FeS2FeS2FeSFeS3C2HC3H2C6H4C3H2C7H3C6H5C6H3CH4C2HC3H4C2H2CNC5HCH12C2H2CHCHNHCHC4HC2HNCHC2HNH5NC9H12CH4CHCH2CNHCH3CH3C2HC4H2CH5C2HCH2NH2SHSH4CH4SHCHC4HFeS2FeS2FeSFeS3FeS2FeS2FeCFeS3FeS2FeS2FeCFeS3CHCHC9H5C2H2C6H4C3H2C2HC3H6C2HC4H4NCHC2HC2HCH3CHCH2CH3C3HCHC2H3NH2C2HCHCNH2NC3H3CH6CH4C2HC2HC2HCHCH3CH2C3H2CH6CNC2HCH4CH5C2H2CH2N2HCH2NHCH2C2H2C2H6SC3H4CH4CH2C3HFeSHFeSCFeSFeS3FeS2FeS2FeSFeS3FeS2FeS2FeSFeS3C6H4C3H3CH3C6H4C6H2CHCH3C2HC2HC6H4NC6H9CHCHCH2CHC2HNC8H13CHCHCHCH4N2CH2CH2C2H5CH2C3H2CH3CHNHCHC3H3SCSH2C2H4CHCH2CHSHCH4FeSHFeS2FeSFeS3FeS2FeS2FeHFeS3FeS2FeS2FeSFeS3HCHCHCHC4H4C6H4C3HCH2C6H4C6H4C4H5C2HCHC2H3CHCH2NCHC2H3SC2H2CH5CHCHC2H2CH6CHCH2CH2NC4HC2HCH10C2HNHCHCHCH2CHCNH2C4HC2H3NCH2CH2CHCH6CHC2HC2H5C3H2SHCHC3FeS2FeS2FeSFeS3FeS2FeSHFeSFeS3FeS2FeSCFeSFeS3C6HCH2C4HC6H6C2HC6H4C6H4C5H8CHCH2C2HCH2CHC2HCHNH2NH4CH2NC2H2C2H2CH2CHCNHC3H2C3H2C2H2CHC2H4CH2CHSC2HCHCH5C2NC4HC2H7C2H3CH7CHC3HC2H2CH2CHCH2NHCHCHCHSH6CFeS2FeS2FeHFeS3FeS2FeS2FeSFeS3FeS2FeS2FeHFeS3C4NHC2HC10H4C2H2NHC3H2C4H2C6H4C6H4CH3CNC3HCHC2H2C2H2C5HC3H2CH2C3HCH2C2HCH3CNCHCHCH2NCHC3HC2HSH8CH6CH2CH2CHNCHCH3C2H17C3H2C2HCH3CH3CH2C5H4SC5H3C2HC4HC3H2FeS2FeS2FeSFeS3FeS2FeS2FeSFeS3FeSHFeS2FeSFeS3C2H3C6H5CH2C9H4C3HC2HCH2C4HC4H3NCH4CHC2H3C2HCH4CH3CH2CH9NCH2CHCH3CHC2H2CH3NC5H10CHCHC2H2CNH5NCHC3HCH2NC6HCH3CH3C2H4CH2FeS2FeSCFeSFeS3FeS2FeSNFeSFeS3FeS2FeS2FeHFeS3C6H4C6H4C5H3C8H9C6H4C3HCHC2H3SHCH2CHCHCH2CHNH3C2H2CH3CH2C2H3C5H3CHCH2CH3SH3NH2C3HCHNCHC2H2SH2SHC2H2C2HC2HC2H5CHNCH2C2HC2HCHCH3CHCHCHC2H5CH4C
_chemical_formula_sum              "Fe192 S384 C1440 H1728 N96"
_cell_length_a       57.1966
_cell_length_b       57.0284
_cell_length_c       57.2869
_cell_angle_alpha    89.8266
_cell_angle_beta     90.1714
_cell_angle_gamma    89.9566

_space_group_name_H-M_alt    "P 1"
_space_group_IT_number       1

loop_
  _space_group_symop_operation_xyz
  'x, y, z'

loop_
  _atom_site_type_symbol
  _atom_site_label
  _atom_site_symmetry_multiplicity
  _atom_site_fract_x
  _atom_site_fract_y
  _atom_site_fract_z
  _atom_site_occupancy
  Fe  Fe1       1.0  0.19864  0.41342  0.13823  1.0000
  S   S1        1.0  0.17678  0.38163  0.14535  1.0000
  S   S2        1.0  0.23461  0.41301  0.12141  1.0000
  Fe  Fe2       1.0  0.16008  0.44745  0.15528  1.0000
  S   S3        1.0  0.13516  0.41790  0.16293  1.0000
  S   S4        1.0  0.15563  0.48395  0.17070  1.0000
  Fe  Fe3       1.0  0.16609  0.39959  0.17870  1.0000
  S   S5        1.0  0.16894  0.38346  0.21493  1.0000
  Fe  Fe4       1.0  0.14781  0.40265  0.12870  1.0000
  S   S6        1.0  0.12361  0.38391  0.10331  1.0000
  S   S7        1.0  0.19056  0.42967  0.17281  1.0000
  S   S8        1.0  0.17024  0.43379  0.11977  1.0000
  Fe  Fe5       1.0  0.34915  0.33757  0.11829  1.0000
  S   S9        1.0  0.34605  0.31226  0.08846  1.0000
  S   S10       1.0  0.31739  0.34107  0.14194  1.0000
  Fe  Fe6       1.0  0.39936  0.35116  0.10506  1.0000
  S   S11       1.0  0.39894  0.32735  0.07385  1.0000
  S   S12       1.0  0.43199  0.37395  0.10782  1.0000
  Fe  Fe7       1.0  0.36267  0.34088  0.06694  1.0000
  S   S13       1.0  0.34362  0.35473  0.03456  1.0000
  Fe  Fe8       1.0  0.38252  0.30108  0.09833  1.0000
  S   S14       1.0  0.39820  0.26435  0.09753  1.0000
  S   S15       1.0  0.36405  0.36662  0.09652  1.0000
  S   S16       1.0  0.38476  0.32430  0.12990  1.0000
  Fe  Fe9       1.0  0.40985  0.15535  0.18181  1.0000
  S   S17       1.0  0.43822  0.15654  0.20895  1.0000
  S   S18       1.0  0.38536  0.18631  0.17621  1.0000
  Fe  Fe10      1.0  0.42096  0.10484  0.16881  1.0000
  S   S19       1.0  0.45096  0.10262  0.19412  1.0000
  S   S20       1.0  0.41154  0.07446  0.14490  1.0000
  Fe  Fe11      1.0  0.42643  0.12041  0.21913  1.0000
  C   C1        1.0  0.13799  0.44812  0.22644  1.0000
  Fe  Fe12      1.0  0.46047  0.13880  0.18184  1.0000
  H   H1        1.0  0.23231  0.31454  0.01363  1.0000
  S   S21       1.0  0.39586  0.12045  0.19446  1.0000
  S   S22       1.0  0.43267  0.13978  0.15408  1.0000
  H   H2        1.0  0.21426  0.37950  0.24195  1.0000
  C   C2        1.0  0.48166  0.30375  0.13571  1.0000
  C   C3        1.0  0.14433  0.37078  0.02699  1.0000
  C   C4        1.0  0.39376  0.05056  0.15378  1.0000
  C   C5        1.0  0.38188  0.05059  0.17510  1.0000
  H   H3        1.0  0.46292  0.35166  0.18528  1.0000
  H   H4        1.0  0.38362  0.06539  0.18673  1.0000
  C   C6        1.0  0.39527  0.24361  0.12042  1.0000
  C   C7        1.0  0.40996  0.22384  0.12078  1.0000
  C   C8        1.0  0.40766  0.20654  0.13823  1.0000
  C   C9        1.0  0.39040  0.20871  0.15532  1.0000
  C   C10       1.0  0.37591  0.22863  0.15513  1.0000
  C   C11       1.0  0.37845  0.24613  0.13790  1.0000
  H   H5        1.0  0.42317  0.22189  0.10745  1.0000
  H   H6        1.0  0.41894  0.19131  0.13818  1.0000
  H   H7        1.0  0.36247  0.23044  0.16827  1.0000
  H   H8        1.0  0.36703  0.26127  0.13783  1.0000
  H   H9        1.0  0.36553  0.43420  0.03764  1.0000
  C   C12       1.0  0.25906  0.38409  0.20275  1.0000
  H   H10       1.0  0.39969  0.40790  0.08429  1.0000
  C   C13       1.0  0.40742  0.38316  0.04566  1.0000
  H   H11       1.0  0.40053  0.03089  0.12243  1.0000
  C   C14       1.0  0.45397  0.37069  0.12950  1.0000
  C   C15       1.0  0.44915  0.36068  0.15127  1.0000
  C   C16       1.0  0.46689  0.35904  0.16834  1.0000
  H   H12       1.0  0.10552  0.48192  0.23439  1.0000
  C   C17       1.0  0.47667  0.37900  0.12501  1.0000
  H   H13       1.0  0.43164  0.35465  0.15512  1.0000
  C   C18       1.0  0.48966  0.36708  0.16375  1.0000
  H   H14       1.0  0.48053  0.38694  0.10829  1.0000
  C   C19       1.0  0.25676  0.39175  0.12600  1.0000
  C   C20       1.0  0.25338  0.37237  0.14060  1.0000
  C   C21       1.0  0.27198  0.35675  0.14508  1.0000
  C   C22       1.0  0.29398  0.36015  0.13468  1.0000
  C   C23       1.0  0.29702  0.37901  0.11932  1.0000
  C   C24       1.0  0.27851  0.39476  0.11508  1.0000
  H   H15       1.0  0.23659  0.36977  0.14875  1.0000
  H   H16       1.0  0.26947  0.34213  0.15686  1.0000
  H   H17       1.0  0.31378  0.38175  0.11108  1.0000
  H   H18       1.0  0.28120  0.40958  0.10357  1.0000
  H   H19       1.0  0.43761  0.41115  0.06961  1.0000
  C   C25       1.0  0.10031  0.45422  0.03762  1.0000
  H   H20       1.0  0.21375  0.36859  0.10463  1.0000
  C   C26       1.0  0.28914  0.34357  0.06615  1.0000
  H   H21       1.0  0.12386  0.49059  0.13074  1.0000
  C   C27       1.0  0.14535  0.38266  0.23488  1.0000
  C   C28       1.0  0.12261  0.38873  0.22816  1.0000
  H   H22       1.0  0.20321  0.34071  0.09360  1.0000
  H   H23       1.0  0.11904  0.39372  0.21027  1.0000
  C   C29       1.0  0.29399  0.40708  0.17600  1.0000
  H   H24       1.0  0.16689  0.40075  0.03109  1.0000
  C   C30       1.0  0.15417  0.38953  0.03947  1.0000
  C   C31       1.0  0.14808  0.39357  0.06289  1.0000
  C   C32       1.0  0.13190  0.37902  0.07399  1.0000
  C   C33       1.0  0.12141  0.36077  0.06127  1.0000
  C   C34       1.0  0.12769  0.35654  0.03786  1.0000
  H   H25       1.0  0.49694  0.30550  0.14769  1.0000
  H   H26       1.0  0.15567  0.40812  0.07230  1.0000
  H   H27       1.0  0.10866  0.34959  0.06969  1.0000
  C   C35       1.0  0.16472  0.47815  0.23817  1.0000
  N   N1        1.0  0.14044  0.46949  0.24104  1.0000
  C   C36       1.0  0.36763  0.03143  0.18135  1.0000
  H   H28       1.0  0.10401  0.47257  0.04087  1.0000
  H   H29       1.0  0.42817  0.27839  0.13625  1.0000
  C   C37       1.0  0.47297  0.26250  0.14681  1.0000
  H   H30       1.0  0.41807  0.37674  0.03080  1.0000
  C   C38       1.0  0.09113  0.40683  0.02952  1.0000
  C   C39       1.0  0.45669  0.29513  0.16820  1.0000
  H   H31       1.0  0.30708  0.41534  0.16510  1.0000
  H   H32       1.0  0.23671  0.41201  0.18900  1.0000
  C   C40       1.0  0.46592  0.22109  0.15662  1.0000
  C   C41       1.0  0.49450  0.37704  0.14197  1.0000
  H   H33       1.0  0.47426  0.32172  0.13386  1.0000
  H   H34       1.0  0.36155  0.05775  0.25300  1.0000
  H   H35       1.0  0.12010  0.34195  0.02849  1.0000
  C   C42       1.0  0.27498  0.33640  0.08453  1.0000
  C   C43       1.0  0.27142  0.41617  0.17682  1.0000
  H   H36       1.0  0.15035  0.43408  0.23206  1.0000
  N   N2        1.0  0.21660  0.36452  0.06736  1.0000
  C   C44       1.0  0.20391  0.35167  0.04878  1.0000
  C   C45       1.0  0.20458  0.35981  0.08988  1.0000
  C   C46       1.0  0.21490  0.39016  0.06281  1.0000
  C   C47       1.0  0.24142  0.35710  0.06725  1.0000
  C   C48       1.0  0.25617  0.36333  0.04830  1.0000
  C   C49       1.0  0.25147  0.34310  0.08527  1.0000
  H   H37       1.0  0.20623  0.33239  0.05072  1.0000
  H   H38       1.0  0.18481  0.35512  0.04939  1.0000
  H   H39       1.0  0.20985  0.35670  0.03097  1.0000
  C   C50       1.0  0.50435  0.23311  0.14427  1.0000
  H   H40       1.0  0.16930  0.48045  0.21939  1.0000
  H   H41       1.0  0.18626  0.36655  0.08983  1.0000
  H   H42       1.0  0.19711  0.39712  0.06628  1.0000
  H   H43       1.0  0.22714  0.40008  0.07427  1.0000
  H   H44       1.0  0.21881  0.39491  0.04443  1.0000
  H   H45       1.0  0.38944  0.37613  0.04337  1.0000
  H   H46       1.0  0.24175  0.33748  0.10039  1.0000
  H   H47       1.0  0.20868  0.35266  0.20729  1.0000
  C   C51       1.0  0.25416  0.40484  0.18986  1.0000
  C   C52       1.0  0.09615  0.43919  0.05635  1.0000
  N   N3        1.0  0.24014  0.37187  0.21554  1.0000
  C   C53       1.0  0.48907  0.21558  0.15157  1.0000
  H   H48       1.0  0.11985  0.44109  0.22689  1.0000
  H   H49       1.0  0.49733  0.12410  0.13777  1.0000
  N   N4        1.0  0.40713  0.40907  0.04730  1.0000
  H   H50       1.0  0.26192  0.35810  0.24313  1.0000
  H   H51       1.0  0.12648  0.49018  0.21259  1.0000
  H   H52       1.0  0.23179  0.34990  0.18622  1.0000
  H   H53       1.0  0.33388  0.02990  0.24264  1.0000
  C   C54       1.0  0.44361  0.28761  0.12891  1.0000
  H   H54       1.0  0.35844  0.03167  0.19782  1.0000
  H   H55       1.0  0.21790  0.40216  0.22131  1.0000
  H   H56       1.0  0.30748  0.33891  0.06607  1.0000
  H   H57       1.0  0.41484  0.37501  0.06170  1.0000
  H   H58       1.0  0.08778  0.38829  0.02780  1.0000
  H   H59       1.0  0.14191  0.45174  0.20773  1.0000
  H   H60       1.0  0.16751  0.49550  0.24647  1.0000
  C   C55       1.0  0.37698  0.43144  0.02297  1.0000
  H   H61       1.0  0.43618  0.04986  0.18943  1.0000
  H   H62       1.0  0.28767  0.35926  0.21008  1.0000
  C   C56       1.0  0.24860  0.35209  0.23027  1.0000
  C   C57       1.0  0.28232  0.37529  0.20157  1.0000
  H   H63       1.0  0.37444  0.40833  0.06607  1.0000
  H   H64       1.0  0.43972  0.24746  0.15823  1.0000
  H   H65       1.0  0.44763  0.27929  0.11181  1.0000
  H   H66       1.0  0.23408  0.34392  0.24037  1.0000
  C   C58       1.0  0.42570  0.01501  0.19961  1.0000
  N   N5        1.0  0.36688  0.14189  0.11499  1.0000
  C   C59       1.0  0.36911  0.13261  0.13911  1.0000
  C   C60       1.0  0.35403  0.16452  0.11640  1.0000
  C   C61       1.0  0.35245  0.12542  0.10110  1.0000
  C   C62       1.0  0.39038  0.14404  0.10439  1.0000
  C   C63       1.0  0.39963  0.16572  0.09626  1.0000
  C   C64       1.0  0.40492  0.12399  0.10214  1.0000
  C   C65       1.0  0.42229  0.16718  0.08722  1.0000
  C   C66       1.0  0.42755  0.12564  0.09313  1.0000
  C   C67       1.0  0.43627  0.14722  0.08581  1.0000
  H   H67       1.0  0.38037  0.14427  0.14983  1.0000
  H   H68       1.0  0.35190  0.13143  0.14806  1.0000
  H   H69       1.0  0.37694  0.11475  0.13975  1.0000
  H   H70       1.0  0.36367  0.17746  0.12735  1.0000
  H   H71       1.0  0.33659  0.16241  0.12472  1.0000
  H   H72       1.0  0.35099  0.17231  0.09881  1.0000
  H   H73       1.0  0.35970  0.10730  0.10133  1.0000
  H   H74       1.0  0.33432  0.12409  0.10802  1.0000
  H   H75       1.0  0.35134  0.13119  0.08254  1.0000
  H   H76       1.0  0.38994  0.18196  0.09708  1.0000
  H   H77       1.0  0.39915  0.10688  0.10791  1.0000
  H   H78       1.0  0.42914  0.18400  0.08159  1.0000
  H   H79       1.0  0.43850  0.11012  0.09231  1.0000
  H   H80       1.0  0.45396  0.14852  0.07920  1.0000
  S   S23       1.0  0.49719  0.15381  0.17950  1.0000
  H   H81       1.0  0.44192  0.06358  0.23001  1.0000
  C   C68       1.0  0.39138  0.03111  0.13893  1.0000
  H   H82       1.0  0.21475  0.37631  0.18785  1.0000
  H   H83       1.0  0.39160  0.43475  0.07011  1.0000
  H   H84       1.0  0.50662  0.35015  0.24276  1.0000
  C   C69       1.0  0.10435  0.38815  0.24461  1.0000
  C   C70       1.0  0.43320  0.03793  0.20393  1.0000
  H   H85       1.0  0.44280  0.28391  0.17589  1.0000
  H   H86       1.0  0.08682  0.39287  0.23927  1.0000
  H   H87       1.0  0.43767  0.30589  0.12530  1.0000
  C   C71       1.0  0.29943  0.38671  0.18835  1.0000
  H   H88       1.0  0.09679  0.44570  0.07411  1.0000
  H   H89       1.0  0.24017  0.39750  0.24311  1.0000
  C   C72       1.0  0.22775  0.38850  0.23114  1.0000
  C   C73       1.0  0.22317  0.36226  0.19848  1.0000
  H   H90       1.0  0.26695  0.43146  0.16639  1.0000
  H   H91       1.0  0.29110  0.36263  0.03398  1.0000
  N   N6        1.0  0.46410  0.28686  0.14485  1.0000
  H   H92       1.0  0.28253  0.32618  0.09870  1.0000
  C   C74       1.0  0.27978  0.35697  0.04806  1.0000
  C   C75       1.0  0.09133  0.41564  0.05228  1.0000
  H   H93       1.0  0.44934  0.31316  0.16733  1.0000
  H   H94       1.0  0.48786  0.29860  0.11806  1.0000
  C   C76       1.0  0.39853  0.41908  0.02497  1.0000
  C   C77       1.0  0.39251  0.41542  0.06774  1.0000
  H   H95       1.0  0.24958  0.37341  0.03371  1.0000
  C   C78       1.0  0.49658  0.25629  0.14197  1.0000
  H   H96       1.0  0.44413  0.41065  0.03936  1.0000
  C   C79       1.0  0.43186  0.03067  0.24538  1.0000
  C   C80       1.0  0.12297  0.50589  0.14180  1.0000
  H   H97       1.0  0.43212  0.43684  0.05205  1.0000
  C   C81       1.0  0.45789  0.24415  0.15421  1.0000
  H   H98       1.0  0.17751  0.46561  0.24594  1.0000
  H   H99       1.0  0.12632  0.50479  0.24004  1.0000
  H   H100      1.0  0.45416  0.20737  0.16248  1.0000
  H   H101      1.0  0.31680  0.37917  0.18684  1.0000
  H   H102      1.0  0.25619  0.33777  0.21950  1.0000
  C   C82       1.0  0.43126  0.41735  0.05219  1.0000
  H   H103      1.0  0.08828  0.40397  0.06699  1.0000
  C   C83       1.0  0.33777  0.01612  0.25508  1.0000
  S   S24       1.0  0.42676  0.10543  0.25590  1.0000
  C   C84       1.0  0.12400  0.48737  0.23168  1.0000
  H   H104      1.0  0.49519  0.19767  0.15340  1.0000
  C   C85       1.0  0.13657  0.50691  0.16212  1.0000
  C   C86       1.0  0.43630  0.04573  0.22674  1.0000
  H   H105      1.0  0.47169  0.29535  0.18064  1.0000
  C   C87       1.0  0.14965  0.37600  0.25814  1.0000
  H   H106      1.0  0.38346  0.13261  0.25339  1.0000
  C   C88       1.0  0.09995  0.44566  0.01475  1.0000
  C   C89       1.0  0.09567  0.42160  0.00999  1.0000
  H   H107      1.0  0.50943  0.26896  0.13639  1.0000
  C   C90       1.0  0.36516  0.01203  0.16644  1.0000
  Fe  Fe13      1.0  0.05784  0.35503  0.36675  1.0000
  S   S25       1.0  0.08752  0.35483  0.39262  1.0000
  C   C91       1.0  0.28426  0.02275  0.43569  1.0000
  Fe  Fe14      1.0  0.09000  0.37132  0.32623  1.0000
  S   S26       1.0  0.12211  0.37196  0.34893  1.0000
  S   S27       1.0  0.08536  0.38201  0.28815  1.0000
  Fe  Fe15      1.0  0.10848  0.33782  0.36413  1.0000
  S   S28       1.0  0.12869  0.30344  0.36607  1.0000
  Fe  Fe16      1.0  0.09866  0.38905  0.37549  1.0000
  S   S29       1.0  0.10559  0.42281  0.39564  1.0000
  S   S30       1.0  0.07827  0.33618  0.33917  1.0000
  S   S31       1.0  0.06719  0.39029  0.35189  1.0000
  Fe  Fe17      1.0  0.10801  0.14583  0.44007  1.0000
  S   S32       1.0  0.11417  0.16759  0.47233  1.0000
  S   S33       1.0  0.07056  0.13244  0.43677  1.0000
  Fe  Fe18      1.0  0.15871  0.15165  0.42416  1.0000
  S   S34       1.0  0.16752  0.17435  0.45468  1.0000
  S   S35       1.0  0.18748  0.14659  0.39738  1.0000
  Fe  Fe19      1.0  0.14802  0.14774  0.47614  1.0000
  H   H108      1.0  0.36664  0.07689  0.27683  1.0000
  Fe  Fe20      1.0  0.13310  0.19194  0.44790  1.0000
  S   S36       1.0  0.12722  0.23127  0.45092  1.0000
  S   S37       1.0  0.14066  0.12402  0.44560  1.0000
  S   S38       1.0  0.12535  0.17131  0.41558  1.0000
  Fe  Fe21      1.0  0.34835  0.05161  0.38308  1.0000
  S   S39       1.0  0.37433  0.08049  0.37724  1.0000
  H   H109      1.0  0.26897  0.03423  0.43162  1.0000
  Fe  Fe22      1.0  0.31150  0.08528  0.40303  1.0000
  S   S40       1.0  0.33421  0.11694  0.39784  1.0000
  S   S41       1.0  0.27672  0.08401  0.42204  1.0000
  Fe  Fe23      1.0  0.34391  0.10093  0.36323  1.0000
  S   S42       1.0  0.34519  0.12139  0.32923  1.0000
  Fe  Fe24      1.0  0.36293  0.09427  0.41235  1.0000
  S   S43       1.0  0.38936  0.11097  0.43685  1.0000
  S   S44       1.0  0.31831  0.07149  0.36708  1.0000
  S   S45       1.0  0.33984  0.06323  0.41966  1.0000
  H   H110      1.0  0.40956  0.17301  0.40122  1.0000
  C   C92       1.0  0.40528  0.09973  0.29805  1.0000
  C   C93       1.0  0.38755  0.10322  0.31461  1.0000
  C   C94       1.0  0.36819  0.11722  0.30912  1.0000
  C   C95       1.0  0.36684  0.12782  0.28698  1.0000
  H   H111      1.0  0.35383  0.06730  0.31651  1.0000
  H   H112      1.0  0.42022  0.08892  0.30246  1.0000
  H   H113      1.0  0.38891  0.09502  0.33153  1.0000
  H   H114      1.0  0.35196  0.13873  0.28262  1.0000
  H   H115      1.0  0.01866  0.05923  0.41209  1.0000
  C   C96       1.0  0.21250  0.12973  0.40481  1.0000
  C   C97       1.0  0.23212  0.13011  0.39008  1.0000
  C   C98       1.0  0.25213  0.11659  0.39533  1.0000
  C   C99       1.0  0.25251  0.10227  0.41521  1.0000
  C   C100      1.0  0.23292  0.10198  0.42997  1.0000
  C   C101      1.0  0.21312  0.11584  0.42497  1.0000
  H   H116      1.0  0.23179  0.14078  0.37444  1.0000
  H   H117      1.0  0.26705  0.11692  0.38378  1.0000
  H   H118      1.0  0.23296  0.09085  0.44529  1.0000
  H   H119      1.0  0.19815  0.11541  0.43647  1.0000
  H   H120      1.0  0.12981  0.50045  0.43745  1.0000
  C   C102      1.0  0.02792  0.13364  0.41474  1.0000
  C   C103      1.0  0.05227  0.13570  0.41204  1.0000
  C   C104      1.0  0.06139  0.13994  0.38983  1.0000
  C   C105      1.0  0.04627  0.14212  0.37050  1.0000
  H   H121      1.0  0.28726  0.12782  0.47853  1.0000
  H   H122      1.0  0.01694  0.37656  0.40466  1.0000
  H   H123      1.0  0.08013  0.14111  0.38749  1.0000
  C   C106      1.0  0.39470  0.13213  0.47979  1.0000
  C   C107      1.0  0.38013  0.11851  0.46538  1.0000
  C   C108      1.0  0.35883  0.11045  0.47418  1.0000
  H   H124      1.0  0.41118  0.13848  0.47309  1.0000
  H   H125      1.0  0.34750  0.09988  0.46333  1.0000
  H   H126      1.0  0.38274  0.04995  0.27486  1.0000
  H   H127      1.0  0.05349  0.14512  0.35330  1.0000
  C   C109      1.0  0.12510  0.44509  0.38624  1.0000
  C   C110      1.0  0.14461  0.44004  0.37246  1.0000
  C   C111      1.0  0.16058  0.45795  0.36665  1.0000
  H   H128      1.0  0.04285  0.36034  0.30270  1.0000
  C   C112      1.0  0.13732  0.48626  0.38760  1.0000
  C   C113      1.0  0.12155  0.46828  0.39376  1.0000
  H   H129      1.0  0.14764  0.42226  0.36667  1.0000
  H   H130      1.0  0.17580  0.45379  0.35628  1.0000
  H   H131      1.0  0.38057  0.14082  0.39162  1.0000
  H   H132      1.0  0.10642  0.47236  0.40430  1.0000
  C   C114      1.0  0.12617  0.28340  0.38957  1.0000
  C   C115      1.0  0.13007  0.25940  0.38552  1.0000
  C   C116      1.0  0.12974  0.24314  0.40406  1.0000
  C   C117      1.0  0.12613  0.25083  0.42690  1.0000
  C   C118      1.0  0.12221  0.27479  0.43097  1.0000
  C   C119      1.0  0.12201  0.29099  0.41236  1.0000
  H   H133      1.0  0.13342  0.25344  0.36793  1.0000
  H   H134      1.0  0.13268  0.22475  0.40073  1.0000
  H   H135      1.0  0.11949  0.28090  0.44862  1.0000
  H   H136      1.0  0.11928  0.30946  0.41572  1.0000
  N   N7        1.0  0.40980  0.15158  0.37027  1.0000
  C   C120      1.0  0.02547  0.36216  0.31122  1.0000
  H   H137      1.0  0.03776  0.18356  0.39987  1.0000
  C   C121      1.0  0.42563  0.15976  0.29694  1.0000
  H   H138      1.0  0.13497  0.37043  0.29250  1.0000
  H   H139      1.0  0.02911  0.36423  0.33008  1.0000
  C   C122      1.0  0.06599  0.25426  0.41824  1.0000
  C   C123      1.0  0.41333  0.17435  0.38217  1.0000
  C   C124      1.0  0.43936  0.14499  0.31069  1.0000
  H   H140      1.0  0.12139  0.45640  0.33255  1.0000
  H   H141      1.0  0.40166  0.18826  0.37506  1.0000
  N   N8        1.0  0.20101  0.22575  0.41254  1.0000
  C   C125      1.0  0.18888  0.24716  0.42099  1.0000
  C   C126      1.0  0.21945  0.23331  0.39601  1.0000
  C   C127      1.0  0.18355  0.21150  0.39967  1.0000
  C   C128      1.0  0.21162  0.21152  0.43150  1.0000
  C   C129      1.0  0.21053  0.21805  0.45545  1.0000
  C   C130      1.0  0.22334  0.19020  0.42628  1.0000
  C   C131      1.0  0.22024  0.20382  0.47290  1.0000
  C   C132      1.0  0.23295  0.17612  0.44387  1.0000
  H   H142      1.0  0.28013  0.03368  0.39204  1.0000
  H   H143      1.0  0.20114  0.25936  0.42990  1.0000
  H   H144      1.0  0.18059  0.25725  0.40645  1.0000
  H   H145      1.0  0.17451  0.24262  0.43328  1.0000
  H   H146      1.0  0.21222  0.24475  0.38193  1.0000
  H   H147      1.0  0.22790  0.21817  0.38719  1.0000
  H   H148      1.0  0.23342  0.24329  0.40521  1.0000
  H   H149      1.0  0.19152  0.19623  0.39068  1.0000
  H   H150      1.0  0.17005  0.20447  0.41174  1.0000
  H   H151      1.0  0.17444  0.22189  0.38590  1.0000
  H   H152      1.0  0.20174  0.23372  0.46128  1.0000
  H   H153      1.0  0.22460  0.18386  0.40855  1.0000
  C   C133      1.0  0.02408  0.40434  0.30723  1.0000
  H   H154      1.0  0.37076  0.04109  0.31509  1.0000
  H   H155      1.0  0.02275  0.06660  0.36105  1.0000
  H   H156      1.0  0.38129  0.12844  0.36279  1.0000
  H   H157      1.0  0.24452  0.12222  0.47479  1.0000
  H   H158      1.0  0.23833  0.17173  0.48080  1.0000
  H   H159      1.0  0.42204  0.11604  0.37466  1.0000
  H   H160      1.0  0.04655  0.23971  0.36368  1.0000
  S   S46       1.0  0.35074  0.01579  0.36601  1.0000
  N   N9        1.0  0.06105  0.21327  0.40123  1.0000
  C   C134      1.0  0.07719  0.20439  0.38304  1.0000
  C   C135      1.0  0.06978  0.20463  0.42417  1.0000
  C   C136      1.0  0.03758  0.20291  0.39740  1.0000
  C   C137      1.0  0.05954  0.23916  0.39959  1.0000
  H   H161      1.0  0.04207  0.40479  0.29979  1.0000
  C   C138      1.0  0.29376  0.01999  0.39508  1.0000
  C   C139      1.0  0.38560  0.06378  0.50355  1.0000
  C   C140      1.0  0.25233  0.12481  0.49186  1.0000
  H   H162      1.0  0.17849  0.49016  0.42276  1.0000
  H   H163      1.0  0.09459  0.21299  0.38443  1.0000
  H   H164      1.0  0.08004  0.18515  0.38463  1.0000
  H   H165      1.0  0.07055  0.20754  0.36506  1.0000
  H   H166      1.0  0.37245  0.15810  0.36695  1.0000
  H   H167      1.0  0.07067  0.18509  0.42489  1.0000
  H   H168      1.0  0.42905  0.16128  0.27837  1.0000
  H   H169      1.0  0.16726  0.47516  0.48516  1.0000
  H   H170      1.0  0.24119  0.15958  0.43941  1.0000
  C   C141      1.0  0.01183  0.37969  0.27574  1.0000
  H   H171      1.0  0.08781  0.21098  0.42779  1.0000
  H   H172      1.0  0.41920  0.13190  0.40128  1.0000
  C   C142      1.0  0.34497  0.02138  0.27825  1.0000
  H   H173      1.0  0.45338  0.13514  0.30259  1.0000
  H   H174      1.0  0.11769  0.42315  0.30517  1.0000
  H   H175      1.0  0.05822  0.21009  0.43876  1.0000
  H   H176      1.0  0.07269  0.24776  0.43470  1.0000
  H   H177      1.0  0.21145  0.49760  0.44724  1.0000
  H   H178      1.0  0.44559  0.13004  0.34388  1.0000
  H   H179      1.0  0.29920  0.03490  0.43866  1.0000
  C   C143      1.0  0.40392  0.11027  0.27592  1.0000
  N   N10       1.0  0.34698  0.04608  0.28597  1.0000
  H   H180      1.0  0.32501  0.07680  0.28922  1.0000
  C   C144      1.0  0.17104  0.48121  0.43843  1.0000
  C   C145      1.0  0.01278  0.13599  0.39543  1.0000
  H   H181      1.0  0.39605  0.18288  0.29596  1.0000
  H   H182      1.0  0.34006  0.03997  0.32251  1.0000
  C   C146      1.0  0.05761  0.28872  0.39483  1.0000
  C   C147      1.0  0.38462  0.12433  0.27039  1.0000
  C   C148      1.0  0.06487  0.27866  0.41580  1.0000
  C   C149      1.0  0.05090  0.27446  0.37631  1.0000
  C   C150      1.0  0.40701  0.17183  0.30688  1.0000
  H   H183      1.0  0.31086  0.02907  0.39645  1.0000
  H   H184      1.0  0.02076  0.13038  0.43191  1.0000
  H   H185      1.0  0.02464  0.21023  0.40986  1.0000
  C   C151      1.0  0.05166  0.25004  0.37863  1.0000
  C   C152      1.0  0.35237  0.11556  0.49729  1.0000
  H   H186      1.0  0.33614  0.10868  0.50402  1.0000
  C   C153      1.0  0.15714  0.48108  0.37434  1.0000
  C   C154      1.0  0.40204  0.16919  0.33063  1.0000
  H   H187      1.0  0.02166  0.08865  0.38296  1.0000
  C   C155      1.0  0.23133  0.18288  0.46714  1.0000
  N   N11       1.0  0.16280  0.49850  0.45597  1.0000
  H   H188      1.0  0.43204  0.07985  0.47063  1.0000
  C   C156      1.0  0.27637  0.12806  0.49402  1.0000
  C   C157      1.0  0.10867  0.38156  0.26790  1.0000
  H   H189      1.0  0.18435  0.46904  0.44582  1.0000
  H   H190      1.0  0.15654  0.46989  0.43194  1.0000
  C   C158      1.0  0.43448  0.14210  0.33446  1.0000
  H   H191      1.0  0.13420  0.50409  0.39314  1.0000
  C   C159      1.0  0.38501  0.14451  0.37303  1.0000
  C   C160      1.0  0.41551  0.15410  0.34516  1.0000
  C   C161      1.0  0.12543  0.45886  0.31423  1.0000
  H   H192      1.0  0.03095  0.20600  0.37941  1.0000
  H   H193      1.0  0.38729  0.17881  0.33742  1.0000
  H   H194      1.0  0.44314  0.13849  0.38256  1.0000
  C   C162      1.0  0.13551  0.46542  0.26612  1.0000
  H   H195      1.0  0.14517  0.49715  0.48922  1.0000
  C   C163      1.0  0.42428  0.13373  0.38258  1.0000
  H   H196      1.0  0.43412  0.03699  0.26309  1.0000
  H   H197      1.0  0.43168  0.18054  0.38014  1.0000
  C   C164      1.0  0.32440  0.05848  0.28237  1.0000
  H   H198      1.0  0.04553  0.28253  0.35997  1.0000
  H   H199      1.0  0.07053  0.28988  0.42998  1.0000
  H   H200      1.0  0.39323  0.06154  0.46685  1.0000
  H   H201      1.0  0.30992  0.04924  0.29154  1.0000
  C   C165      1.0  0.15325  0.48530  0.47611  1.0000
  H   H202      1.0  0.01596  0.34529  0.30906  1.0000
  C   C166      1.0  0.12330  0.44019  0.29877  1.0000
  C   C167      1.0  0.35322  0.04859  0.31105  1.0000
  C   C168      1.0  0.13759  0.48404  0.28243  1.0000
  C   C169      1.0  0.36525  0.05809  0.27205  1.0000
  S   S47       1.0  0.02178  0.33827  0.37074  1.0000
  H   H203      1.0  0.21862  0.20876  0.49109  1.0000
  C   C170      1.0  0.38800  0.13766  0.50282  1.0000
  C   C171      1.0  0.13142  0.37549  0.27461  1.0000
  S   S48       1.0  0.17829  0.50274  0.36742  1.0000
  S   S49       1.0  0.16947  0.13403  0.50699  1.0000
  H   H204      1.0  0.13945  0.47268  0.47055  1.0000
  H   H205      1.0  0.05749  0.30764  0.39282  1.0000
  C   C172      1.0  0.12835  0.44328  0.27508  1.0000
  C   C173      1.0  0.02195  0.14000  0.37319  1.0000
  C   C174      1.0  0.13278  0.48068  0.30614  1.0000
  H   H206      1.0  0.01716  0.03537  0.39165  1.0000
  H   H207      1.0  0.14291  0.50139  0.27697  1.0000
  H   H208      1.0  0.13478  0.49505  0.31841  1.0000
  H   H209      1.0  0.03001  0.37955  0.26865  1.0000
  H   H210      1.0  0.12645  0.42803  0.26420  1.0000
  H   H211      1.0  0.02613  0.40696  0.32632  1.0000
  C   C175      1.0  0.42155  0.07700  0.48612  1.0000
  H   H212      1.0  0.01435  0.41977  0.30028  1.0000
  C   C176      1.0  0.39964  0.06663  0.48394  1.0000
  H   H213      1.0  0.16717  0.37124  0.26351  1.0000
  H   H214      1.0  0.31957  0.06006  0.26364  1.0000
  H   H215      1.0  0.44642  0.09297  0.50858  1.0000
  N   N12       1.0  0.01186  0.38212  0.30155  1.0000
  C   C177      1.0  0.20540  0.51165  0.45827  1.0000
  H   H216      1.0  0.36827  0.05635  0.50162  1.0000
  C   C178      1.0  0.42956  0.08449  0.50794  1.0000
  H   H217      1.0  0.28007  0.01351  0.45228  1.0000
  C   C179      1.0  0.01055  0.07781  0.37119  1.0000
  H   H218      1.0  0.21950  0.12272  0.50979  1.0000
  Fe  Fe25      1.0  0.41213  0.14748  0.61034  1.0000
  S   S50       1.0  0.41015  0.16947  0.57777  1.0000
  S   S51       1.0  0.44628  0.12736  0.61369  1.0000
  Fe  Fe26      1.0  0.36108  0.15809  0.62278  1.0000
  S   S52       1.0  0.35616  0.18117  0.59136  1.0000
  S   S53       1.0  0.32957  0.15430  0.64649  1.0000
  Fe  Fe27      1.0  0.37507  0.15284  0.57168  1.0000
  S   S54       1.0  0.35751  0.13483  0.54070  1.0000
  Fe  Fe28      1.0  0.39163  0.19557  0.60069  1.0000
  S   S55       1.0  0.40290  0.23369  0.59755  1.0000
  S   S56       1.0  0.37812  0.12904  0.60287  1.0000
  S   S57       1.0  0.39549  0.17442  0.63361  1.0000
  Fe  Fe29      1.0  0.46618  0.36996  0.68229  1.0000
  S   S58       1.0  0.43986  0.36139  0.65427  1.0000
  H   H219      1.0  0.39987  0.47013  0.59611  1.0000
  Fe  Fe30      1.0  0.42755  0.38201  0.71839  1.0000
  S   S59       1.0  0.39861  0.37387  0.69312  1.0000
  H   H220      1.0  0.43950  0.50889  0.62669  1.0000
  Fe  Fe31      1.0  0.41997  0.34239  0.68229  1.0000
  S   S60       1.0  0.40706  0.30452  0.68338  1.0000
  Fe  Fe32      1.0  0.42071  0.39370  0.66727  1.0000
  S   S61       1.0  0.40276  0.41930  0.64249  1.0000
  S   S62       1.0  0.44718  0.34922  0.70959  1.0000
  S   S63       1.0  0.44868  0.40368  0.69318  1.0000
  Fe  Fe33      1.0  0.17654  0.04634  0.66526  1.0000
  S   S64       1.0  0.15290  0.07723  0.67042  1.0000
  H   H221      1.0  0.49532  0.28697  0.59545  1.0000
  Fe  Fe34      1.0  0.21612  0.07778  0.64627  1.0000
  S   S65       1.0  0.19534  0.11088  0.65093  1.0000
  S   S66       1.0  0.25244  0.07592  0.63044  1.0000
  Fe  Fe35      1.0  0.18427  0.09515  0.68543  1.0000
  S   S67       1.0  0.18619  0.11257  0.72106  1.0000
  Fe  Fe36      1.0  0.16590  0.08974  0.63543  1.0000
  S   S68       1.0  0.13888  0.10330  0.60956  1.0000
  S   S69       1.0  0.20755  0.06376  0.68193  1.0000
  S   S70       1.0  0.18720  0.05723  0.62900  1.0000
  H   H222      1.0  0.14115  0.05547  0.58808  1.0000
  C   C180      1.0  0.17683  0.11616  0.55085  1.0000
  C   C181      1.0  0.17053  0.10939  0.57362  1.0000
  C   C182      1.0  0.14737  0.11160  0.58098  1.0000
  C   C183      1.0  0.13053  0.12037  0.56527  1.0000
  C   C184      1.0  0.13686  0.12719  0.54244  1.0000
  H   H223      1.0  0.19477  0.11438  0.54536  1.0000
  H   H224      1.0  0.18363  0.10256  0.58550  1.0000
  H   H225      1.0  0.11257  0.12218  0.57083  1.0000
  N   N13       1.0  0.28401  0.13405  0.55983  1.0000
  C   C185      1.0  0.14075  0.10170  0.73295  1.0000
  C   C186      1.0  0.16280  0.10871  0.74078  1.0000
  H   H226      1.0  0.43353  0.20982  0.63303  1.0000
  H   H227      1.0  0.13784  0.09835  0.71462  1.0000
  H   H228      1.0  0.48542  0.20805  0.67805  1.0000
  H   H229      1.0  0.40649  0.06558  0.57298  1.0000
  C   C187      1.0  0.36918  0.47335  0.57576  1.0000
  C   C188      1.0  0.39220  0.44630  0.65338  1.0000
  C   C189      1.0  0.37574  0.45918  0.64033  1.0000
  C   C190      1.0  0.36817  0.48145  0.64782  1.0000
  C   C191      1.0  0.37695  0.49091  0.66857  1.0000
  C   C192      1.0  0.39318  0.47787  0.68175  1.0000
  C   C193      1.0  0.40073  0.45567  0.67424  1.0000
  H   H230      1.0  0.36873  0.45179  0.62443  1.0000
  C   C194      1.0  0.27207  0.08998  0.69599  1.0000
  H   H231      1.0  0.40027  0.48508  0.69769  1.0000
  H   H232      1.0  0.41347  0.44596  0.68439  1.0000
  H   H233      1.0  0.24804  0.14381  0.68587  1.0000
  H   H234      1.0  0.31383  0.11286  0.55006  1.0000
  N   N14       1.0  0.42436  0.09063  0.55111  1.0000
  C   C195      1.0  0.40873  0.08485  0.57099  1.0000
  H   H235      1.0  0.50642  0.20465  0.60520  1.0000
  C   C196      1.0  0.40320  0.25334  0.62147  1.0000
  C   C197      1.0  0.41017  0.27670  0.61782  1.0000
  C   C198      1.0  0.41133  0.29265  0.63653  1.0000
  C   C199      1.0  0.40569  0.28530  0.65914  1.0000
  C   C200      1.0  0.39884  0.26191  0.66280  1.0000
  C   C201      1.0  0.39753  0.24600  0.64407  1.0000
  H   H236      1.0  0.41443  0.28257  0.60036  1.0000
  H   H237      1.0  0.41628  0.31070  0.63342  1.0000
  H   H238      1.0  0.39431  0.25608  0.68019  1.0000
  H   H239      1.0  0.39202  0.22812  0.64713  1.0000
  C   C202      1.0  0.30782  0.13331  0.63999  1.0000
  C   C203      1.0  0.31330  0.11242  0.62852  1.0000
  C   C204      1.0  0.29604  0.09514  0.62531  1.0000
  C   C205      1.0  0.27317  0.09865  0.63344  1.0000
  C   C206      1.0  0.26746  0.11989  0.64410  1.0000
  C   C207      1.0  0.28480  0.13705  0.64761  1.0000
  H   H240      1.0  0.33103  0.10924  0.62282  1.0000
  H   H241      1.0  0.30056  0.07874  0.61701  1.0000
  H   H242      1.0  0.24974  0.12289  0.64979  1.0000
  H   H243      1.0  0.28045  0.15325  0.65636  1.0000
  C   C208      1.0  0.47953  0.14599  0.67405  1.0000
  C   C209      1.0  0.46241  0.14385  0.65642  1.0000
  C   C210      1.0  0.46753  0.13174  0.63585  1.0000
  C   C211      1.0  0.48998  0.12216  0.63296  1.0000
  H   H244      1.0  0.47533  0.15495  0.69011  1.0000
  H   H245      1.0  0.44508  0.15093  0.65904  1.0000
  H   H246      1.0  0.49409  0.11264  0.61719  1.0000
  H   H247      1.0  0.46141  0.08654  0.54422  1.0000
  H   H248      1.0  0.11102  0.04300  0.56185  1.0000
  C   C212      1.0  0.12890  0.21235  0.75445  1.0000
  H   H249      1.0  0.38720  0.28887  0.73232  1.0000
  H   H250      1.0  0.13758  0.15618  0.71746  1.0000
  H   H251      1.0  0.42902  0.33063  0.75501  1.0000
  C   C213      1.0  0.38603  0.33607  0.73899  1.0000
  C   C214      1.0  0.26724  0.13442  0.57960  1.0000
  H   H252      1.0  0.13978  0.02130  0.72716  1.0000
  C   C215      1.0  0.42541  0.50039  0.61628  1.0000
  H   H253      1.0  0.43808  0.12247  0.53567  1.0000
  C   C216      1.0  0.28951  0.07706  0.68483  1.0000
  C   C217      1.0  0.09614  0.06000  0.60195  1.0000
  C   C218      1.0  0.10256  0.02078  0.61738  1.0000
  H   H254      1.0  0.30520  0.13802  0.70983  1.0000
  C   C219      1.0  0.16012  0.12523  0.53518  1.0000
  H   H255      1.0  0.45862  0.29959  0.61251  1.0000
  H   H256      1.0  0.28604  0.17161  0.55645  1.0000
  C   C220      1.0  0.29744  0.15632  0.56059  1.0000
  C   C221      1.0  0.38807  0.48268  0.58820  1.0000
  H   H257      1.0  0.29083  0.09720  0.56450  1.0000
  H   H258      1.0  0.41587  0.09153  0.58787  1.0000
  C   C222      1.0  0.10580  0.02949  0.57497  1.0000
  N   N15       1.0  0.25785  0.12571  0.71738  1.0000
  C   C223      1.0  0.36375  0.49355  0.74062  1.0000
  C   C224      1.0  0.24630  0.11104  0.73546  1.0000
  C   C225      1.0  0.26613  0.14747  0.72896  1.0000
  C   C226      1.0  0.27679  0.11225  0.70598  1.0000
  C   C227      1.0  0.30000  0.12093  0.70370  1.0000
  H   H259      1.0  0.10000  0.06896  0.61874  1.0000
  H   H260      1.0  0.33806  0.48080  0.55590  1.0000
  H   H261      1.0  0.18176  0.02863  0.72880  1.0000
  C   C228      1.0  0.12208  0.09979  0.74872  1.0000
  H   H262      1.0  0.30517  0.13394  0.51683  1.0000
  H   H263      1.0  0.46080  0.23620  0.66735  1.0000
  C   C229      1.0  0.13482  0.04316  0.60183  1.0000
  C   C230      1.0  0.35280  0.48813  0.56530  1.0000
  C   C231      1.0  0.47294  0.30535  0.64665  1.0000
  H   H264      1.0  0.23666  0.09596  0.72782  1.0000
  H   H265      1.0  0.35542  0.49114  0.63767  1.0000
  H   H266      1.0  0.10179  0.01498  0.67710  1.0000
  H   H267      1.0  0.10494  0.09481  0.74238  1.0000
  C   C232      1.0  0.17939  0.03776  0.74577  1.0000
  H   H268      1.0  0.45398  0.18661  0.62710  1.0000
  H   H269      1.0  0.48294  0.24029  0.60517  1.0000
  C   C233      1.0  0.39092  0.50733  0.59070  1.0000
  H   H270      1.0  0.37479  0.38861  0.74719  1.0000
  H   H271      1.0  0.08705  0.02543  0.57168  1.0000
  C   C234      1.0  0.45099  0.20261  0.63785  1.0000
  H   H272      1.0  0.25466  0.08268  0.69600  1.0000
  H   H273      1.0  0.10066  0.07309  0.58816  1.0000
  C   C235      1.0  0.39338  0.07127  0.52547  1.0000
  H   H274      1.0  0.22544  0.14255  0.70754  1.0000
  C   C236      1.0  0.49789  0.20474  0.66433  1.0000
  H   H275      1.0  0.38131  0.06907  0.53974  1.0000
  H   H276      1.0  0.44921  0.25093  0.64280  1.0000
  H   H277      1.0  0.27976  0.14354  0.74233  1.0000
  C   C237      1.0  0.24819  0.12815  0.53381  1.0000
  H   H278      1.0  0.46887  0.21289  0.59712  1.0000
  H   H279      1.0  0.40896  0.12471  0.54696  1.0000
  H   H280      1.0  0.11151  0.04339  0.64684  1.0000
  H   H281      1.0  0.13440  0.19484  0.69794  1.0000
  C   C238      1.0  0.46482  0.24096  0.64898  1.0000
  C   C239      1.0  0.38158  0.29547  0.74977  1.0000
  N   N16       1.0  0.39350  0.31778  0.75582  1.0000
  C   C240      1.0  0.30033  0.11422  0.56388  1.0000
  C   C241      1.0  0.31209  0.08597  0.68307  1.0000
  H   H282      1.0  0.47990  0.25325  0.64910  1.0000
  C   C242      1.0  0.28644  0.13144  0.51604  1.0000
  C   C243      1.0  0.13017  0.21384  0.73009  1.0000
  H   H283      1.0  0.33465  0.11520  0.69007  1.0000
  C   C244      1.0  0.49247  0.20953  0.64059  1.0000
  H   H284      1.0  0.44998  0.19676  0.65636  1.0000
  C   C245      1.0  0.41577  0.08178  0.52835  1.0000
  C   C246      1.0  0.23827  0.12505  0.51166  1.0000
  H   H285      1.0  0.32536  0.07628  0.67368  1.0000
  H   H286      1.0  0.07699  0.05673  0.60115  1.0000
  H   H287      1.0  0.36711  0.34023  0.74025  1.0000
  H   H288      1.0  0.12213  0.02376  0.75290  1.0000
  H   H289      1.0  0.27637  0.13691  0.59661  1.0000
  C   C247      1.0  0.49553  0.29146  0.61374  1.0000
  H   H290      1.0  0.12384  0.13416  0.53056  1.0000
  H   H291      1.0  0.31228  0.15651  0.54812  1.0000
  H   H292      1.0  0.13865  0.05182  0.61874  1.0000
  C   C248      1.0  0.50714  0.12446  0.65048  1.0000
  H   H293      1.0  0.36710  0.45448  0.57455  1.0000
  H   H294      1.0  0.36231  0.29746  0.74853  1.0000
  H   H295      1.0  0.23624  0.12791  0.54836  1.0000
  H   H296      1.0  0.23226  0.11709  0.69094  1.0000
  H   H297      1.0  0.39911  0.14857  0.51353  1.0000
  C   C249      1.0  0.13516  0.17193  0.72781  1.0000
  H   H298      1.0  0.45182  0.23731  0.60547  1.0000
  H   H299      1.0  0.28521  0.06049  0.67658  1.0000
  H   H300      1.0  0.38066  0.45997  0.73856  1.0000
  C   C250      1.0  0.42638  0.11650  0.54993  1.0000
  H   H301      1.0  0.45396  0.08608  0.57426  1.0000
  H   H302      1.0  0.25927  0.10401  0.74819  1.0000
  C   C251      1.0  0.44772  0.08061  0.55659  1.0000
  H   H303      1.0  0.14558  0.02690  0.60103  1.0000
  H   H304      1.0  0.44726  0.06110  0.55629  1.0000
  N   N17       1.0  0.46969  0.22016  0.63416  1.0000
  H   H305      1.0  0.43358  0.12382  0.56641  1.0000
  H   H306      1.0  0.49201  0.31093  0.67845  1.0000
  C   C252      1.0  0.31730  0.10786  0.69242  1.0000
  C   C253      1.0  0.24018  0.13258  0.69966  1.0000
  H   H307      1.0  0.42310  0.30796  0.73458  1.0000
  N   N18       1.0  0.15892  0.02881  0.75895  1.0000
  H   H308      1.0  0.19581  0.03548  0.75599  1.0000
  C   C254      1.0  0.13378  0.17026  0.75212  1.0000
  H   H309      1.0  0.13488  0.15285  0.75934  1.0000
  H   H310      1.0  0.45649  0.31115  0.65403  1.0000
  H   H311      1.0  0.39123  0.09316  0.56886  1.0000
  C   C255      1.0  0.50192  0.13618  0.67123  1.0000
  H   H312      1.0  0.39586  0.35261  0.74193  1.0000
  H   H313      1.0  0.12861  0.23072  0.72145  1.0000
  H   H314      1.0  0.25750  0.11756  0.58118  1.0000
  H   H315      1.0  0.30541  0.15933  0.57813  1.0000
  C   C256      1.0  0.46851  0.22798  0.60940  1.0000
  H   H316      1.0  0.25449  0.14908  0.57787  1.0000
  H   H317      1.0  0.31007  0.11625  0.58059  1.0000
  N   N19       1.0  0.10959  0.03790  0.59921  1.0000
  C   C257      1.0  0.36910  0.47112  0.74867  1.0000
  H   H318      1.0  0.41513  0.48956  0.62881  1.0000
  C   C258      1.0  0.41900  0.31403  0.75262  1.0000
  C   C259      1.0  0.13339  0.19367  0.71681  1.0000
  C   C260      1.0  0.27271  0.13135  0.53667  1.0000
  C   C261      1.0  0.49296  0.30497  0.66049  1.0000
  H   H319      1.0  0.13413  0.04949  0.73916  1.0000
  C   C262      1.0  0.47423  0.29873  0.62330  1.0000
  H   H320      1.0  0.25161  0.15677  0.73800  1.0000
  H   H321      1.0  0.27334  0.16022  0.71608  1.0000
  H   H322      1.0  0.38930  0.33063  0.72067  1.0000
  H   H323      1.0  0.23284  0.12110  0.74528  1.0000
  C   C263      1.0  0.10474  0.02657  0.64140  1.0000
  H   H324      1.0  0.43423  0.48852  0.60369  1.0000
  S   S71       1.0  0.50489  0.36042  0.68370  1.0000
  H   H325      1.0  0.11656  0.01366  0.57122  1.0000
  C   C264      1.0  0.13784  0.03090  0.74392  1.0000
  S   S72       1.0  0.42517  0.39241  0.75678  1.0000
  H   H326      1.0  0.17751  0.05673  0.74137  1.0000
  H   H327      1.0  0.50331  0.38138  0.63697  1.0000
  H   H328      1.0  0.37113  0.49988  0.72440  1.0000
  C   C265      1.0  0.34852  0.50774  0.75316  1.0000
  S   S73       1.0  0.16384  0.01315  0.68307  1.0000
  C   C266      1.0  0.36687  0.12917  0.51175  1.0000
  C   C267      1.0  0.50937  0.20271  0.62371  1.0000
  Fe  Fe37      1.0  0.15301  0.33744  0.91831  1.0000
  S   S74       1.0  0.15672  0.31531  0.95057  1.0000
  S   S75       1.0  0.18455  0.34177  0.89461  1.0000
  Fe  Fe38      1.0  0.10174  0.34965  0.92913  1.0000
  S   S76       1.0  0.10255  0.32914  0.96268  1.0000
  S   S77       1.0  0.06886  0.37130  0.92265  1.0000
  Fe  Fe39      1.0  0.13811  0.34484  0.96876  1.0000
  S   S78       1.0  0.15527  0.36463  0.99883  1.0000
  Fe  Fe40      1.0  0.12093  0.30165  0.94118  1.0000
  S   S79       1.0  0.10805  0.26407  0.94466  1.0000
  S   S80       1.0  0.13603  0.36747  0.93666  1.0000
  S   S81       1.0  0.11838  0.32151  0.90735  1.0000
  Fe  Fe41      1.0  0.33829  0.45326  0.88640  1.0000
  S   S82       1.0  0.36580  0.42659  0.87749  1.0000
  S   S83       1.0  0.33906  0.49155  0.87485  1.0000
  Fe  Fe42      1.0  0.30293  0.41512  0.90202  1.0000
  S   S84       1.0  0.32759  0.38580  0.89330  1.0000
  S   S85       1.0  0.26834  0.41064  0.92102  1.0000
  Fe  Fe43      1.0  0.35466  0.40830  0.91084  1.0000
  S   S86       1.0  0.38029  0.39120  0.93607  1.0000
  Fe  Fe44      1.0  0.33644  0.40658  0.86090  1.0000
  S   S87       1.0  0.33645  0.39318  0.82358  1.0000
  S   S88       1.0  0.32972  0.43685  0.92119  1.0000
  S   S89       1.0  0.30919  0.43393  0.86828  1.0000
  Fe  Fe45      1.0  0.09943  0.11448  0.82903  1.0000
  S   S90       1.0  0.12960  0.11985  0.85348  1.0000
  S   S91       1.0  0.10088  0.10276  0.79121  1.0000
  Fe  Fe46      1.0  0.06290  0.12928  0.86600  1.0000
  S   S92       1.0  0.09043  0.13512  0.89341  1.0000
  H   H329      1.0  0.08105  0.44404  0.96999  1.0000
  Fe  Fe47      1.0  0.11084  0.15272  0.86496  1.0000
  S   S93       1.0  0.12669  0.18919  0.86469  1.0000
  Fe  Fe48      1.0  0.10657  0.10151  0.87966  1.0000
  S   S94       1.0  0.12082  0.07325  0.90399  1.0000
  S   S95       1.0  0.08261  0.14866  0.83819  1.0000
  S   S96       1.0  0.07715  0.09433  0.85448  1.0000
  C   C268      1.0  0.36928  0.44029  0.00146  1.0000
  C   C269      1.0  0.13409  0.16558  0.80171  1.0000
  H   H330      1.0  0.02134  0.25183  0.93449  1.0000
  H   H331      1.0  0.06420  0.23793  0.84754  1.0000
  H   H332      1.0  0.15026  0.11430  0.79895  1.0000
  H   H333      1.0  0.10468  0.19611  0.81925  1.0000
  H   H334      1.0  0.13358  0.40906  0.98532  1.0000
  N   N20       1.0  0.04421  0.22389  0.87632  1.0000
  C   C270      1.0  0.31740  0.48413  0.81644  1.0000
  H   H335      1.0  0.02620  0.11367  0.90954  1.0000
  H   H336      1.0  0.27957  0.35980  0.92603  1.0000
  H   H337      1.0  0.30223  0.48961  0.80551  1.0000
  H   H338      1.0  0.38406  0.48946  0.89938  1.0000
  C   C271      1.0  0.13317  0.04306  0.86832  1.0000
  C   C272      1.0  0.13501  0.04843  0.89205  1.0000
  C   C273      1.0  0.31816  0.44648  0.79801  1.0000
  H   H339      1.0  0.12357  0.05465  0.85677  1.0000
  H   H340      1.0  0.05222  0.32025  0.93686  1.0000
  H   H341      1.0  0.02865  0.19681  0.91305  1.0000
  C   C274      1.0  0.40295  0.39782  0.79869  1.0000
  C   C275      1.0  0.38360  0.39832  0.81380  1.0000
  C   C276      1.0  0.36111  0.39448  0.80502  1.0000
  C   C277      1.0  0.35809  0.39096  0.78093  1.0000
  H   H342      1.0  0.07686  0.23861  0.88809  1.0000
  H   H343      1.0  0.42039  0.40002  0.80571  1.0000
  H   H344      1.0  0.38617  0.40084  0.83233  1.0000
  H   H345      1.0  0.06026  0.42241  0.97946  1.0000
  H   H346      1.0  0.34375  0.45312  0.83725  1.0000
  C   C278      1.0  0.34890  0.38888  0.97260  1.0000
  C   C279      1.0  0.37029  0.38130  0.96362  1.0000
  C   C280      1.0  0.38426  0.36609  0.97708  1.0000
  H   H347      1.0  0.33831  0.40104  0.96263  1.0000
  H   H348      1.0  0.40088  0.36021  0.97027  1.0000
  C   C281      1.0  0.11426  0.24322  0.92275  1.0000
  C   C282      1.0  0.10659  0.21997  0.92560  1.0000
  C   C283      1.0  0.11028  0.20319  0.90798  1.0000
  C   C284      1.0  0.12193  0.20950  0.88747  1.0000
  C   C285      1.0  0.12974  0.23269  0.88470  1.0000
  C   C286      1.0  0.12588  0.24950  0.90222  1.0000
  H   H349      1.0  0.09772  0.21494  0.94150  1.0000
  H   H350      1.0  0.10436  0.18535  0.91041  1.0000
  H   H351      1.0  0.13887  0.23772  0.86895  1.0000
  H   H352      1.0  0.13194  0.26732  0.89985  1.0000
  H   H353      1.0  0.04584  0.03575  0.96474  1.0000
  C   C287      1.0  0.02745  0.37865  0.89941  1.0000
  C   C288      1.0  0.04759  0.36461  0.90107  1.0000
  C   C289      1.0  0.05000  0.34550  0.88598  1.0000
  C   C290      1.0  0.03247  0.34067  0.86929  1.0000
  H   H354      1.0  0.37627  0.44325  0.96464  1.0000
  H   H355      1.0  0.02545  0.39352  0.91091  1.0000
  H   H356      1.0  0.06542  0.33456  0.88704  1.0000
  C   C291      1.0  0.20745  0.36147  0.90177  1.0000
  C   C292      1.0  0.20655  0.37541  0.92181  1.0000
  C   C293      1.0  0.22520  0.39060  0.92722  1.0000
  C   C294      1.0  0.24492  0.39204  0.91271  1.0000
  C   C295      1.0  0.24589  0.37808  0.89270  1.0000
  C   C296      1.0  0.22721  0.36288  0.88727  1.0000
  H   H357      1.0  0.19152  0.37443  0.93319  1.0000
  H   H358      1.0  0.22432  0.40126  0.94278  1.0000
  H   H359      1.0  0.26097  0.37898  0.88139  1.0000
  H   H360      1.0  0.22803  0.35217  0.87174  1.0000
  N   N21       1.0  0.09614  0.41287  0.98566  1.0000
  H   H361      1.0  0.04369  0.18982  0.86012  1.0000
  C   C297      1.0  0.41041  0.47572  0.83755  1.0000
  H   H362      1.0  0.17093  0.04419  0.79126  1.0000
  C   C298      1.0  0.34347  0.47672  0.78259  1.0000
  H   H363      1.0  0.38550  0.28160  0.76292  1.0000
  H   H364      1.0  0.36351  0.44503  0.77461  1.0000
  C   C299      1.0  0.23586  0.32034  0.99597  1.0000
  C   C300      1.0  0.15776  0.01252  0.89809  1.0000
  H   H365      1.0  0.10545  0.37698  0.99333  1.0000
  H   H366      1.0  0.05610  0.27722  0.94027  1.0000
  H   H367      1.0  0.09264  0.38131  0.96529  1.0000
  H   H368      1.0  0.36861  0.34694  0.84195  1.0000
  H   H369      1.0  0.14402  0.22406  0.79877  1.0000
  C   C301      1.0  0.14341  0.02243  0.85958  1.0000
  C   C302      1.0  0.41639  0.46438  0.79749  1.0000
  H   H370      1.0  0.26843  0.38207  0.96137  1.0000
  C   C303      1.0  0.01498  0.20667  0.90440  1.0000
  H   H371      1.0  0.34072  0.38807  0.77397  1.0000
  H   H372      1.0  0.12339  0.43673  0.97425  1.0000
  H   H373      1.0  0.07257  0.20170  0.86442  1.0000
  N   N22       1.0  0.33266  0.46715  0.80405  1.0000
  C   C304      1.0  0.41321  0.45828  0.82083  1.0000
  H   H374      1.0  0.12037  0.15290  0.79610  1.0000
  H   H375      1.0  0.34939  0.32432  0.77371  1.0000
  C   C305      1.0  0.09192  0.38726  0.98375  1.0000
  H   H376      1.0  0.14161  0.01829  0.84126  1.0000
  H   H377      1.0  0.15156  0.15883  0.79649  1.0000
  H   H378      1.0  0.28980  0.32995  0.92922  1.0000
  H   H379      1.0  0.28266  0.37502  0.98836  1.0000
  H   H380      1.0  0.13381  0.16541  0.82115  1.0000
  H   H381      1.0  0.40781  0.47092  0.85572  1.0000
  H   H382      1.0  0.32273  0.34350  0.96790  1.0000
  C   C306      1.0  0.37377  0.34042  0.82496  1.0000
  H   H383      1.0  0.36222  0.44536  0.81380  1.0000
  C   C307      1.0  0.15547  0.04439  0.77940  1.0000
  H   H384      1.0  0.30912  0.35460  0.93269  1.0000
  H   H385      1.0  0.29954  0.38362  0.96326  1.0000
  N   N23       1.0  0.28561  0.34854  0.96171  1.0000
  C   C308      1.0  0.30545  0.33705  0.97416  1.0000
  C   C309      1.0  0.29116  0.34802  0.93635  1.0000
  C   C310      1.0  0.28410  0.37334  0.96910  1.0000
  C   C311      1.0  0.26302  0.33713  0.96721  1.0000
  C   C312      1.0  0.25778  0.32962  0.99029  1.0000
  C   C313      1.0  0.24473  0.33537  0.95043  1.0000
  C   C314      1.0  0.05682  0.02273  0.95646  1.0000
  C   C315      1.0  0.38262  0.43708  0.98143  1.0000
  C   C316      1.0  0.37667  0.35809  0.99911  1.0000
  H   H386      1.0  0.30565  0.34070  0.99321  1.0000
  C   C317      1.0  0.41157  0.41600  0.00413  1.0000
  C   C318      1.0  0.35122  0.45980  0.82066  1.0000
  C   C319      1.0  0.14752  0.03318  0.90685  1.0000
  H   H387      1.0  0.33846  0.33745  0.81269  1.0000
  H   H388      1.0  0.36274  0.47481  0.82522  1.0000
  N   N24       1.0  0.12979  0.18942  0.79209  1.0000
  H   H389      1.0  0.14923  0.03737  0.92519  1.0000
  H   H390      1.0  0.27039  0.33109  0.00425  1.0000
  C   C320      1.0  0.08962  0.01310  0.93177  1.0000
  H   H391      1.0  0.13960  0.03947  0.78953  1.0000
  S   S97       1.0  0.02560  0.14298  0.86742  1.0000
  H   H392      1.0  0.20132  0.31182  0.98345  1.0000
  C   C321      1.0  0.11933  0.41773  0.97515  1.0000
  C   C322      1.0  0.03688  0.30919  0.93492  1.0000
  H   H393      1.0  0.42589  0.30057  0.76493  1.0000
  H   H394      1.0  0.12036  0.41117  0.95689  1.0000
  C   C323      1.0  0.01505  0.31940  0.93053  1.0000
  H   H395      1.0  0.07430  0.38230  0.99028  1.0000
  H   H396      1.0  0.10224  0.21528  0.79465  1.0000
  H   H397      1.0  0.14818  0.20373  0.82187  1.0000
  H   H398      1.0  0.16538  0.20108  0.79585  1.0000
  H   H399      1.0  0.05715  0.19002  0.88841  1.0000
  C   C324      1.0  0.05846  0.23635  0.89398  1.0000
  C   C325      1.0  0.41704  0.48801  0.79083  1.0000
  H   H400      1.0  0.04043  0.25589  0.85627  1.0000
  C   C326      1.0  0.10627  0.19694  0.79987  1.0000
  C   C327      1.0  0.14751  0.11103  0.78055  1.0000
  H   H401      1.0  0.41865  0.45067  0.78453  1.0000
  C   C328      1.0  0.41436  0.50628  0.80743  1.0000
  H   H402      1.0  0.05144  0.25420  0.89742  1.0000
  H   H403      1.0  0.20918  0.32525  0.94314  1.0000
  H   H404      1.0  0.18322  0.11857  0.77090  1.0000
  H   H405      1.0  0.12621  0.22846  0.76397  1.0000
  C   C329      1.0  0.03909  0.28494  0.93664  1.0000
  H   H406      1.0  0.03457  0.32602  0.85754  1.0000
  H   H407      1.0  0.03503  0.22903  0.84015  1.0000
  C   C330      1.0  0.14759  0.20527  0.80247  1.0000
  C   C331      1.0  0.40372  0.42498  0.98278  1.0000
  C   C332      1.0  0.01234  0.35477  0.86762  1.0000
  C   C333      1.0  0.01953  0.27072  0.93338  1.0000
  C   C334      1.0  0.36326  0.32755  0.78612  1.0000
  H   H408      1.0  0.41353  0.42171  0.96692  1.0000
  C   C335      1.0  0.04587  0.23726  0.85408  1.0000
  H   H409      1.0  0.15286  0.06293  0.77395  1.0000
  C   C336      1.0  0.12527  0.10469  0.77250  1.0000
  C   C337      1.0  0.21842  0.31869  0.97901  1.0000
  H   H410      1.0  0.24667  0.34142  0.93267  1.0000
  C   C338      1.0  0.40001  0.39386  0.77466  1.0000
  C   C339      1.0  0.39735  0.33861  0.81923  1.0000
  C   C340      1.0  0.34145  0.38114  0.99470  1.0000
  C   C341      1.0  0.22287  0.32619  0.95631  1.0000
  H   H411      1.0  0.07703  0.41787  0.95342  1.0000
  H   H412      1.0  0.30994  0.47639  0.83270  1.0000
  H   H413      1.0  0.09244  0.18541  0.79238  1.0000
  C   C342      1.0  0.37740  0.39098  0.76574  1.0000
  C   C343      1.0  0.05475  0.20043  0.87215  1.0000
  C   C344      1.0  0.07787  0.42490  0.97159  1.0000
  H   H414      1.0  0.30417  0.45120  0.78529  1.0000
  H   H415      1.0  0.05917  0.22675  0.91090  1.0000
  H   H416      1.0  0.42260  0.33098  0.79353  1.0000
  H   H417      1.0  0.41297  0.44000  0.82602  1.0000
  H   H418      1.0  0.01474  0.33828  0.92918  1.0000
  H   H419      1.0  0.41998  0.49186  0.77258  1.0000
  H   H420      1.0  0.32736  0.49991  0.82211  1.0000
  C   C345      1.0  0.07531  0.02980  0.94234  1.0000
  H   H421      1.0  0.30965  0.43871  0.81372  1.0000
  H   H422      1.0  0.30516  0.31772  0.97159  1.0000
  C   C346      1.0  0.38712  0.32523  0.77973  1.0000
  C   C347      1.0  0.35677  0.33498  0.80842  1.0000
  C   C348      1.0  0.41092  0.49938  0.83107  1.0000
  H   H423      1.0  0.32860  0.43214  0.79014  1.0000
  H   H424      1.0  0.40877  0.51190  0.84499  1.0000
  C   C349      1.0  0.40406  0.33125  0.79695  1.0000
  H   H425      1.0  0.41049  0.34362  0.83194  1.0000
  H   H426      1.0  0.10330  0.45799  0.00081  1.0000
  H   H427      1.0  0.32496  0.38726  0.00157  1.0000
  H   H428      1.0  0.07879  0.04834  0.93960  1.0000
  C   C350      1.0  0.36232  0.51173  0.87805  1.0000
  H   H429      1.0  0.42764  0.40605  0.00404  1.0000
  C   C351      1.0  0.35514  0.36555  0.00796  1.0000
  H   H430      1.0  0.10394  0.01965  0.92141  1.0000
  C   C352      1.0  0.01993  0.22147  0.88504  1.0000
  C   C353      1.0  0.13096  0.19051  0.76626  1.0000
  C   C354      1.0  0.16616  0.11327  0.76466  1.0000
  C   C355      1.0  0.38235  0.50646  0.89110  1.0000
  C   C356      1.0  0.33850  0.49960  0.77391  1.0000
  C   C357      1.0  0.35913  0.46274  0.76932  1.0000
  H   H431      1.0  0.38721  0.34578  0.00896  1.0000
  H   H432      1.0  0.35260  0.44926  0.00017  1.0000
  H   H433      1.0  0.32668  0.51145  0.78260  1.0000
  Fe  Fe49      1.0  0.10663  0.84928  0.10654  1.0000
  S   S98       1.0  0.10778  0.82269  0.07764  1.0000
  S   S99       1.0  0.07217  0.86911  0.10949  1.0000
  Fe  Fe50      1.0  0.15702  0.83913  0.12076  1.0000
  S   S100      1.0  0.16076  0.81097  0.09375  1.0000
  S   S101      1.0  0.18886  0.84566  0.14386  1.0000
  Fe  Fe51      1.0  0.14345  0.83683  0.06953  1.0000
  S   S102      1.0  0.16185  0.83957  0.03437  1.0000
  Fe  Fe52      1.0  0.12494  0.79922  0.10431  1.0000
  S   S103      1.0  0.11094  0.76178  0.10399  1.0000
  S   S104      1.0  0.14126  0.86558  0.09617  1.0000
  S   S105      1.0  0.12215  0.82519  0.13361  1.0000
  Fe  Fe53      1.0  0.08532  0.59896  0.16717  1.0000
  S   S106      1.0  0.06148  0.59357  0.19762  1.0000
  S   S107      1.0  0.08912  0.56887  0.14153  1.0000
  Fe  Fe54      1.0  0.09846  0.64860  0.18304  1.0000
  S   S108      1.0  0.07585  0.64608  0.21507  1.0000
  S   S109      1.0  0.12171  0.68088  0.18037  1.0000
  Fe  Fe55      1.0  0.09022  0.60958  0.21923  1.0000
  N   N25       1.0  0.01537  0.56910  0.13892  1.0000
  Fe  Fe56      1.0  0.04929  0.63040  0.19042  1.0000
  H   H434      1.0  0.06456  0.77406  0.16406  1.0000
  S   S110      1.0  0.11459  0.61302  0.18883  1.0000
  S   S111      1.0  0.07112  0.63498  0.15817  1.0000
  Fe  Fe57      1.0  0.30729  0.91840  0.13491  1.0000
  S   S112      1.0  0.33470  0.89056  0.13050  1.0000
  S   S113      1.0  0.27220  0.91450  0.11614  1.0000
  Fe  Fe58      1.0  0.34308  0.95374  0.15554  1.0000
  S   S114      1.0  0.37295  0.92856  0.15127  1.0000
  S   S115      1.0  0.34725  0.98823  0.17529  1.0000
  Fe  Fe59      1.0  0.35694  0.91953  0.11637  1.0000
  S   S116      1.0  0.37711  0.91666  0.08236  1.0000
  Fe  Fe60      1.0  0.34807  0.90192  0.16585  1.0000
  S   S117      1.0  0.36095  0.87571  0.19289  1.0000
  S   S118      1.0  0.32927  0.94732  0.11940  1.0000
  S   S119      1.0  0.31854  0.92726  0.17168  1.0000
  C   C358      1.0  0.37596  0.88011  0.02141  1.0000
  N   N26       1.0  0.23509  0.81109  0.08187  1.0000
  C   C359      1.0  0.32292  0.84364  0.24354  1.0000
  H   H435      1.0  0.44445  0.95866  0.22356  1.0000
  N   N27       1.0  0.31096  0.94325  0.04679  1.0000
  C   C360      1.0  0.35790  0.86394  0.02476  1.0000
  C   C361      1.0  0.34618  0.86347  0.04627  1.0000
  C   C362      1.0  0.35235  0.87902  0.06429  1.0000
  C   C363      1.0  0.37021  0.89540  0.06090  1.0000
  C   C364      1.0  0.38204  0.89580  0.03941  1.0000
  H   H436      1.0  0.15678  0.60069  0.25099  1.0000
  H   H437      1.0  0.33236  0.85086  0.04899  1.0000
  H   H438      1.0  0.34315  0.87852  0.08071  1.0000
  H   H439      1.0  0.39590  0.90839  0.03663  1.0000
  H   H440      1.0  0.20234  0.82478  0.06860  1.0000
  C   C365      1.0  0.37078  0.90898  0.22645  1.0000
  C   C366      1.0  0.37453  0.88609  0.21866  1.0000
  C   C367      1.0  0.38859  0.87093  0.23207  1.0000
  H   H441      1.0  0.35963  0.92058  0.21642  1.0000
  H   H442      1.0  0.39169  0.85324  0.22605  1.0000
  H   H443      1.0  0.04540  0.74762  0.13730  1.0000
  H   H444      1.0  0.30225  0.96515  0.07623  1.0000
  H   H445      1.0  0.21920  0.84544  0.08459  1.0000
  H   H446      1.0  0.01818  0.63992  0.14298  1.0000
  C   C368      1.0  0.01197  0.81080  0.13377  1.0000
  H   H447      1.0  0.04377  0.84337  0.18675  1.0000
  H   H448      1.0  0.16919  0.63738  0.15118  1.0000
  C   C369      1.0  0.23932  0.88650  0.03901  1.0000
  C   C370      1.0  0.11361  0.73996  0.12596  1.0000
  C   C371      1.0  0.10185  0.71852  0.12292  1.0000
  C   C372      1.0  0.10374  0.70046  0.13966  1.0000
  C   C373      1.0  0.11760  0.70362  0.15956  1.0000
  C   C374      1.0  0.12919  0.72514  0.16270  1.0000
  C   C375      1.0  0.12708  0.74332  0.14607  1.0000
  H   H449      1.0  0.09162  0.71568  0.10727  1.0000
  H   H450      1.0  0.09510  0.68385  0.13682  1.0000
  H   H451      1.0  0.14001  0.72772  0.17800  1.0000
  H   H452      1.0  0.13623  0.75972  0.14861  1.0000
  C   C376      1.0  0.21123  0.86598  0.13676  1.0000
  C   C377      1.0  0.23138  0.86712  0.15087  1.0000
  C   C378      1.0  0.25007  0.88216  0.14507  1.0000
  C   C379      1.0  0.24872  0.89630  0.12510  1.0000
  C   C380      1.0  0.22841  0.89543  0.11122  1.0000
  C   C381      1.0  0.20979  0.88033  0.11696  1.0000
  H   H453      1.0  0.23262  0.85614  0.16626  1.0000
  H   H454      1.0  0.26555  0.88270  0.15596  1.0000
  H   H455      1.0  0.22705  0.90653  0.09594  1.0000
  H   H456      1.0  0.19430  0.87981  0.10609  1.0000
  C   C382      1.0  0.05145  0.86637  0.13231  1.0000
  C   C383      1.0  0.05664  0.85451  0.15310  1.0000
  C   C384      1.0  0.03959  0.85253  0.17072  1.0000
  H   H457      1.0  0.32913  0.90930  0.01792  1.0000
  C   C385      1.0  0.02911  0.87627  0.12938  1.0000
  H   H458      1.0  0.07390  0.84721  0.15571  1.0000
  H   H459      1.0  0.29223  0.86475  0.05567  1.0000
  C   C386      1.0  0.12061  0.54582  0.17027  1.0000
  C   C387      1.0  0.10725  0.54502  0.14981  1.0000
  H   H460      1.0  0.27692  0.79585  0.06030  1.0000
  H   H461      1.0  0.11977  0.56105  0.18142  1.0000
  H   H462      1.0  0.41968  0.93925  0.22384  1.0000
  N   N28       1.0  0.16909  0.63129  0.23249  1.0000
  H   H463      1.0  0.31626  0.80987  0.06790  1.0000
  C   C388      1.0  0.33018  0.88225  0.25889  1.0000
  H   H464      1.0  0.42304  0.01045  0.18151  1.0000
  C   C389      1.0  0.13748  0.87730  0.01539  1.0000
  H   H465      1.0  0.14576  0.52792  0.19200  1.0000
  H   H466      1.0  0.37716  0.93394  0.25402  1.0000
  H   H467      1.0  0.37558  0.99702  0.13366  1.0000
  S   S120      1.0  0.10371  0.58820  0.25017  1.0000
  C   C390      1.0  0.17152  0.60169  0.16314  1.0000
  H   H468      1.0  0.40600  0.94947  0.18728  1.0000
  C   C391      1.0  0.30569  0.92192  0.06067  1.0000
  H   H469      1.0  0.33849  0.95648  0.25647  1.0000
  H   H470      1.0  0.32352  0.84120  0.09679  1.0000
  C   C392      1.0  0.01626  0.77822  0.16070  1.0000
  C   C393      1.0  0.01725  0.86246  0.16776  1.0000
  H   H471      1.0  0.38602  0.97650  0.24175  1.0000
  H   H472      1.0  0.13000  0.87988  0.03253  1.0000
  H   H473      1.0  0.18600  0.66414  0.22386  1.0000
  H   H474      1.0  0.05783  0.81875  0.11700  1.0000
  H   H475      1.0  0.31531  0.90633  0.05444  1.0000
  C   C394      1.0  0.17058  0.62079  0.20890  1.0000
  C   C395      1.0  0.42124  0.99907  0.21823  1.0000
  C   C396      1.0  0.30529  0.93908  0.02189  1.0000
  C   C397      1.0  0.39894  0.87864  0.25306  1.0000
  C   C398      1.0  0.18805  0.64875  0.23566  1.0000
  H   H476      1.0  0.04232  0.79962  0.09713  1.0000
  H   H477      1.0  0.32975  0.98945  0.22961  1.0000
  C   C399      1.0  0.33620  0.94878  0.04909  1.0000
  H   H478      1.0  0.22283  0.81852  0.11694  1.0000
  H   H479      1.0  0.37824  0.95832  0.21739  1.0000
  H   H480      1.0  0.02576  0.76351  0.16798  1.0000
  C   C400      1.0  0.02557  0.79151  0.14188  1.0000
  H   H481      1.0  0.22789  0.83720  0.05560  1.0000
  H   H482      1.0  0.28669  0.91785  0.06026  1.0000
  H   H483      1.0  0.34133  0.95207  0.06758  1.0000
  H   H484      1.0  0.04045  0.54195  0.12972  1.0000
  C   C401      1.0  0.02813  0.54687  0.14385  1.0000
  H   H485      1.0  0.20546  0.64075  0.23219  1.0000
  H   H486      1.0  0.25521  0.87900  0.07246  1.0000
  C   C402      1.0  0.22532  0.80362  0.10471  1.0000
  H   H487      1.0  0.21444  0.78509  0.06380  1.0000
  H   H488      1.0  0.19421  0.88394  0.01922  1.0000
  C   C403      1.0  0.30164  0.81755  0.07722  1.0000
  H   H489      1.0  0.42356  0.95926  0.24697  1.0000
  H   H490      1.0  0.29031  0.85946  0.11763  1.0000
  H   H491      1.0  0.27851  0.95969  0.05687  1.0000
  H   H492      1.0  0.03960  0.54843  0.15956  1.0000
  H   H493      1.0  0.31331  0.87561  0.22596  1.0000
  H   H494      1.0  0.42994  0.96899  0.18197  1.0000
  H   H495      1.0  0.30166  0.97993  0.04872  1.0000
  C   C404      1.0  0.25944  0.81934  0.08517  1.0000
  H   H496      1.0  0.24311  0.77551  0.07200  1.0000
  H   H497      1.0  0.16819  0.65418  0.19013  1.0000
  H   H498      1.0  0.09821  0.52422  0.11974  1.0000
  H   H499      1.0  0.02374  0.60352  0.12616  1.0000
  H   H500      1.0  0.32934  0.90112  0.25686  1.0000
  H   H501      1.0  0.39992  0.97868  0.17864  1.0000
  C   C405      1.0  0.15265  0.85846  0.01153  1.0000
  C   C406      1.0  0.10845  0.52497  0.13562  1.0000
  H   H502      1.0  0.23887  0.79566  0.04771  1.0000
  C   C407      1.0  0.01993  0.69543  0.16676  1.0000
  H   H503      1.0  0.03255  0.75820  0.11047  1.0000
  C   C408      1.0  0.13530  0.52695  0.17628  1.0000
  N   N29       1.0  0.04837  0.78503  0.13153  1.0000
  H   H504      1.0  0.07232  0.79458  0.10397  1.0000
  C   C409      1.0  0.06702  0.78671  0.14951  1.0000
  C   C410      1.0  0.04731  0.76054  0.12291  1.0000
  H   H505      1.0  0.02040  0.87030  0.23931  1.0000
  H   H506      1.0  0.04931  0.69823  0.11555  1.0000
  C   C411      1.0  0.30580  0.83527  0.09343  1.0000
  C   C412      1.0  0.42433  0.00770  0.24128  1.0000
  H   H507      1.0  0.22352  0.89232  0.04753  1.0000
  C   C413      1.0  0.41205  0.96791  0.18947  1.0000
  C   C414      1.0  0.03483  0.69950  0.12768  1.0000
  H   H508      1.0  0.01788  0.82247  0.12012  1.0000
  H   H509      1.0  0.14464  0.65192  0.25247  1.0000
  H   H510      1.0  0.06769  0.80461  0.15713  1.0000
  H   H511      1.0  0.08461  0.78293  0.14206  1.0000
  C   C415      1.0  0.16999  0.63535  0.18873  1.0000
  H   H512      1.0  0.31632  0.83263  0.22960  1.0000
  H   H513      1.0  0.06359  0.75552  0.11359  1.0000
  H   H514      1.0  0.04374  0.58126  0.11726  1.0000
  C   C416      1.0  0.28713  0.84546  0.10519  1.0000
  C   C417      1.0  0.26433  0.83765  0.10115  1.0000
  H   H515      1.0  0.20777  0.79543  0.10285  1.0000
  C   C418      1.0  0.17116  0.61383  0.25171  1.0000
  C   C419      1.0  0.25737  0.87868  0.05364  1.0000
  N   N30       1.0  0.41181  0.97521  0.21437  1.0000
  C   C420      1.0  0.27883  0.80965  0.07301  1.0000
  C   C421      1.0  0.05533  0.80019  0.11157  1.0000
  C   C422      1.0  0.33539  0.99298  0.24742  1.0000
  C   C423      1.0  0.38727  0.97478  0.22248  1.0000
  C   C424      1.0  0.22060  0.83048  0.07230  1.0000
  H   H516      1.0  0.23691  0.79063  0.11353  1.0000
  C   C425      1.0  0.42549  0.95749  0.22775  1.0000
  C   C426      1.0  0.29770  0.96292  0.05742  1.0000
  C   C427      1.0  0.03844  0.69405  0.15112  1.0000
  H   H517      1.0  0.25045  0.84599  0.11075  1.0000
  S   S121      1.0  0.01092  0.64058  0.19329  1.0000
  H   H518      1.0  0.14337  0.65719  0.22172  1.0000
  C   C428      1.0  0.23297  0.79094  0.06562  1.0000
  H   H519      1.0  0.13154  0.63066  0.23356  1.0000
  H   H520      1.0  0.18819  0.60441  0.25116  1.0000
  H   H521      1.0  0.31062  0.92399  0.07934  1.0000
  H   H522      1.0  0.05554  0.68847  0.15722  1.0000
  H   H523      1.0  0.37709  0.98947  0.21462  1.0000
  H   H524      1.0  0.34753  0.93421  0.04309  1.0000
  H   H525      1.0  0.20205  0.91449  0.02268  1.0000
  C   C429      1.0  0.14625  0.64333  0.23513  1.0000
  H   H526      1.0  0.27991  0.96765  0.01694  1.0000
  H   H527      1.0  0.02269  0.69054  0.18490  1.0000
  C   C430      1.0  0.17044  0.62588  0.16625  1.0000
  H   H528      1.0  0.04448  0.59166  0.14664  1.0000
  H   H529      1.0  0.17124  0.59435  0.14570  1.0000
  H   H530      1.0  0.34098  0.96455  0.03869  1.0000
  H   H531      1.0  0.17192  0.58358  0.21922  1.0000
  H   H532      1.0  0.02500  0.88559  0.11340  1.0000
  C   C431      1.0  0.27833  0.87071  0.04424  1.0000
  C   C432      1.0  0.17230  0.58687  0.18251  1.0000
  H   H533      1.0  0.18833  0.65588  0.25375  1.0000
  C   C433      1.0  0.17186  0.59615  0.20510  1.0000
  C   C434      1.0  0.38062  0.91646  0.24772  1.0000
  H   H534      1.0  0.17263  0.56802  0.17995  1.0000
  H   H535      1.0  0.01683  0.57678  0.17596  1.0000
  C   C435      1.0  0.32109  0.86790  0.24148  1.0000
  C   C436      1.0  0.03256  0.58718  0.13199  1.0000
  C   C437      1.0  0.37724  0.01188  0.14525  1.0000
  H   H536      1.0  0.02186  0.54670  0.09675  1.0000
  H   H537      1.0  0.42055  0.99688  0.25632  1.0000
  C   C438      1.0  0.01639  0.87351  0.25812  1.0000
  C   C439      1.0  0.28164  0.87100  0.02020  1.0000
  C   C440      1.0  0.24196  0.88672  0.01431  1.0000
  C   C441      1.0  0.01206  0.87432  0.14699  1.0000
  H   H538      1.0  0.29818  0.86506  0.01296  1.0000
  H   H539      1.0  0.01578  0.53211  0.14678  1.0000
  H   H540      1.0  0.01091  0.71093  0.10157  1.0000
  C   C442      1.0  0.01270  0.70652  0.11983  1.0000
  C   C443      1.0  0.20077  0.89984  0.00997  1.0000
  Fe  Fe61      1.0  0.42373  0.90146  0.37088  1.0000
  S   S122      1.0  0.44794  0.90978  0.34125  1.0000
  S   S123      1.0  0.41515  0.93011  0.39701  1.0000
  Fe  Fe62      1.0  0.41613  0.85099  0.35447  1.0000
  S   S124      1.0  0.43904  0.85647  0.32300  1.0000
  S   S125      1.0  0.39735  0.81575  0.35633  1.0000
  Fe  Fe63      1.0  0.46357  0.87418  0.34834  1.0000
  S   S126      1.0  0.50197  0.86375  0.34538  1.0000
  Fe  Fe64      1.0  0.42124  0.89143  0.31881  1.0000
  S   S127      1.0  0.40644  0.91193  0.28770  1.0000
  S   S128      1.0  0.44144  0.86700  0.37994  1.0000
  S   S129      1.0  0.39635  0.88470  0.34837  1.0000
  Fe  Fe65      1.0  0.16275  0.57414  0.41904  1.0000
  S   S130      1.0  0.19259  0.54903  0.41635  1.0000
  S   S131      1.0  0.14027  0.57578  0.45155  1.0000
  Fe  Fe66      1.0  0.16974  0.59149  0.36927  1.0000
  S   S132      1.0  0.20096  0.56804  0.36330  1.0000
  S   S133      1.0  0.15448  0.61881  0.34442  1.0000
  Fe  Fe67      1.0  0.17872  0.54034  0.38085  1.0000
  H   H541      1.0  0.35111  0.86688  0.32499  1.0000
  Fe  Fe68      1.0  0.21238  0.57868  0.39959  1.0000
  S   S134      1.0  0.24750  0.58403  0.41795  1.0000
  S   S135      1.0  0.14706  0.56325  0.38464  1.0000
  S   S136      1.0  0.18292  0.60428  0.40422  1.0000
  Fe  Fe69      1.0  0.35985  0.66223  0.42198  1.0000
  S   S137      1.0  0.35252  0.69099  0.44773  1.0000
  S   S138      1.0  0.33412  0.65040  0.39398  1.0000
  Fe  Fe70      1.0  0.40917  0.65435  0.44019  1.0000
  S   S139      1.0  0.40533  0.68165  0.46811  1.0000
  S   S140      1.0  0.44267  0.63308  0.43777  1.0000
  Fe  Fe71      1.0  0.36949  0.66675  0.47396  1.0000
  C   C444      1.0  0.24045  0.61402  0.50294  1.0000
  Fe  Fe72      1.0  0.38889  0.70380  0.43980  1.0000
  S   S141      1.0  0.40246  0.74140  0.43952  1.0000
  S   S142      1.0  0.37462  0.63732  0.44863  1.0000
  S   S143      1.0  0.39499  0.67724  0.41158  1.0000
  C   C445      1.0  0.30962  0.63268  0.40113  1.0000
  C   C446      1.0  0.29137  0.62997  0.38483  1.0000
  C   C447      1.0  0.27198  0.61549  0.38977  1.0000
  C   C448      1.0  0.27091  0.60321  0.41093  1.0000
  C   C449      1.0  0.28930  0.60573  0.42708  1.0000
  C   C450      1.0  0.30841  0.62056  0.42236  1.0000
  H   H542      1.0  0.29216  0.63923  0.36834  1.0000
  H   H543      1.0  0.25802  0.61363  0.37714  1.0000
  H   H544      1.0  0.28873  0.59616  0.44340  1.0000
  H   H545      1.0  0.32233  0.62238  0.43504  1.0000
  C   C451      1.0  0.16867  0.60844  0.47314  1.0000
  C   C452      1.0  0.14833  0.59492  0.47442  1.0000
  H   H546      1.0  0.22380  0.60538  0.50087  1.0000
  H   H547      1.0  0.18003  0.60695  0.45815  1.0000
  H   H548      1.0  0.38864  0.83708  0.28202  1.0000
  H   H549      1.0  0.13431  0.52378  0.45738  1.0000
  C   C453      1.0  0.28357  0.63703  0.50484  1.0000
  H   H550      1.0  0.34848  0.60611  0.36780  1.0000
  C   C454      1.0  0.48936  0.81024  0.37981  1.0000
  C   C455      1.0  0.34038  0.97440  0.26247  1.0000
  H   H551      1.0  0.47213  0.61229  0.33971  1.0000
  C   C456      1.0  0.45458  0.60939  0.34632  1.0000
  C   C457      1.0  0.39968  0.79506  0.37938  1.0000
  C   C458      1.0  0.38889  0.77304  0.37689  1.0000
  C   C459      1.0  0.38969  0.75633  0.39505  1.0000
  C   C460      1.0  0.40112  0.76161  0.41598  1.0000
  C   C461      1.0  0.41217  0.78351  0.41836  1.0000
  C   C462      1.0  0.41157  0.80014  0.40012  1.0000
  H   H552      1.0  0.37964  0.76896  0.36092  1.0000
  H   H553      1.0  0.38111  0.73955  0.39301  1.0000
  H   H554      1.0  0.42098  0.78779  0.43453  1.0000
  H   H555      1.0  0.41984  0.81704  0.40230  1.0000
  C   C463      1.0  0.39863  0.95462  0.38748  1.0000
  C   C464      1.0  0.38610  0.95409  0.36649  1.0000
  C   C465      1.0  0.37179  0.97313  0.36006  1.0000
  C   C466      1.0  0.37015  0.99305  0.37433  1.0000
  C   C467      1.0  0.38312  0.99391  0.39505  1.0000
  C   C468      1.0  0.39719  0.97467  0.40165  1.0000
  H   H556      1.0  0.38712  0.93880  0.35541  1.0000
  H   H557      1.0  0.36179  0.97227  0.34405  1.0000
  H   H558      1.0  0.48763  0.83632  0.40663  1.0000
  H   H559      1.0  0.40684  0.97519  0.41792  1.0000
  H   H560      1.0  0.42760  0.58727  0.39390  1.0000
  C   C469      1.0  0.48582  0.62690  0.41777  1.0000
  C   C470      1.0  0.46363  0.63728  0.41550  1.0000
  C   C471      1.0  0.45844  0.65026  0.39542  1.0000
  C   C472      1.0  0.47525  0.65269  0.37771  1.0000
  H   H561      1.0  0.47299  0.70760  0.44761  1.0000
  H   H562      1.0  0.48992  0.61675  0.43325  1.0000
  H   H563      1.0  0.44126  0.65785  0.39325  1.0000
  C   C473      1.0  0.11658  0.59728  0.27682  1.0000
  C   C474      1.0  0.12713  0.58024  0.29118  1.0000
  C   C475      1.0  0.13863  0.58659  0.31197  1.0000
  C   C476      1.0  0.13972  0.61012  0.31863  1.0000
  C   C477      1.0  0.12903  0.62721  0.30438  1.0000
  C   C478      1.0  0.11740  0.62082  0.28361  1.0000
  H   H564      1.0  0.12653  0.56199  0.28611  1.0000
  H   H565      1.0  0.14675  0.57327  0.32279  1.0000
  H   H566      1.0  0.12967  0.64544  0.30949  1.0000
  H   H567      1.0  0.46662  0.59299  0.37789  1.0000
  H   H568      1.0  0.47332  0.81609  0.37143  1.0000
  H   H569      1.0  0.47098  0.66244  0.36204  1.0000
  H   H570      1.0  0.18972  0.63497  0.48980  1.0000
  H   H571      1.0  0.35619  0.83965  0.33891  1.0000
  H   H572      1.0  0.39621  0.60435  0.41044  1.0000
  C   C479      1.0  0.36596  0.60886  0.35960  1.0000
  N   N31       1.0  0.12159  0.64606  0.40523  1.0000
  C   C480      1.0  0.10746  0.65255  0.38438  1.0000
  C   C481      1.0  0.14561  0.65517  0.40150  1.0000
  C   C482      1.0  0.12245  0.62010  0.40634  1.0000
  C   C483      1.0  0.11224  0.65528  0.42748  1.0000
  C   C484      1.0  0.12416  0.65075  0.44881  1.0000
  C   C485      1.0  0.09131  0.66871  0.42882  1.0000
  C   C486      1.0  0.11582  0.65921  0.47008  1.0000
  C   C487      1.0  0.08307  0.67704  0.45025  1.0000
  C   C488      1.0  0.09530  0.67231  0.47081  1.0000
  H   H573      1.0  0.10655  0.67190  0.38201  1.0000
  H   H574      1.0  0.11523  0.64534  0.36802  1.0000
  H   H575      1.0  0.08944  0.64526  0.38542  1.0000
  H   H576      1.0  0.14582  0.67467  0.40131  1.0000
  H   H577      1.0  0.15306  0.64902  0.38462  1.0000
  H   H578      1.0  0.15805  0.64926  0.41525  1.0000
  H   H579      1.0  0.10495  0.61254  0.41023  1.0000
  H   H580      1.0  0.12862  0.61241  0.38960  1.0000
  H   H581      1.0  0.13453  0.61368  0.42013  1.0000
  H   H582      1.0  0.14003  0.64048  0.44923  1.0000
  H   H583      1.0  0.08095  0.67293  0.41360  1.0000
  H   H584      1.0  0.49603  0.78342  0.35456  1.0000
  C   C489      1.0  0.35031  0.00198  0.29305  1.0000
  C   C490      1.0  0.50325  0.69554  0.41105  1.0000
  C   C491      1.0  0.21601  0.54716  0.47887  1.0000
  H   H585      1.0  0.30037  0.64593  0.50547  1.0000
  H   H586      1.0  0.33499  0.81469  0.26326  1.0000
  H   H587      1.0  0.45789  0.68711  0.42873  1.0000
  C   C492      1.0  0.34763  0.95952  0.42916  1.0000
  H   H588      1.0  0.24025  0.52612  0.45954  1.0000
  H   H589      1.0  0.39848  0.62098  0.33198  1.0000
  H   H590      1.0  0.50065  0.88493  0.39179  1.0000
  C   C493      1.0  0.46715  0.74527  0.42034  1.0000
  C   C494      1.0  0.18144  0.51452  0.46430  1.0000
  H   H591      1.0  0.36257  0.94806  0.43191  1.0000
  H   H592      1.0  0.35168  0.97711  0.46193  1.0000
  H   H593      1.0  0.22905  0.56012  0.48354  1.0000
  H   H594      1.0  0.08888  0.67872  0.48740  1.0000
  H   H595      1.0  0.36536  0.60018  0.34225  1.0000
  H   H596      1.0  0.36750  0.62820  0.35717  1.0000
  H   H597      1.0  0.46916  0.75770  0.40549  1.0000
  C   C495      1.0  0.33503  0.95826  0.40839  1.0000
  C   C496      1.0  0.22230  0.52793  0.46533  1.0000
  C   C497      1.0  0.17589  0.53373  0.47902  1.0000
  C   C498      1.0  0.30930  0.99028  0.42118  1.0000
  C   C499      1.0  0.32264  0.99121  0.44218  1.0000
  H   H598      1.0  0.44849  0.73072  0.38067  1.0000
  C   C500      1.0  0.17420  0.62421  0.49116  1.0000
  H   H599      1.0  0.39218  0.83613  0.31303  1.0000
  S   S144      1.0  0.35065  0.66231  0.50859  1.0000
  H   H600      1.0  0.45079  0.75055  0.42943  1.0000
  C   C501      1.0  0.49732  0.64202  0.37980  1.0000
  H   H601      1.0  0.01968  0.88140  0.30172  1.0000
  H   H602      1.0  0.02602  0.85986  0.26820  1.0000
  H   H603      1.0  0.38451  0.86310  0.29915  1.0000
  C   C502      1.0  0.45144  0.59844  0.36783  1.0000
  N   N32       1.0  0.35645  0.83781  0.30120  1.0000
  C   C503      1.0  0.35468  0.81186  0.30313  1.0000
  C   C504      1.0  0.38149  0.84383  0.29874  1.0000
  C   C505      1.0  0.34758  0.84781  0.32340  1.0000
  H   H604      1.0  0.34957  0.88436  0.29047  1.0000
  H   H605      1.0  0.30743  0.97213  0.38769  1.0000
  H   H606      1.0  0.15017  0.52338  0.43054  1.0000
  H   H607      1.0  0.26413  0.98053  0.42819  1.0000
  H   H608      1.0  0.12530  0.65547  0.48613  1.0000
  H   H609      1.0  0.28266  0.63624  0.46733  1.0000
  C   C506      1.0  0.27366  0.63152  0.48332  1.0000
  H   H610      1.0  0.36382  0.80514  0.31905  1.0000
  H   H611      1.0  0.48189  0.74819  0.43269  1.0000
  C   C507      1.0  0.19290  0.54989  0.48596  1.0000
  H   H612      1.0  0.36321  0.80292  0.28817  1.0000
  H   H613      1.0  0.11817  0.58643  0.49530  1.0000
  C   C508      1.0  0.44716  0.71786  0.39520  1.0000
  C   C509      1.0  0.34154  0.87242  0.27822  1.0000
  H   H614      1.0  0.44282  0.71143  0.44095  1.0000
  H   H615      1.0  0.02366  0.89111  0.26231  1.0000
  C   C510      1.0  0.34150  0.97599  0.44598  1.0000
  H   H616      1.0  0.10898  0.63404  0.27293  1.0000
  H   H617      1.0  0.38190  0.00909  0.40624  1.0000
  C   C511      1.0  0.34350  0.84774  0.28104  1.0000
  H   H618      1.0  0.32841  0.84504  0.32511  1.0000
  H   H619      1.0  0.43786  0.62612  0.31715  1.0000
  C   C512      1.0  0.31621  0.97342  0.40435  1.0000
  C   C513      1.0  0.13392  0.59687  0.49414  1.0000
  H   H620      1.0  0.42962  0.72071  0.40307  1.0000
  C   C514      1.0  0.49748  0.82164  0.39969  1.0000
  H   H621      1.0  0.34040  0.94590  0.39507  1.0000
  C   C515      1.0  0.48883  0.71382  0.40205  1.0000
  N   N33       1.0  0.46620  0.72045  0.41268  1.0000
  H   H622      1.0  0.33614  0.80610  0.30439  1.0000
  H   H623      1.0  0.06704  0.68718  0.45095  1.0000
  N   N34       1.0  0.38520  0.59949  0.37445  1.0000
  C   C516      1.0  0.45988  0.70596  0.43335  1.0000
  C   C517      1.0  0.38092  0.57407  0.37793  1.0000
  H   H624      1.0  0.35232  0.96436  0.29670  1.0000
  C   C518      1.0  0.40882  0.60309  0.36448  1.0000
  C   C519      1.0  0.41262  0.61424  0.34255  1.0000
  C   C520      1.0  0.42898  0.59537  0.37687  1.0000
  C   C521      1.0  0.43523  0.61730  0.33374  1.0000
  H   H625      1.0  0.36585  0.60962  0.40510  1.0000
  C   C522      1.0  0.38363  0.61137  0.39734  1.0000
  H   H626      1.0  0.38721  0.63042  0.39543  1.0000
  C   C523      1.0  0.50267  0.62930  0.40003  1.0000
  H   H627      1.0  0.38282  0.56433  0.36123  1.0000
  H   H628      1.0  0.36298  0.57072  0.38475  1.0000
  H   H629      1.0  0.39324  0.56618  0.39079  1.0000
  H   H630      1.0  0.44719  0.69999  0.38749  1.0000
  C   C524      1.0  0.33386  0.83357  0.26302  1.0000
  C   C525      1.0  0.25221  0.62000  0.48235  1.0000
  H   H631      1.0  0.31906  0.00369  0.45583  1.0000
  H   H632      1.0  0.41047  0.86717  0.26277  1.0000
  H   H633      1.0  0.24469  0.61566  0.46545  1.0000
  C   C526      1.0  0.50223  0.79187  0.37033  1.0000
  H   H634      1.0  0.15817  0.53691  0.48472  1.0000
  H   H635      1.0  0.25214  0.00318  0.40972  1.0000
  C   C527      1.0  0.34808  0.97889  0.28513  1.0000
  H   H636      1.0  0.35617  0.00413  0.31090  1.0000
  H   H637      1.0  0.26917  0.98020  0.39729  1.0000
  H   H638      1.0  0.49833  0.68503  0.42596  1.0000
  C   C528      1.0  0.26775  0.99184  0.41274  1.0000
  N   N35       1.0  0.28917  0.00601  0.41646  1.0000
  C   C529      1.0  0.39462  0.90132  0.26117  1.0000
  C   C530      1.0  0.49694  0.72567  0.38179  1.0000
  H   H639      1.0  0.16981  0.62216  0.26924  1.0000
  H   H640      1.0  0.48678  0.73958  0.37388  1.0000
  H   H641      1.0  0.18792  0.56495  0.49633  1.0000
  H   H642      1.0  0.29457  0.00907  0.37908  1.0000
  C   C531      1.0  0.14351  0.51209  0.44494  1.0000
  Fe  Fe73      1.0  0.11027  0.88057  0.71497  1.0000
  S   S145      1.0  0.13756  0.87503  0.68738  1.0000
  C   C532      1.0  0.09430  0.99787  0.61205  1.0000
  Fe  Fe74      1.0  0.07021  0.86450  0.68222  1.0000
  S   S146      1.0  0.09451  0.85833  0.65208  1.0000
  C   C533      1.0  0.01910  0.62182  0.64845  1.0000
  Fe  Fe75      1.0  0.11818  0.84157  0.67872  1.0000
  S   S147      1.0  0.13423  0.80510  0.67674  1.0000
  Fe  Fe76      1.0  0.11163  0.89226  0.66320  1.0000
  S   S148      1.0  0.12205  0.92065  0.63747  1.0000
  S   S149      1.0  0.09300  0.84586  0.70841  1.0000
  S   S150      1.0  0.08526  0.89968  0.69111  1.0000
  Fe  Fe77      1.0  0.12865  0.69312  0.59807  1.0000
  S   S151      1.0  0.12794  0.67014  0.62995  1.0000
  S   S152      1.0  0.11565  0.73086  0.59618  1.0000
  Fe  Fe78      1.0  0.14784  0.65326  0.56664  1.0000
  S   S153      1.0  0.14772  0.62729  0.59618  1.0000
  S   S154      1.0  0.16720  0.64699  0.53251  1.0000
  Fe  Fe79      1.0  0.11270  0.64317  0.60569  1.0000
  S   S155      1.0  0.08076  0.62071  0.61331  1.0000
  Fe  Fe80      1.0  0.16292  0.65644  0.61757  1.0000
  S   S156      1.0  0.19594  0.65503  0.63968  1.0000
  S   S157      1.0  0.11166  0.66684  0.57417  1.0000
  S   S158      1.0  0.16472  0.68184  0.58773  1.0000
  Fe  Fe81      1.0  0.30972  0.57689  0.63869  1.0000
  S   S159      1.0  0.33114  0.60938  0.63326  1.0000
  S   S160      1.0  0.27220  0.57482  0.62542  1.0000
  Fe  Fe82      1.0  0.35126  0.54884  0.65878  1.0000
  S   S161      1.0  0.37552  0.57940  0.65409  1.0000
  H   H643      1.0  0.01865  0.55363  0.69210  1.0000
  Fe  Fe83      1.0  0.34657  0.60112  0.66864  1.0000
  S   S162      1.0  0.35456  0.62940  0.69520  1.0000
  Fe  Fe84      1.0  0.35828  0.58473  0.61926  1.0000
  S   S163      1.0  0.38198  0.59084  0.58813  1.0000
  S   S164      1.0  0.32283  0.57053  0.67539  1.0000
  S   S165      1.0  0.33625  0.55232  0.62257  1.0000
  C   C534      1.0  0.37225  0.62113  0.71932  1.0000
  C   C535      1.0  0.38387  0.59955  0.71966  1.0000
  C   C536      1.0  0.37524  0.63656  0.73820  1.0000
  H   H644      1.0  0.38168  0.58745  0.70534  1.0000
  C   C537      1.0  0.13959  0.61249  0.51232  1.0000
  C   C538      1.0  0.35896  0.64111  0.52960  1.0000
  C   C539      1.0  0.34465  0.63762  0.54920  1.0000
  C   C540      1.0  0.35139  0.62205  0.56709  1.0000
  C   C541      1.0  0.37257  0.60990  0.56556  1.0000
  C   C542      1.0  0.38677  0.61318  0.54585  1.0000
  C   C543      1.0  0.37996  0.62866  0.52786  1.0000
  H   H645      1.0  0.32844  0.64726  0.55068  1.0000
  H   H646      1.0  0.34026  0.61961  0.58210  1.0000
  H   H647      1.0  0.40317  0.60384  0.54452  1.0000
  C   C544      1.0  0.02404  0.57030  0.69942  1.0000
  C   C545      1.0  0.16903  0.96308  0.75321  1.0000
  H   H648      1.0  0.05091  0.74836  0.65422  1.0000
  C   C546      1.0  0.23250  0.63444  0.56052  1.0000
  H   H649      1.0  0.44041  0.53977  0.59771  1.0000
  H   H650      1.0  0.16016  0.99802  0.63422  1.0000
  C   C547      1.0  0.05790  0.62940  0.63217  1.0000
  C   C548      1.0  0.03762  0.61556  0.63355  1.0000
  C   C549      1.0  0.05407  0.87217  0.74564  1.0000
  C   C550      1.0  0.04105  0.65585  0.66079  1.0000
  C   C551      1.0  0.05950  0.64966  0.64578  1.0000
  H   H651      1.0  0.03626  0.59985  0.62308  1.0000
  C   C552      1.0  0.36881  0.68064  0.59166  1.0000
  H   H652      1.0  0.07499  0.66047  0.64482  1.0000
  C   C553      1.0  0.21706  0.63272  0.63542  1.0000
  C   C554      1.0  0.23983  0.63575  0.64422  1.0000
  C   C555      1.0  0.25695  0.61820  0.64133  1.0000
  C   C556      1.0  0.25127  0.59728  0.62994  1.0000
  C   C557      1.0  0.22842  0.59418  0.62141  1.0000
  C   C558      1.0  0.21147  0.61190  0.62386  1.0000
  H   H653      1.0  0.24428  0.65170  0.65337  1.0000
  H   H654      1.0  0.27443  0.62072  0.64811  1.0000
  H   H655      1.0  0.22375  0.57789  0.61296  1.0000
  H   H656      1.0  0.19392  0.60918  0.61735  1.0000
  H   H657      1.0  0.39437  0.68338  0.53815  1.0000
  H   H658      1.0  0.39999  0.67238  0.66289  1.0000
  C   C559      1.0  0.12781  0.78466  0.65446  1.0000
  C   C560      1.0  0.13174  0.76070  0.65868  1.0000
  C   C561      1.0  0.12764  0.74398  0.64110  1.0000
  C   C562      1.0  0.11984  0.75114  0.61908  1.0000
  C   C563      1.0  0.11539  0.77505  0.61501  1.0000
  C   C564      1.0  0.11947  0.79178  0.63258  1.0000
  H   H659      1.0  0.13810  0.75509  0.67559  1.0000
  H   H660      1.0  0.13059  0.72556  0.64447  1.0000
  H   H661      1.0  0.10940  0.78071  0.59796  1.0000
  H   H662      1.0  0.11677  0.81022  0.62901  1.0000
  C   C565      1.0  0.13462  0.94601  0.64993  1.0000
  C   C566      1.0  0.14387  0.96375  0.63555  1.0000
  C   C567      1.0  0.15307  0.98446  0.64535  1.0000
  C   C568      1.0  0.15300  0.98750  0.66959  1.0000
  C   C569      1.0  0.14379  0.96971  0.68385  1.0000
  C   C570      1.0  0.13476  0.94905  0.67411  1.0000
  H   H663      1.0  0.14379  0.96148  0.61682  1.0000
  H   H664      1.0  0.37531  0.54076  0.58025  1.0000
  H   H665      1.0  0.14341  0.97188  0.70255  1.0000
  H   H666      1.0  0.12770  0.93553  0.68535  1.0000
  C   C571      1.0  0.06130  0.76420  0.64981  1.0000
  H   H667      1.0  0.35770  0.69366  0.55791  1.0000
  H   H668      1.0  0.05772  0.82300  0.65667  1.0000
  C   C572      1.0  0.04839  0.60470  0.69760  1.0000
  N   N36       1.0  0.04940  0.78625  0.65667  1.0000
  H   H669      1.0  0.08340  0.96415  0.62543  1.0000
  C   C573      1.0  0.01582  0.88905  0.74638  1.0000
  C   C574      1.0  0.25016  0.61928  0.52525  1.0000
  C   C575      1.0  0.41049  0.66909  0.56912  1.0000
  H   H670      1.0  0.08209  0.80440  0.66236  1.0000
  C   C576      1.0  0.25474  0.59838  0.56192  1.0000
  N   N37       1.0  0.23858  0.61285  0.54748  1.0000
  H   H671      1.0  0.22036  0.64576  0.55015  1.0000
  C   C577      1.0  0.04179  0.58302  0.68867  1.0000
  H   H672      1.0  0.06831  0.91634  0.75089  1.0000
  C   C578      1.0  0.40176  0.67632  0.64387  1.0000
  H   H673      1.0  0.04252  0.67144  0.67138  1.0000
  H   H674      1.0  0.41557  0.54675  0.58014  1.0000
  C   C579      1.0  0.09109  0.98817  0.65312  1.0000
  S   S166      1.0  0.03192  0.85402  0.68498  1.0000
  C   C580      1.0  0.03710  0.61388  0.71717  1.0000
  H   H675      1.0  0.05014  0.57635  0.67305  1.0000
  H   H676      1.0  0.06193  0.78586  0.69232  1.0000
  H   H677      1.0  0.03539  0.77014  0.68801  1.0000
  C   C581      1.0  0.40776  0.66395  0.59285  1.0000
  H   H678      1.0  0.09255  0.99158  0.59440  1.0000
  H   H679      1.0  0.04780  0.91571  0.72760  1.0000
  C   C582      1.0  0.02685  0.78842  0.64404  1.0000
  H   H680      1.0  0.07856  0.76225  0.65873  1.0000
  C   C583      1.0  0.40074  0.53374  0.62232  1.0000
  H   H681      1.0  0.24605  0.59119  0.57771  1.0000
  H   H682      1.0  0.35921  0.66374  0.65820  1.0000
  H   H683      1.0  0.34419  0.52504  0.74643  1.0000
  H   H684      1.0  0.06983  0.70703  0.58696  1.0000
  H   H685      1.0  0.17141  0.95035  0.73936  1.0000
  H   H686      1.0  0.40805  0.57719  0.73811  1.0000
  H   H687      1.0  0.42210  0.65526  0.60163  1.0000
  H   H688      1.0  0.39974  0.69560  0.64145  1.0000
  H   H689      1.0  0.35209  0.68521  0.59903  1.0000
  H   H690      1.0  0.40634  0.63237  0.62956  1.0000
  H   H691      1.0  0.08759  0.97539  0.66671  1.0000
  H   H692      1.0  0.41996  0.67166  0.63899  1.0000
  H   H693      1.0  0.26997  0.60848  0.56856  1.0000
  H   H694      1.0  0.24813  0.64509  0.56496  1.0000
  H   H695      1.0  0.06475  0.76385  0.63068  1.0000
  H   H696      1.0  0.38445  0.63222  0.65159  1.0000
  H   H697      1.0  0.07295  0.87365  0.75002  1.0000
  H   H698      1.0  0.01121  0.75722  0.65969  1.0000
  H   H699      1.0  0.04317  0.74018  0.59481  1.0000
  C   C584      1.0  0.09907  0.01047  0.65892  1.0000
  H   H700      1.0  0.34670  0.65935  0.63002  1.0000
  C   C585      1.0  0.38810  0.63783  0.63329  1.0000
  H   H701      1.0  0.37661  0.62753  0.62148  1.0000
  H   H702      1.0  0.22362  0.63030  0.57734  1.0000
  H   H703      1.0  0.03512  0.80168  0.68772  1.0000
  H   H704      1.0  0.43223  0.52081  0.57391  1.0000
  H   H705      1.0  0.41450  0.54044  0.63435  1.0000
  H   H706      1.0  0.01742  0.65813  0.60701  1.0000
  C   C586      1.0  0.42531  0.53188  0.58830  1.0000
  H   H707      1.0  0.07099  0.80651  0.63324  1.0000
  S   S167      1.0  0.36824  0.51880  0.67897  1.0000
  H   H708      1.0  0.06178  0.61481  0.68873  1.0000
  H   H709      1.0  0.20321  0.60957  0.53461  1.0000
  N   N38       1.0  0.19969  0.72548  0.65309  1.0000
  C   C587      1.0  0.21072  0.73152  0.67580  1.0000
  C   C588      1.0  0.17933  0.71022  0.65801  1.0000
  C   C589      1.0  0.21712  0.71193  0.63946  1.0000
  C   C590      1.0  0.19180  0.74622  0.63955  1.0000
  C   C591      1.0  0.18293  0.74349  0.61655  1.0000
  C   C592      1.0  0.19178  0.76934  0.64885  1.0000
  C   C593      1.0  0.17502  0.76267  0.60350  1.0000
  C   C594      1.0  0.18373  0.78840  0.63566  1.0000
  C   C595      1.0  0.17546  0.78509  0.61302  1.0000
  H   H710      1.0  0.19802  0.74002  0.68781  1.0000
  H   H711      1.0  0.21718  0.71558  0.68512  1.0000
  H   H712      1.0  0.22600  0.74335  0.67332  1.0000
  H   H713      1.0  0.18441  0.69445  0.66838  1.0000
  H   H714      1.0  0.17104  0.70356  0.64174  1.0000
  H   H715      1.0  0.16571  0.71978  0.66801  1.0000
  H   H716      1.0  0.23186  0.72325  0.63372  1.0000
  H   H717      1.0  0.22449  0.69701  0.64974  1.0000
  H   H718      1.0  0.20936  0.70364  0.62368  1.0000
  H   H719      1.0  0.18138  0.72639  0.60867  1.0000
  H   H720      1.0  0.19732  0.77318  0.66643  1.0000
  H   H721      1.0  0.16765  0.75995  0.58624  1.0000
  H   H722      1.0  0.18310  0.80576  0.64335  1.0000
  H   H723      1.0  0.16864  0.79983  0.60313  1.0000
  C   C596      1.0  0.05212  0.70373  0.59291  1.0000
  C   C597      1.0  0.03706  0.72238  0.59743  1.0000
  C   C598      1.0  0.39255  0.68002  0.55673  1.0000
  H   H724      1.0  0.21993  0.58249  0.53492  1.0000
  H   H725      1.0  0.42638  0.66414  0.56012  1.0000
  C   C599      1.0  0.06569  0.80590  0.65191  1.0000
  H   H726      1.0  0.35703  0.68810  0.63872  1.0000
  C   C600      1.0  0.37181  0.68583  0.56797  1.0000
  C   C601      1.0  0.02183  0.67634  0.60422  1.0000
  C   C602      1.0  0.36074  0.66896  0.63948  1.0000
  H   H727      1.0  0.05643  0.66629  0.59313  1.0000
  H   H728      1.0  0.03267  0.88033  0.64098  1.0000
  C   C603      1.0  0.38676  0.66941  0.60485  1.0000
  H   H729      1.0  0.12827  0.61400  0.52736  1.0000
  C   C604      1.0  0.01911  0.60129  0.72877  1.0000
  C   C605      1.0  0.02199  0.80693  0.62800  1.0000
  N   N39       1.0  0.38420  0.66333  0.62989  1.0000
  C   C606      1.0  0.08870  0.98189  0.62976  1.0000
  H   H730      1.0  0.39211  0.54942  0.61471  1.0000
  C   C607      1.0  0.27203  0.63109  0.52552  1.0000
  C   C608      1.0  0.39874  0.59369  0.73838  1.0000
  C   C609      1.0  0.01575  0.87207  0.64281  1.0000
  C   C610      1.0  0.16638  0.98685  0.74778  1.0000
  C   C611      1.0  0.02085  0.64191  0.66225  1.0000
  H   H731      1.0  0.39114  0.63131  0.51288  1.0000
  C   C612      1.0  0.01286  0.57913  0.71924  1.0000
  H   H732      1.0  0.04797  0.85479  0.75204  1.0000
  H   H733      1.0  0.04218  0.63122  0.72275  1.0000
  C   C613      1.0  0.04522  0.78589  0.68224  1.0000
  H   H734      1.0  0.20850  0.59462  0.56135  1.0000
  H   H735      1.0  0.16716  0.99181  0.72958  1.0000
  H   H736      1.0  0.36630  0.65328  0.73811  1.0000
  C   C614      1.0  0.04451  0.68080  0.59629  1.0000
  C   C615      1.0  0.21666  0.59922  0.54429  1.0000
  H   H737      1.0  0.38750  0.52458  0.63314  1.0000
  H   H738      1.0  0.03446  0.82055  0.62400  1.0000
  H   H739      1.0  0.26161  0.58320  0.55187  1.0000
  S   S168      1.0  0.11549  0.90017  0.74922  1.0000
  H   H740      1.0  0.01546  0.88955  0.72687  1.0000
  H   H741      1.0  0.05294  0.87202  0.72627  1.0000
  H   H742      1.0  0.28046  0.63578  0.54176  1.0000
  C   C616      1.0  0.37415  0.52185  0.57941  1.0000
  C   C617      1.0  0.04939  0.91417  0.74694  1.0000
  H   H743      1.0  0.34257  0.52389  0.55895  1.0000
  C   C618      1.0  0.40178  0.60908  0.75725  1.0000
  N   N40       1.0  0.41034  0.51792  0.60421  1.0000
  C   C619      1.0  0.38979  0.63049  0.75723  1.0000
  C   C620      1.0  0.15966  0.62638  0.51077  1.0000
  C   C621      1.0  0.01434  0.71814  0.60543  1.0000
  C   C622      1.0  0.01104  0.85821  0.66242  1.0000
  N   N41       1.0  0.04001  0.89151  0.75561  1.0000
  H   H744      1.0  0.04002  0.92926  0.75488  1.0000
  C   C623      1.0  0.35534  0.51235  0.56704  1.0000
  Fe  Fe85      1.0  0.17366  0.89595  0.87189  1.0000
  S   S169      1.0  0.20249  0.92249  0.86883  1.0000
  S   S170      1.0  0.16756  0.86939  0.84305  1.0000
  Fe  Fe86      1.0  0.15985  0.91276  0.92074  1.0000
  S   S171      1.0  0.18678  0.94136  0.92045  1.0000
  S   S172      1.0  0.13639  0.91109  0.95259  1.0000
  Fe  Fe87      1.0  0.17572  0.94770  0.88325  1.0000
  S   S173      1.0  0.16734  0.98087  0.86271  1.0000
  Fe  Fe88      1.0  0.21081  0.91348  0.90629  1.0000
  S   S174      1.0  0.24436  0.90704  0.92681  1.0000
  S   S175      1.0  0.14664  0.92128  0.88462  1.0000
  S   S176      1.0  0.18415  0.88468  0.90825  1.0000
  Fe  Fe89      1.0  0.40932  0.84837  0.93504  1.0000
  S   S177      1.0  0.40401  0.82229  0.96398  1.0000
  S   S178      1.0  0.44346  0.86857  0.93278  1.0000
  Fe  Fe90      1.0  0.36014  0.84127  0.91638  1.0000
  S   S179      1.0  0.35143  0.81374  0.94312  1.0000
  S   S180      1.0  0.33487  0.85476  0.88889  1.0000
  Fe  Fe91      1.0  0.36853  0.83861  0.96855  1.0000
  C   C624      1.0  0.04618  0.88793  0.83075  1.0000
  Fe  Fe92      1.0  0.38759  0.79956  0.93625  1.0000
  S   S181      1.0  0.40206  0.76225  0.93674  1.0000
  S   S182      1.0  0.37519  0.86682  0.94198  1.0000
  S   S183      1.0  0.39492  0.82496  0.90712  1.0000
  Fe  Fe93      1.0  0.42504  0.59959  0.86581  1.0000
  S   S184      1.0  0.45244  0.59974  0.83791  1.0000
  S   S185      1.0  0.42018  0.56676  0.88791  1.0000
  Fe  Fe94      1.0  0.41125  0.65025  0.85586  1.0000
  S   S186      1.0  0.43708  0.65387  0.82646  1.0000
  S   S187      1.0  0.38485  0.67877  0.86480  1.0000
  Fe  Fe95      1.0  0.42541  0.61785  0.81558  1.0000
  S   S188      1.0  0.42124  0.60080  0.77993  1.0000
  Fe  Fe96      1.0  0.46207  0.63553  0.85106  1.0000
  H   H745      1.0  0.48505  0.83072  0.94157  1.0000
  S   S189      1.0  0.39748  0.61546  0.84287  1.0000
  S   S190      1.0  0.43684  0.63414  0.88111  1.0000
  H   H746      1.0  0.38511  0.88066  0.00492  1.0000
  H   H747      1.0  0.16493  0.96598  0.81222  1.0000
  C   C625      1.0  0.39769  0.73990  0.91565  1.0000
  C   C626      1.0  0.38024  0.74141  0.89856  1.0000
  C   C627      1.0  0.37669  0.72267  0.88292  1.0000
  C   C628      1.0  0.39090  0.70253  0.88381  1.0000
  C   C629      1.0  0.40868  0.70126  0.90059  1.0000
  C   C630      1.0  0.41184  0.71972  0.91659  1.0000
  H   H748      1.0  0.36914  0.75676  0.89771  1.0000
  H   H749      1.0  0.36283  0.72376  0.87008  1.0000
  H   H750      1.0  0.41960  0.68580  0.90161  1.0000
  H   H751      1.0  0.42516  0.71818  0.92993  1.0000
  C   C631      1.0  0.37801  0.55084  0.87012  1.0000
  C   C632      1.0  0.39797  0.54567  0.88332  1.0000
  H   H752      1.0  0.03843  0.99348  0.97135  1.0000
  H   H753      1.0  0.37606  0.56798  0.86225  1.0000
  H   H754      1.0  0.47522  0.75704  0.90969  1.0000
  H   H755      1.0  0.07539  0.94450  0.91830  1.0000
  H   H756      1.0  0.38640  0.62009  0.92329  1.0000
  H   H757      1.0  0.38963  0.60850  0.89418  1.0000
  C   C633      1.0  0.06688  0.98203  0.94950  1.0000
  C   C634      1.0  0.23118  0.91726  0.98699  1.0000
  C   C635      1.0  0.26917  0.89241  0.91560  1.0000
  C   C636      1.0  0.28598  0.88376  0.93133  1.0000
  C   C637      1.0  0.30618  0.87236  0.92328  1.0000
  C   C638      1.0  0.30978  0.86948  0.89934  1.0000
  C   C639      1.0  0.29302  0.87821  0.88352  1.0000
  C   C640      1.0  0.27276  0.88966  0.89164  1.0000
  H   H758      1.0  0.28335  0.88571  0.94985  1.0000
  H   H759      1.0  0.31888  0.86560  0.93563  1.0000
  H   H760      1.0  0.29574  0.87609  0.86498  1.0000
  H   H761      1.0  0.26014  0.89672  0.87943  1.0000
  H   H762      1.0  0.19818  0.83431  0.86973  1.0000
  N   N42       1.0  0.47102  0.78529  0.93429  1.0000
  N   N43       1.0  0.35432  0.61792  0.90330  1.0000
  C   C641      1.0  0.32305  0.58720  0.90780  1.0000
  C   C642      1.0  0.45534  0.79849  0.91826  1.0000
  C   C643      1.0  0.47693  0.84830  0.87346  1.0000
  C   C644      1.0  0.45974  0.85115  0.89071  1.0000
  C   C645      1.0  0.46447  0.86465  0.91051  1.0000
  C   C646      1.0  0.48653  0.87523  0.91286  1.0000
  C   C647      1.0  0.34299  0.63573  0.91830  1.0000
  H   H763      1.0  0.44287  0.84294  0.88858  1.0000
  H   H764      1.0  0.49032  0.88575  0.92809  1.0000
  C   C648      1.0  0.23848  0.83840  0.89624  1.0000
  C   C649      1.0  0.13036  0.89105  0.77488  1.0000
  C   C650      1.0  0.13211  0.90688  0.79357  1.0000
  C   C651      1.0  0.14362  0.90053  0.81442  1.0000
  C   C652      1.0  0.15321  0.87809  0.81692  1.0000
  C   C653      1.0  0.15126  0.86215  0.79833  1.0000
  C   C654      1.0  0.13995  0.86861  0.77734  1.0000
  H   H765      1.0  0.12468  0.92426  0.79186  1.0000
  H   H766      1.0  0.14501  0.91299  0.82855  1.0000
  H   H767      1.0  0.15855  0.84473  0.80012  1.0000
  H   H768      1.0  0.38528  0.63924  0.89869  1.0000
  H   H769      1.0  0.46093  0.80655  0.96386  1.0000
  C   C655      1.0  0.14229  0.89029  0.97490  1.0000
  C   C656      1.0  0.15709  0.87119  0.97098  1.0000
  H   H770      1.0  0.03585  0.60119  0.77219  1.0000
  H   H771      1.0  0.16447  0.86849  0.95387  1.0000
  N   N44       1.0  0.10142  0.97139  0.92352  1.0000
  C   C657      1.0  0.09322  0.94675  0.92573  1.0000
  H   H772      1.0  0.49999  0.77852  0.86056  1.0000
  H   H773      1.0  0.20454  0.88320  0.96780  1.0000
  H   H774      1.0  0.49403  0.90542  0.84288  1.0000
  H   H775      1.0  0.48663  0.92350  0.88123  1.0000
  H   H776      1.0  0.36729  0.54150  0.93165  1.0000
  C   C658      1.0  0.16224  0.85540  0.98921  1.0000
  H   H777      1.0  0.16751  0.00099  0.90956  1.0000
  C   C659      1.0  0.28497  0.94925  0.98534  1.0000
  C   C660      1.0  0.02420  0.88598  0.82034  1.0000
  H   H778      1.0  0.49459  0.62822  0.89847  1.0000
  H   H779      1.0  0.10499  0.93432  0.91644  1.0000
  H   H780      1.0  0.11482  0.96344  0.88910  1.0000
  H   H781      1.0  0.39313  0.54540  0.82628  1.0000
  H   H782      1.0  0.12412  0.96794  0.95336  1.0000
  H   H783      1.0  0.42402  0.54652  0.83367  1.0000
  H   H784      1.0  0.03759  0.63093  0.76193  1.0000
  H   H785      1.0  0.07949  0.89529  0.78277  1.0000
  C   C661      1.0  0.49505  0.79486  0.93278  1.0000
  C   C662      1.0  0.35485  0.55443  0.92533  1.0000
  H   H786      1.0  0.47304  0.83808  0.85804  1.0000
  H   H787      1.0  0.39839  0.55495  0.77626  1.0000
  H   H788      1.0  0.34472  0.53823  0.85761  1.0000
  C   C663      1.0  0.36240  0.57714  0.91996  1.0000
  H   H789      1.0  0.34856  0.65385  0.91338  1.0000
  H   H790      1.0  0.23420  0.87493  0.96799  1.0000
  C   C664      1.0  0.34675  0.59413  0.91051  1.0000
  C   C665      1.0  0.15551  0.00695  0.87444  1.0000
  H   H791      1.0  0.11207  0.99370  0.89464  1.0000
  C   C666      1.0  0.41100  0.54796  0.81922  1.0000
  C   C667      1.0  0.49898  0.85887  0.87579  1.0000
  H   H792      1.0  0.29310  0.92830  0.95527  1.0000
  H   H793      1.0  0.22188  0.84711  0.89859  1.0000
  C   C668      1.0  0.25193  0.83402  0.91621  1.0000
  H   H794      1.0  0.28453  0.82069  0.92970  1.0000
  C   C669      1.0  0.38000  0.62149  0.90498  1.0000
  C   C670      1.0  0.36029  0.53393  0.86752  1.0000
  H   H795      1.0  0.35482  0.63902  0.87179  1.0000
  C   C671      1.0  0.34736  0.62231  0.87866  1.0000
  H   H796      1.0  0.38068  0.53117  0.78665  1.0000
  C   C672      1.0  0.16264  0.00389  0.76539  1.0000
  C   C673      1.0  0.05267  0.99891  0.96010  1.0000
  H   H797      1.0  0.32618  0.53007  0.92495  1.0000
  C   C674      1.0  0.50380  0.87226  0.89563  1.0000
  H   H798      1.0  0.41189  0.56649  0.81317  1.0000
  C   C675      1.0  0.31651  0.92070  0.00948  1.0000
  H   H799      1.0  0.31005  0.59929  0.90118  1.0000
  H   H800      1.0  0.24561  0.83939  0.93318  1.0000
  N   N45       1.0  0.41584  0.53117  0.80005  1.0000
  C   C676      1.0  0.28236  0.81738  0.89241  1.0000
  C   C677      1.0  0.06366  0.89276  0.79268  1.0000
  C   C678      1.0  0.46938  0.76009  0.92794  1.0000
  C   C679      1.0  0.33169  0.54796  0.92157  1.0000
  H   H801      1.0  0.12068  0.90774  0.00030  1.0000
  C   C680      1.0  0.26386  0.87911  0.00543  1.0000
  H   H802      1.0  0.44423  0.78043  0.96034  1.0000
  C   C681      1.0  0.40003  0.52344  0.89382  1.0000
  H   H803      1.0  0.18686  0.90505  0.99728  1.0000
  H   H804      1.0  0.21774  0.92417  0.97458  1.0000
  H   H805      1.0  0.32362  0.63525  0.91687  1.0000
  H   H806      1.0  0.38079  0.58059  0.92265  1.0000
  H   H807      1.0  0.09334  0.94066  0.94424  1.0000
  H   H808      1.0  0.34763  0.63293  0.93699  1.0000
  H   H809      1.0  0.40268  0.52643  0.76478  1.0000
  H   H810      1.0  0.47375  0.77874  0.97122  1.0000
  C   C682      1.0  0.02182  0.88730  0.79603  1.0000
  H   H811      1.0  0.46279  0.79952  0.90035  1.0000
  H   H812      1.0  0.47962  0.74885  0.94014  1.0000
  H   H813      1.0  0.23482  0.93104  0.00020  1.0000
  H   H814      1.0  0.39207  0.64252  0.77162  1.0000
  H   H815      1.0  0.29771  0.55925  0.91021  1.0000
  H   H816      1.0  0.43775  0.79026  0.91684  1.0000
  C   C683      1.0  0.06587  0.89135  0.81693  1.0000
  C   C684      1.0  0.31575  0.56438  0.91306  1.0000
  S   S191      1.0  0.49963  0.64888  0.85192  1.0000
  C   C685      1.0  0.27381  0.82349  0.91429  1.0000
  H   H817      1.0  0.29980  0.80999  0.89098  1.0000
  C   C686      1.0  0.39867  0.53600  0.78114  1.0000
  C   C687      1.0  0.08572  0.98867  0.93472  1.0000
  C   C688      1.0  0.29636  0.93113  0.97372  1.0000
  H   H818      1.0  0.17373  0.84069  0.98600  1.0000
  C   C689      1.0  0.10364  0.97655  0.89817  1.0000
  C   C690      1.0  0.12484  0.97283  0.93453  1.0000
  C   C691      1.0  0.43968  0.53613  0.79123  1.0000
  H   H819      1.0  0.08624  0.97676  0.88945  1.0000
  H   H820      1.0  0.13750  0.96073  0.92606  1.0000
  H   H821      1.0  0.08305  0.89274  0.82495  1.0000
  H   H822      1.0  0.41536  0.51938  0.90420  1.0000
  H   H823      1.0  0.13229  0.99077  0.93345  1.0000
  H   H824      1.0  0.44162  0.55487  0.78591  1.0000
  C   C692      1.0  0.49918  0.81902  0.93692  1.0000
  H   H825      1.0  0.50810  0.73825  0.87213  1.0000
  S   S192      1.0  0.34848  0.84484  0.00234  1.0000
  H   H826      1.0  0.35347  0.60789  0.86714  1.0000
  H   H827      1.0  0.32815  0.62391  0.87636  1.0000
  C   C693      1.0  0.13228  0.89312  0.99711  1.0000
  H   H828      1.0  0.01703  0.62351  0.78401  1.0000
  H   H829      1.0  0.45209  0.81665  0.92439  1.0000
  C   C694      1.0  0.31201  0.91679  0.98580  1.0000
  H   H830      1.0  0.45102  0.75364  0.92893  1.0000
  C   C695      1.0  0.46218  0.78786  0.95847  1.0000
  N   N46       1.0  0.40647  0.90497  0.87829  1.0000
  C   C696      1.0  0.39891  0.88025  0.88087  1.0000
  C   C697      1.0  0.40422  0.91621  0.90156  1.0000
  C   C698      1.0  0.39013  0.91710  0.86211  1.0000
  C   C699      1.0  0.43053  0.90572  0.86875  1.0000
  C   C700      1.0  0.43546  0.89566  0.84663  1.0000
  C   C701      1.0  0.44965  0.91599  0.88094  1.0000
  C   C702      1.0  0.45807  0.89577  0.83740  1.0000
  C   C703      1.0  0.47214  0.91619  0.87140  1.0000
  C   C704      1.0  0.47637  0.90602  0.84976  1.0000
  H   H831      1.0  0.41109  0.87062  0.89262  1.0000
  H   H832      1.0  0.38103  0.87888  0.88843  1.0000
  H   H833      1.0  0.39833  0.87071  0.86401  1.0000
  H   H834      1.0  0.41538  0.90724  0.91487  1.0000
  H   H835      1.0  0.38599  0.91519  0.90829  1.0000
  H   H836      1.0  0.40906  0.93509  0.90091  1.0000
  H   H837      1.0  0.38898  0.90828  0.84487  1.0000
  H   H838      1.0  0.37198  0.91744  0.86914  1.0000
  H   H839      1.0  0.39574  0.93554  0.85898  1.0000
  H   H840      1.0  0.42194  0.88725  0.83647  1.0000
  H   H841      1.0  0.44792  0.92341  0.89816  1.0000
  H   H842      1.0  0.46164  0.88742  0.82080  1.0000
  H   H843      1.0  0.04799  0.88669  0.84956  1.0000
  H   H844      1.0  0.17054  0.93714  0.78051  1.0000
  N   N47       1.0  0.23196  0.83722  0.85281  1.0000
  C   C705      1.0  0.22888  0.86292  0.85027  1.0000
  C   C706      1.0  0.24216  0.82836  0.83069  1.0000
  C   C707      1.0  0.20861  0.82617  0.85553  1.0000
  C   C708      1.0  0.24655  0.83222  0.87366  1.0000
  C   C709      1.0  0.26905  0.82164  0.87231  1.0000
  H   H845      1.0  0.21018  0.80710  0.85936  1.0000
  H   H846      1.0  0.24603  0.87190  0.84838  1.0000
  H   H847      1.0  0.21801  0.86745  0.83470  1.0000
  H   H848      1.0  0.21984  0.87077  0.86551  1.0000
  H   H849      1.0  0.25914  0.83703  0.82673  1.0000
  H   H850      1.0  0.23050  0.83204  0.81548  1.0000
  H   H851      1.0  0.24481  0.80902  0.83136  1.0000
  H   H852      1.0  0.19767  0.82824  0.83951  1.0000
  H   H853      1.0  0.27704  0.81685  0.85597  1.0000
  H   H854      1.0  0.32094  0.90267  0.97675  1.0000
  H   H855      1.0  0.15986  0.00718  0.80361  1.0000
  H   H856      1.0  0.21407  0.86030  0.98736  1.0000
  C   C710      1.0  0.02530  0.61700  0.76767  1.0000
  H   H857      1.0  0.13863  0.85623  0.76312  1.0000
  H   H858      1.0  0.27289  0.96040  0.97575  1.0000
  H   H859      1.0  0.45312  0.53253  0.80489  1.0000
  H   H860      1.0  0.26748  0.87949  0.98696  1.0000
  H   H861      1.0  0.06288  0.96393  0.95332  1.0000
  C   C711      1.0  0.21896  0.87756  0.97967  1.0000
  C   C712      1.0  0.16523  0.97186  0.79416  1.0000
  C   C713      1.0  0.16846  0.95560  0.77636  1.0000
  H   H862      1.0  0.44408  0.52545  0.77566  1.0000
  N   N48       1.0  0.22343  0.89517  0.99820  1.0000
  C   C714      1.0  0.04161  0.89064  0.78141  1.0000
  C   C715      1.0  0.16231  0.99567  0.78889  1.0000
  H   H863      1.0  0.24734  0.91471  0.97657  1.0000
  C   C716      1.0  0.28921  0.95322  0.00909  1.0000
  Fe  Fe97      1.0  0.54936  0.37611  0.18472  1.0000
  S   S193      1.0  0.57673  0.36913  0.15742  1.0000
  C   C717      1.0  0.56167  0.14079  0.01273  1.0000
  Fe  Fe98      1.0  0.58611  0.39372  0.22029  1.0000
  S   S194      1.0  0.61612  0.38789  0.19598  1.0000
  C   C718      1.0  0.78576  0.12418  0.04471  1.0000
  Fe  Fe99      1.0  0.59246  0.40375  0.16887  1.0000
  S   S195      1.0  0.60735  0.42985  0.14282  1.0000
  Fe  Fe100     1.0  0.59839  0.35394  0.18663  1.0000
  S   S196      1.0  0.61917  0.32003  0.18854  1.0000
  S   S197      1.0  0.56327  0.41198  0.19382  1.0000
  S   S198      1.0  0.57026  0.35865  0.21314  1.0000
  Fe  Fe101     1.0  0.83893  0.05225  0.14747  1.0000
  S   S199      1.0  0.87045  0.07552  0.15088  1.0000
  H   H864      1.0  0.57409  0.11227  0.05450  1.0000
  Fe  Fe102     1.0  0.80792  0.09234  0.12776  1.0000
  S   S200      1.0  0.83730  0.11826  0.13068  1.0000
  S   S201      1.0  0.77627  0.10559  0.10725  1.0000
  Fe  Fe103     1.0  0.85946  0.08977  0.11561  1.0000
  S   S202      1.0  0.88360  0.09572  0.08488  1.0000
  Fe  Fe104     1.0  0.84521  0.10177  0.16558  1.0000
  S   S203      1.0  0.84925  0.12408  0.19821  1.0000
  S   S204      1.0  0.82994  0.06429  0.11108  1.0000
  S   S205      1.0  0.81392  0.07799  0.16392  1.0000
  Fe  Fe105     1.0  0.64676  0.17297  0.06701  1.0000
  S   S206      1.0  0.63946  0.14212  0.09012  1.0000
  S   S207      1.0  0.66014  0.17156  0.02979  1.0000
  Fe  Fe106     1.0  0.63034  0.20868  0.10377  1.0000
  S   S208      1.0  0.62200  0.18045  0.12996  1.0000
  S   S209      1.0  0.62020  0.24726  0.10469  1.0000
  Fe  Fe107     1.0  0.65595  0.16393  0.11826  1.0000
  S   S210      1.0  0.67996  0.14664  0.14481  1.0000
  Fe  Fe108     1.0  0.60621  0.16080  0.09982  1.0000
  S   S211      1.0  0.57237  0.13988  0.09905  1.0000
  S   S212      1.0  0.66568  0.19385  0.09451  1.0000
  S   S213      1.0  0.61221  0.18999  0.07434  1.0000
  C   C719      1.0  0.55107  0.14446  0.12094  1.0000
  C   C720      1.0  0.53023  0.13139  0.12056  1.0000
  H   H865      1.0  0.68672  0.41489  0.20554  1.0000
  C   C721      1.0  0.53776  0.16361  0.15631  1.0000
  C   C722      1.0  0.55469  0.16069  0.13882  1.0000
  C   C723      1.0  0.86850  0.12774  0.24211  1.0000
  H   H866      1.0  0.74317  0.17778  0.10745  1.0000
  H   H867      1.0  0.57054  0.17098  0.13922  1.0000
  C   C724      1.0  0.74895  0.11534  0.11803  1.0000
  C   C725      1.0  0.74271  0.11299  0.14151  1.0000
  C   C726      1.0  0.72147  0.12253  0.14957  1.0000
  C   C727      1.0  0.70610  0.13401  0.13411  1.0000
  C   C728      1.0  0.71194  0.13552  0.11046  1.0000
  C   C729      1.0  0.73329  0.12628  0.10250  1.0000
  H   H868      1.0  0.75415  0.10370  0.15338  1.0000
  H   H869      1.0  0.71693  0.12101  0.16782  1.0000
  H   H870      1.0  0.70018  0.14415  0.09834  1.0000
  H   H871      1.0  0.73780  0.12791  0.08425  1.0000
  C   C730      1.0  0.58529  0.07744  0.04753  1.0000
  C   C731      1.0  0.87035  0.11739  0.21994  1.0000
  C   C732      1.0  0.88886  0.10201  0.21556  1.0000
  H   H872      1.0  0.59469  0.50597  0.07859  1.0000
  H   H873      1.0  0.89081  0.09439  0.19842  1.0000
  C   C733      1.0  0.66410  0.33450  0.13709  1.0000
  C   C734      1.0  0.66717  0.36810  0.11209  1.0000
  C   C735      1.0  0.88491  0.11351  0.04045  1.0000
  C   C736      1.0  0.87461  0.11524  0.06257  1.0000
  C   C737      1.0  0.85883  0.13348  0.06691  1.0000
  C   C738      1.0  0.85417  0.15037  0.04952  1.0000
  C   C739      1.0  0.92697  0.17141  0.02940  1.0000
  H   H874      1.0  0.89707  0.09944  0.03699  1.0000
  H   H875      1.0  0.85098  0.13514  0.08393  1.0000
  H   H876      1.0  0.84266  0.16491  0.05332  1.0000
  C   C740      1.0  0.61776  0.29905  0.16589  1.0000
  C   C741      1.0  0.60603  0.30384  0.14497  1.0000
  C   C742      1.0  0.60681  0.28763  0.12654  1.0000
  C   C743      1.0  0.61883  0.26626  0.12898  1.0000
  C   C744      1.0  0.63014  0.26120  0.15009  1.0000
  C   C745      1.0  0.62977  0.27766  0.16840  1.0000
  H   H877      1.0  0.59653  0.32010  0.14287  1.0000
  H   H878      1.0  0.59800  0.29162  0.11026  1.0000
  H   H879      1.0  0.63957  0.24486  0.15209  1.0000
  H   H880      1.0  0.63897  0.27387  0.18450  1.0000
  H   H881      1.0  0.66251  0.35617  0.09743  1.0000
  C   C746      1.0  0.64387  0.49110  0.14593  1.0000
  C   C747      1.0  0.63185  0.47113  0.13779  1.0000
  C   C748      1.0  0.62296  0.45442  0.15354  1.0000
  C   C749      1.0  0.62664  0.45760  0.17748  1.0000
  C   C750      1.0  0.63896  0.47736  0.18553  1.0000
  C   C751      1.0  0.87995  0.13017  0.02299  1.0000
  H   H882      1.0  0.62923  0.46872  0.11925  1.0000
  H   H883      1.0  0.62005  0.44478  0.18977  1.0000
  H   H884      1.0  0.64202  0.47953  0.20401  1.0000
  C   C752      1.0  0.58234  0.10109  0.04171  1.0000
  H   H885      1.0  0.71323  0.19727  0.13152  1.0000
  H   H886      1.0  0.94235  0.12342  0.06193  1.0000
  H   H887      1.0  0.65382  0.12213  0.04203  1.0000
  H   H888      1.0  0.82486  0.11305  0.02434  1.0000
  C   C753      1.0  0.51319  0.13441  0.13804  1.0000
  C   C754      1.0  0.59586  0.06213  0.03184  1.0000
  H   H889      1.0  0.65073  0.50384  0.13377  1.0000
  C   C755      1.0  0.62161  0.48759  0.25176  1.0000
  C   C756      1.0  0.75331  0.18510  0.17398  1.0000
  C   C757      1.0  0.74649  0.11375  0.01550  1.0000
  H   H890      1.0  0.99134  0.12600  0.01794  1.0000
  H   H891      1.0  0.87750  0.01209  0.13051  1.0000
  H   H892      1.0  0.52048  0.10052  0.18668  1.0000
  H   H893      1.0  0.65216  0.08654  0.01728  1.0000
  C   C758      1.0  0.57407  0.48685  0.14517  1.0000
  C   C759      1.0  0.60787  0.33250  0.25639  1.0000
  H   H894      1.0  0.54069  0.13281  0.20666  1.0000
  H   H895      1.0  0.91555  0.14161  0.08922  1.0000
  C   C760      1.0  0.97799  0.13262  0.03042  1.0000
  N   N49       1.0  0.79195  0.16294  0.17136  1.0000
  C   C761      1.0  0.79518  0.16891  0.19641  1.0000
  C   C762      1.0  0.79010  0.13712  0.16967  1.0000
  C   C763      1.0  0.81331  0.17071  0.15886  1.0000
  C   C764      1.0  0.77083  0.17357  0.16066  1.0000
  C   C765      1.0  0.51702  0.15042  0.15610  1.0000
  H   H896      1.0  0.56603  0.46962  0.14449  1.0000
  C   C766      1.0  0.65704  0.12350  0.02349  1.0000
  H   H897      1.0  0.79619  0.18822  0.19898  1.0000
  H   H898      1.0  0.78092  0.16161  0.20740  1.0000
  H   H899      1.0  0.81172  0.16128  0.20357  1.0000
  H   H900      1.0  0.77406  0.13063  0.17852  1.0000
  H   H901      1.0  0.80528  0.12820  0.17795  1.0000
  H   H902      1.0  0.78940  0.13107  0.15124  1.0000
  H   H903      1.0  0.81470  0.19017  0.15872  1.0000
  H   H904      1.0  0.82951  0.16353  0.16717  1.0000
  H   H905      1.0  0.81380  0.16460  0.14049  1.0000
  H   H906      1.0  0.65556  0.40781  0.13827  1.0000
  H   H907      1.0  0.85436  0.13981  0.24560  1.0000
  H   H908      1.0  0.54084  0.17602  0.17023  1.0000
  C   C767      1.0  0.93486  0.14010  0.05699  1.0000
  C   C768      1.0  0.91137  0.18140  0.04528  1.0000
  H   H909      1.0  0.66952  0.43247  0.16988  1.0000
  H   H910      1.0  0.63325  0.38410  0.25181  1.0000
  C   C769      1.0  0.55410  0.31583  0.25398  1.0000
  H   H911      1.0  0.60601  0.50093  0.22013  1.0000
  C   C770      1.0  0.66382  0.39925  0.15301  1.0000
  H   H912      1.0  0.62452  0.47085  0.24349  1.0000
  N   N50       1.0  0.65757  0.35964  0.13467  1.0000
  H   H913      1.0  0.98564  0.14791  0.03977  1.0000
  C   C771      1.0  0.63176  0.36105  0.13372  1.0000
  H   H914      1.0  0.78180  0.16221  0.01593  1.0000
  C   C772      1.0  0.66606  0.37445  0.15415  1.0000
  C   C773      1.0  0.67560  0.36491  0.17510  1.0000
  C   C774      1.0  0.84362  0.02316  0.22328  1.0000
  C   C775      1.0  0.68304  0.37943  0.19331  1.0000
  H   H915      1.0  0.78063  0.10621  0.05046  1.0000
  C   C776      1.0  0.68109  0.40371  0.19133  1.0000
  C   C777      1.0  0.90515  0.09678  0.23330  1.0000
  H   H916      1.0  0.80196  0.12856  0.05465  1.0000
  N   N51       1.0  0.86718  0.03171  0.22988  1.0000
  C   C778      1.0  0.87932  0.03999  0.20849  1.0000
  H   H917      1.0  0.59771  0.16893  0.02833  1.0000
  C   C779      1.0  0.72938  0.19122  0.13952  1.0000
  C   C780      1.0  0.59743  0.14997  0.03305  1.0000
  H   H918      1.0  0.89505  0.17837  0.07894  1.0000
  N   N52       1.0  0.58697  0.13537  0.01433  1.0000
  H   H919      1.0  0.87967  0.02660  0.19443  1.0000
  H   H920      1.0  0.90133  0.19680  0.04037  1.0000
  H   H921      1.0  0.60427  0.32294  0.23980  1.0000
  H   H922      1.0  0.68338  0.33222  0.13838  1.0000
  H   H923      1.0  0.74382  0.11372  0.03415  1.0000
  N   N53       1.0  0.61196  0.11628  0.16914  1.0000
  C   C781      1.0  0.62632  0.09588  0.17646  1.0000
  C   C782      1.0  0.61471  0.11968  0.14363  1.0000
  C   C783      1.0  0.62167  0.13743  0.18077  1.0000
  C   C784      1.0  0.58705  0.11188  0.17470  1.0000
  C   C785      1.0  0.57486  0.09315  0.16382  1.0000
  C   C786      1.0  0.57416  0.12585  0.19071  1.0000
  C   C787      1.0  0.55117  0.08903  0.16823  1.0000
  C   C788      1.0  0.55053  0.12142  0.19513  1.0000
  C   C789      1.0  0.53903  0.10319  0.18381  1.0000
  H   H924      1.0  0.62136  0.07962  0.16701  1.0000
  H   H925      1.0  0.64526  0.09888  0.17285  1.0000
  H   H926      1.0  0.62438  0.09237  0.19548  1.0000
  H   H927      1.0  0.61044  0.10377  0.13336  1.0000
  H   H928      1.0  0.63300  0.12444  0.13894  1.0000
  H   H929      1.0  0.60298  0.13387  0.13727  1.0000
  H   H930      1.0  0.62145  0.13567  0.20011  1.0000
  H   H931      1.0  0.64025  0.14057  0.17580  1.0000
  H   H932      1.0  0.61186  0.15352  0.17560  1.0000
  H   H933      1.0  0.58344  0.08181  0.15143  1.0000
  H   H934      1.0  0.58168  0.14067  0.19964  1.0000
  H   H935      1.0  0.87029  0.05537  0.20053  1.0000
  C   C790      1.0  0.74628  0.18023  0.12597  1.0000
  H   H936      1.0  0.57951  0.07104  0.06439  1.0000
  H   H937      1.0  0.75470  0.18731  0.19262  1.0000
  H   H938      1.0  0.66020  0.38559  0.10703  1.0000
  H   H939      1.0  0.71942  0.20185  0.17392  1.0000
  C   C791      1.0  0.86413  0.05236  0.24536  1.0000
  H   H940      1.0  0.77838  0.16158  0.12522  1.0000
  C   C792      1.0  0.57904  0.49896  0.12449  1.0000
  H   H941      1.0  0.52731  0.11879  0.10679  1.0000
  H   H942      1.0  0.97552  0.11824  0.04330  1.0000
  C   C793      1.0  0.52314  0.34464  0.25036  1.0000
  N   N54       1.0  0.95587  0.13927  0.01840  1.0000
  H   H943      1.0  0.80409  0.09072  0.01647  1.0000
  C   C794      1.0  0.67147  0.41359  0.17124  1.0000
  H   H944      1.0  0.62414  0.35467  0.15040  1.0000
  H   H945      1.0  0.65787  0.32385  0.12201  1.0000
  H   H946      1.0  0.65585  0.32630  0.15267  1.0000
  C   C795      1.0  0.86486  0.14887  0.02753  1.0000
  H   H947      1.0  0.89766  0.04522  0.21240  1.0000
  H   H948      1.0  0.55254  0.13755  0.02956  1.0000
  H   H949      1.0  0.60568  0.35146  0.25234  1.0000
  C   C796      1.0  0.66161  0.14539  0.01343  1.0000
  C   C797      1.0  0.61072  0.50478  0.23806  1.0000
  H   H950      1.0  0.54202  0.07512  0.15917  1.0000
  C   C798      1.0  0.76654  0.17123  0.13634  1.0000
  C   C799      1.0  0.53212  0.32251  0.24543  1.0000
  C   C800      1.0  0.90771  0.17100  0.06699  1.0000
  C   C801      1.0  0.64725  0.49441  0.16986  1.0000
  H   H951      1.0  0.67713  0.34626  0.17806  1.0000
  H   H952      1.0  0.62435  0.35011  0.11943  1.0000
  C   C802      1.0  0.93955  0.15058  0.03496  1.0000
  H   H953      1.0  0.57694  0.48648  0.18257  1.0000
  H   H954      1.0  0.69010  0.37178  0.20919  1.0000
  H   H955      1.0  0.93991  0.10523  0.02296  1.0000
  H   H956      1.0  0.58778  0.14868  0.04981  1.0000
  H   H957      1.0  0.68658  0.36936  0.11288  1.0000
  C   C803      1.0  0.73289  0.19367  0.16345  1.0000
  C   C804      1.0  0.58032  0.49628  0.16669  1.0000
  H   H958      1.0  0.57415  0.49031  0.10849  1.0000
  C   C805      1.0  0.91939  0.15037  0.07281  1.0000
  H   H959      1.0  0.61581  0.14471  0.03660  1.0000
  H   H960      1.0  0.62541  0.37934  0.13100  1.0000
  N   N55       1.0  0.78947  0.12538  0.01903  1.0000
  H   H961      1.0  0.91944  0.08487  0.22976  1.0000
  H   H962      1.0  0.81153  0.15571  0.02393  1.0000
  S   S214      1.0  0.58858  0.40861  0.25690  1.0000
  H   H963      1.0  0.59843  0.04387  0.03647  1.0000
  S   S215      1.0  0.83811  0.01541  0.16295  1.0000
  H   H964      1.0  0.77214  0.13679  0.05057  1.0000
  H   H965      1.0  0.51194  0.38335  0.13824  1.0000
  H   H966      1.0  0.52239  0.22865  0.14042  1.0000
  H   H967      1.0  0.88131  0.05906  0.25166  1.0000
  C   C806      1.0  0.88044  0.01226  0.24092  1.0000
  H   H968      1.0  0.92833  0.18003  0.01267  1.0000
  H   H969      1.0  0.85537  0.06723  0.23613  1.0000
  H   H970      1.0  0.83332  0.03693  0.21396  1.0000
  H   H971      1.0  0.56060  0.29901  0.24840  1.0000
  S   S216      1.0  0.51136  0.36380  0.18571  1.0000
  H   H972      1.0  0.83356  0.01742  0.23886  1.0000
  C   C807      1.0  0.90310  0.10681  0.25558  1.0000
  H   H973      1.0  0.52241  0.31088  0.23403  1.0000
  C   C808      1.0  0.59006  0.11018  0.01994  1.0000
  C   C809      1.0  0.80911  0.10934  0.01342  1.0000
  C   C810      1.0  0.79649  0.14973  0.01314  1.0000
  C   C811      1.0  0.60329  0.07038  0.01020  1.0000
  H   H974      1.0  0.71023  0.10460  0.00991  1.0000
  Fe  Fe109     1.0  0.70803  0.42288  0.39640  1.0000
  S   S217      1.0  0.68683  0.38973  0.39799  1.0000
  S   S218      1.0  0.74594  0.42550  0.40855  1.0000
  Fe  Fe110     1.0  0.66602  0.45294  0.37964  1.0000
  S   S219      1.0  0.64219  0.42171  0.38056  1.0000
  S   S220      1.0  0.64892  0.48472  0.36227  1.0000
  Fe  Fe111     1.0  0.65948  0.41251  0.41475  1.0000
  S   S221      1.0  0.63684  0.40611  0.44673  1.0000
  Fe  Fe112     1.0  0.67147  0.40221  0.36364  1.0000
  S   S222      1.0  0.66677  0.38047  0.33076  1.0000
  S   S223      1.0  0.68134  0.44526  0.41502  1.0000
  S   S224      1.0  0.69473  0.43376  0.36089  1.0000
  Fe  Fe113     1.0  0.90365  0.34893  0.43513  1.0000
  S   S225      1.0  0.90626  0.32039  0.46199  1.0000
  S   S226      1.0  0.93529  0.37276  0.43140  1.0000
  Fe  Fe114     1.0  0.85325  0.33669  0.42349  1.0000
  S   S227      1.0  0.85288  0.30663  0.44907  1.0000
  S   S228      1.0  0.81913  0.34109  0.40345  1.0000
  Fe  Fe115     1.0  0.87055  0.33180  0.47339  1.0000
  C   C812      1.0  0.72737  0.35722  0.49786  1.0000
  Fe  Fe116     1.0  0.88846  0.29769  0.43538  1.0000
  S   S229      1.0  0.90456  0.26122  0.43386  1.0000
  S   S230      1.0  0.86902  0.36240  0.44873  1.0000
  S   S231      1.0  0.88784  0.32569  0.40761  1.0000
  Fe  Fe117     1.0  0.91607  0.15481  0.34820  1.0000
  S   S232      1.0  0.94266  0.15166  0.31954  1.0000
  S   S233      1.0  0.89400  0.18770  0.35131  1.0000
  Fe  Fe118     1.0  0.92398  0.10495  0.36507  1.0000
  S   S234      1.0  0.95134  0.09814  0.33802  1.0000
  S   S235      1.0  0.91456  0.07859  0.39323  1.0000
  Fe  Fe119     1.0  0.96494  0.13395  0.34688  1.0000
  C   C813      1.0  0.88331  0.02716  0.35508  1.0000
  Fe  Fe120     1.0  0.92679  0.11621  0.31297  1.0000
  S   S236      1.0  0.92309  0.09828  0.27770  1.0000
  S   S237      1.0  0.93948  0.13964  0.37598  1.0000
  S   S238      1.0  0.89839  0.12053  0.33964  1.0000
  C   C814      1.0  0.98562  0.38407  0.33667  1.0000
  H   H975      1.0  0.62919  0.45372  0.32107  1.0000
  C   C815      1.0  0.84048  0.13520  0.36153  1.0000
  H   H976      1.0  0.90185  0.36382  0.50140  1.0000
  C   C816      1.0  0.66755  0.35214  0.48225  1.0000
  C   C817      1.0  0.88356  0.01431  0.39533  1.0000
  C   C818      1.0  0.97846  0.08008  0.39788  1.0000
  C   C819      1.0  0.90089  0.24091  0.41091  1.0000
  C   C820      1.0  0.88699  0.24588  0.39142  1.0000
  C   C821      1.0  0.88513  0.22943  0.37323  1.0000
  C   C822      1.0  0.89744  0.20812  0.37420  1.0000
  C   C823      1.0  0.91146  0.20321  0.39365  1.0000
  C   C824      1.0  0.91299  0.21946  0.41200  1.0000
  H   H977      1.0  0.87763  0.26236  0.39037  1.0000
  H   H978      1.0  0.87419  0.23332  0.35826  1.0000
  H   H979      1.0  0.92100  0.18688  0.39460  1.0000
  H   H980      1.0  0.92364  0.21543  0.42712  1.0000
  H   H981      1.0  0.59535  0.46895  0.47229  1.0000
  C   C825      1.0  0.90047  0.05231  0.38473  1.0000
  C   C826      1.0  0.89477  0.04806  0.36137  1.0000
  H   H982      1.0  0.98755  0.26513  0.35767  1.0000
  H   H983      1.0  0.89909  0.06093  0.34814  1.0000
  C   C827      1.0  0.76628  0.40209  0.40648  1.0000
  C   C828      1.0  0.78914  0.40513  0.41513  1.0000
  C   C829      1.0  0.80562  0.38673  0.41426  1.0000
  C   C830      1.0  0.79940  0.36512  0.40455  1.0000
  C   C831      1.0  0.77662  0.36216  0.39575  1.0000
  C   C832      1.0  0.76010  0.38046  0.39682  1.0000
  H   H984      1.0  0.79410  0.42183  0.42256  1.0000
  H   H985      1.0  0.82314  0.38934  0.42089  1.0000
  H   H986      1.0  0.77165  0.34554  0.38814  1.0000
  H   H987      1.0  0.74261  0.37787  0.39007  1.0000
  C   C833      1.0  0.64451  0.38526  0.46844  1.0000
  C   C834      1.0  0.66211  0.36867  0.46474  1.0000
  C   C835      1.0  0.63247  0.38519  0.48980  1.0000
  H   H988      1.0  0.67137  0.36839  0.44830  1.0000
  H   H989      1.0  0.78008  0.30725  0.49792  1.0000
  C   C836      1.0  0.64537  0.38896  0.31014  1.0000
  C   C837      1.0  0.64793  0.38249  0.28664  1.0000
  H   H990      1.0  0.97428  0.18457  0.38742  1.0000
  C   C838      1.0  0.61071  0.40069  0.27689  1.0000
  C   C839      1.0  0.60816  0.40711  0.30037  1.0000
  C   C840      1.0  0.62548  0.40144  0.31689  1.0000
  H   H991      1.0  0.66334  0.37289  0.28130  1.0000
  H   H992      1.0  0.83286  0.08295  0.33390  1.0000
  H   H993      1.0  0.59262  0.41640  0.30585  1.0000
  H   H994      1.0  0.62317  0.40623  0.33497  1.0000
  H   H995      1.0  0.99407  0.13462  0.39773  1.0000
  H   H996      1.0  0.88184  0.02608  0.27674  1.0000
  C   C841      1.0  0.96846  0.25947  0.42826  1.0000
  C   C842      1.0  0.76569  0.35107  0.47957  1.0000
  H   H997      1.0  0.99137  0.29684  0.41531  1.0000
  C   C843      1.0  0.97637  0.33759  0.38535  1.0000
  C   C844      1.0  0.95714  0.34462  0.39889  1.0000
  C   C845      1.0  0.95935  0.36328  0.41448  1.0000
  C   C846      1.0  0.98094  0.37495  0.41626  1.0000
  H   H998      1.0  0.65389  0.43923  0.29006  1.0000
  H   H999      1.0  0.94045  0.33595  0.39690  1.0000
  H   H1000     1.0  0.83007  0.16902  0.39641  1.0000
  H   H1001     1.0  0.89137  0.12679  0.40600  1.0000
  N   N56       1.0  0.97358  0.26553  0.40355  1.0000
  C   C847      1.0  0.95310  0.27841  0.39409  1.0000
  H   H1002     1.0  0.80208  0.31334  0.45171  1.0000
  C   C848      1.0  0.63812  0.36883  0.50744  1.0000
  C   C849      1.0  0.97813  0.24483  0.38864  1.0000
  H   H1003     1.0  0.82691  0.12552  0.32775  1.0000
  C   C850      1.0  0.97442  0.22138  0.39640  1.0000
  C   C851      1.0  0.66014  0.48338  0.30202  1.0000
  H   H1004     1.0  0.85720  0.11933  0.43063  1.0000
  C   C852      1.0  0.99811  0.34881  0.38754  1.0000
  H   H1005     1.0  0.93758  0.26672  0.39271  1.0000
  H   H1006     1.0  0.64403  0.48331  0.43228  1.0000
  H   H1007     1.0  0.01012  0.27213  0.40988  1.0000
  C   C853      1.0  0.62181  0.46730  0.30908  1.0000
  H   H1008     1.0  0.92641  0.38303  0.34168  1.0000
  C   C854      1.0  0.98439  0.20595  0.35834  1.0000
  H   H1009     1.0  0.98637  0.19112  0.34666  1.0000
  H   H1010     1.0  0.58118  0.29252  0.29110  1.0000
  C   C855      1.0  0.97835  0.04863  0.36940  1.0000
  H   H1011     1.0  0.59998  0.44210  0.45728  1.0000
  H   H1012     1.0  0.88305  0.13031  0.27697  1.0000
  H   H1013     1.0  0.61690  0.48240  0.32027  1.0000
  C   C856      1.0  0.73896  0.38196  0.46574  1.0000
  C   C857      1.0  0.84756  0.08716  0.36818  1.0000
  C   C858      1.0  0.74858  0.34505  0.49654  1.0000
  H   H1014     1.0  0.95634  0.28560  0.37636  1.0000
  C   C859      1.0  0.72271  0.37582  0.48271  1.0000
  H   H1015     1.0  0.57526  0.46017  0.44975  1.0000
  C   C860      1.0  0.85425  0.10297  0.38555  1.0000
  C   C861      1.0  0.59405  0.46062  0.45484  1.0000
  H   H1016     1.0  0.61225  0.29526  0.28710  1.0000
  H   H1017     1.0  0.52942  0.37771  0.26705  1.0000
  H   H1018     1.0  0.98913  0.09176  0.40922  1.0000
  N   N57       1.0  0.59187  0.32508  0.27528  1.0000
  H   H1019     1.0  0.82967  0.13316  0.42401  1.0000
  H   H1020     1.0  0.61631  0.33092  0.30380  1.0000
  C   C862      1.0  0.85045  0.12747  0.38301  1.0000
  C   C863      1.0  0.76001  0.36966  0.46401  1.0000
  H   H1021     1.0  0.94798  0.29336  0.40548  1.0000
  C   C864      1.0  0.84893  0.13595  0.42466  1.0000
  H   H1022     1.0  0.58592  0.33417  0.31133  1.0000
  C   C865      1.0  0.00652  0.04865  0.40108  1.0000
  N   N58       1.0  0.78771  0.33772  0.47663  1.0000
  H   H1023     1.0  0.66900  0.46983  0.31301  1.0000
  H   H1024     1.0  0.89086  0.15057  0.38554  1.0000
  N   N59       1.0  0.60821  0.47297  0.43695  1.0000
  C   C866      1.0  0.60770  0.45851  0.41544  1.0000
  C   C867      1.0  0.63282  0.47397  0.44513  1.0000
  C   C868      1.0  0.96093  0.03406  0.37948  1.0000
  H   H1025     1.0  0.96751  0.37954  0.27982  1.0000
  H   H1026     1.0  0.85064  0.06852  0.37059  1.0000
  H   H1027     1.0  0.98312  0.24959  0.43647  1.0000
  C   C869      1.0  0.97756  0.20232  0.38137  1.0000
  H   H1028     1.0  0.83793  0.15353  0.35746  1.0000
  H   H1029     1.0  0.58963  0.45651  0.40851  1.0000
  H   H1030     1.0  0.61424  0.44043  0.41882  1.0000
  H   H1031     1.0  0.61907  0.46607  0.40157  1.0000
  H   H1032     1.0  0.63471  0.48297  0.46217  1.0000
  H   H1033     1.0  0.64033  0.45609  0.44761  1.0000
  C   C870      1.0  0.98828  0.22865  0.35023  1.0000
  H   H1034     1.0  0.96854  0.21727  0.41382  1.0000
  H   H1035     1.0  0.92414  0.36398  0.47960  1.0000
  H   H1036     1.0  0.00068  0.38499  0.34813  1.0000
  H   H1037     1.0  0.88898  0.40451  0.48950  1.0000
  C   C871      1.0  0.83412  0.11922  0.34414  1.0000
  C   C872      1.0  0.96356  0.38443  0.34710  1.0000
  H   H1038     1.0  0.61873  0.39786  0.49278  1.0000
  C   C873      1.0  0.62796  0.49204  0.27537  1.0000
  C   C874      1.0  0.59491  0.29945  0.27921  1.0000
  H   H1039     1.0  0.98275  0.38957  0.42812  1.0000
  C   C875      1.0  0.80789  0.35396  0.47424  1.0000
  C   C876      1.0  0.98051  0.04796  0.34465  1.0000
  H   H1040     1.0  0.93219  0.35886  0.50918  1.0000
  C   C877      1.0  0.96570  0.03402  0.33103  1.0000
  H   H1041     1.0  0.81037  0.31294  0.49434  1.0000
  C   C878      1.0  0.96735  0.38092  0.29860  1.0000
  H   H1042     1.0  0.86303  0.09577  0.40070  1.0000
  H   H1043     1.0  0.85265  0.14896  0.43865  1.0000
  H   H1044     1.0  0.60134  0.35620  0.29486  1.0000
  C   C879      1.0  0.90758  0.40707  0.48453  1.0000
  H   H1045     1.0  0.59450  0.28931  0.26266  1.0000
  H   H1046     1.0  0.92960  0.37999  0.29873  1.0000
  C   C880      1.0  0.99416  0.28144  0.40370  1.0000
  C   C881      1.0  0.83754  0.09526  0.34750  1.0000
  C   C882      1.0  0.00032  0.36767  0.40293  1.0000
  H   H1047     1.0  0.96207  0.38575  0.36594  1.0000
  H   H1048     1.0  0.80845  0.36679  0.48883  1.0000
  C   C883      1.0  0.63085  0.38866  0.26996  1.0000
  H   H1049     1.0  0.65832  0.45612  0.26396  1.0000
  H   H1050     1.0  0.65631  0.49800  0.31418  1.0000
  H   H1051     1.0  0.85699  0.38107  0.50218  1.0000
  H   H1052     1.0  0.60544  0.46015  0.30129  1.0000
  H   H1053     1.0  0.63014  0.44337  0.27043  1.0000
  H   H1054     1.0  0.99295  0.05862  0.33527  1.0000
  C   C884      1.0  0.89486  0.03535  0.40167  1.0000
  N   N60       1.0  0.63873  0.47401  0.29069  1.0000
  C   C885      1.0  0.56765  0.33114  0.26817  1.0000
  C   C886      1.0  0.59915  0.49707  0.43339  1.0000
  H   H1055     1.0  0.00179  0.09035  0.35901  1.0000
  C   C887      1.0  0.78579  0.32340  0.45518  1.0000
  H   H1056     1.0  0.95788  0.03388  0.39808  1.0000
  H   H1057     1.0  0.99807  0.28902  0.38626  1.0000
  H   H1058     1.0  0.87880  0.02412  0.33699  1.0000
  H   H1059     1.0  0.80767  0.36380  0.45750  1.0000
  C   C888      1.0  0.98823  0.38235  0.31208  1.0000
  H   H1060     1.0  0.97432  0.32361  0.37284  1.0000
  H   H1061     1.0  0.96534  0.27542  0.43903  1.0000
  H   H1062     1.0  0.73502  0.39596  0.45340  1.0000
  H   H1063     1.0  0.68098  0.33918  0.47910  1.0000
  H   H1064     1.0  0.70619  0.38512  0.48371  1.0000
  C   C889      1.0  0.92021  0.36927  0.49784  1.0000
  C   C890      1.0  0.79305  0.32170  0.49648  1.0000
  H   H1065     1.0  0.89029  0.15657  0.41622  1.0000
  H   H1066     1.0  0.77151  0.37447  0.44991  1.0000
  C   C891      1.0  0.94347  0.38291  0.33344  1.0000
  H   H1067     1.0  0.89922  0.03848  0.41978  1.0000
  H   H1068     1.0  0.95147  0.41966  0.49497  1.0000
  N   N61       1.0  0.99327  0.06359  0.38442  1.0000
  N   N62       1.0  0.85786  0.14388  0.40163  1.0000
  H   H1069     1.0  0.85472  0.18013  0.41248  1.0000
  C   C892      1.0  0.88371  0.14443  0.40251  1.0000
  H   H1070     1.0  0.82484  0.34441  0.47430  1.0000
  H   H1071     1.0  0.91083  0.42625  0.48369  1.0000
  N   N63       1.0  0.92347  0.39488  0.50114  1.0000
  H   H1072     1.0  0.95215  0.24901  0.42983  1.0000
  C   C893      1.0  0.84945  0.16831  0.39794  1.0000
  H   H1073     1.0  0.85716  0.17637  0.38202  1.0000
  H   H1074     1.0  0.00359  0.36292  0.27022  1.0000
  C   C894      1.0  0.98513  0.24784  0.36505  1.0000
  C   C895      1.0  0.59898  0.33705  0.29725  1.0000
  H   H1075     1.0  0.96583  0.07096  0.40947  1.0000
  H   H1076     1.0  0.99319  0.23138  0.33214  1.0000
  C   C896      1.0  0.94650  0.01991  0.36571  1.0000
  C   C897      1.0  0.94534  0.38117  0.30926  1.0000
  H   H1077     1.0  0.75086  0.33069  0.50864  1.0000
  H   H1078     1.0  0.96794  0.09142  0.38602  1.0000
  H   H1079     1.0  0.95233  0.39426  0.47692  1.0000
  H   H1080     1.0  0.96049  0.39209  0.50724  1.0000
  H   H1081     1.0  0.60433  0.50797  0.46954  1.0000
  H   H1082     1.0  0.56746  0.36699  0.28210  1.0000
  S   S239      1.0  0.00379  0.14234  0.34828  1.0000
  C   C898      1.0  0.59110  0.50547  0.41137  1.0000
  C   C899      1.0  0.55795  0.35363  0.27276  1.0000
  C   C900      1.0  0.94872  0.02006  0.34153  1.0000
  H   H1083     1.0  0.77104  0.31074  0.45633  1.0000
  H   H1084     1.0  0.99483  0.03910  0.41331  1.0000
  H   H1085     1.0  0.66047  0.51060  0.40525  1.0000
  H   H1086     1.0  0.78254  0.33440  0.43944  1.0000
  C   C901      1.0  0.64559  0.45233  0.27812  1.0000
  H   H1087     1.0  0.96709  0.03443  0.31214  1.0000
  H   H1088     1.0  0.85306  0.04823  0.26075  1.0000
  H   H1089     1.0  0.67285  0.48978  0.28883  1.0000
  H   H1090     1.0  0.00268  0.39462  0.26711  1.0000
  C   C902      1.0  0.94798  0.40050  0.49485  1.0000
  H   H1091     1.0  0.90973  0.40046  0.46635  1.0000
  H   H1092     1.0  0.59150  0.49491  0.39576  1.0000
  C   C903      1.0  0.65573  0.35224  0.50372  1.0000
  C   C904      1.0  0.53600  0.36013  0.26404  1.0000
  C   C905      1.0  0.88476  0.12244  0.25990  1.0000
  H   H1093     1.0  0.62654  0.32952  0.26109  1.0000
  Fe  Fe121     1.0  0.60371  0.10798  0.71626  1.0000
  S   S240      1.0  0.62548  0.11061  0.68378  1.0000
  H   H1094     1.0  0.75445  0.42637  0.56885  1.0000
  Fe  Fe122     1.0  0.56023  0.12600  0.68997  1.0000
  S   S241      1.0  0.57896  0.12918  0.65571  1.0000
  C   C906      1.0  0.89625  0.45693  0.74973  1.0000
  Fe  Fe123     1.0  0.59505  0.09428  0.66545  1.0000
  S   S242      1.0  0.59945  0.06495  0.63907  1.0000
  Fe  Fe124     1.0  0.60780  0.14510  0.67703  1.0000
  S   S243      1.0  0.63097  0.17579  0.66708  1.0000
  S   S244      1.0  0.57387  0.08970  0.69808  1.0000
  S   S245      1.0  0.58845  0.14407  0.71109  1.0000
  Fe  Fe125     1.0  0.61125  0.34379  0.59798  1.0000
  S   S246      1.0  0.60828  0.31833  0.56826  1.0000
  S   S247      1.0  0.58158  0.36946  0.60394  1.0000
  Fe  Fe126     1.0  0.65949  0.32632  0.61176  1.0000
  S   S248      1.0  0.65978  0.29893  0.58368  1.0000
  S   S249      1.0  0.69009  0.32723  0.63699  1.0000
  Fe  Fe127     1.0  0.64566  0.32767  0.56047  1.0000
  S   S250      1.0  0.66399  0.33169  0.52547  1.0000
  Fe  Fe128     1.0  0.62258  0.29192  0.59392  1.0000
  S   S251      1.0  0.60320  0.25712  0.59586  1.0000
  S   S252      1.0  0.64765  0.35545  0.58807  1.0000
  S   S253      1.0  0.62322  0.31696  0.62408  1.0000
  Fe  Fe129     1.0  0.80163  0.41193  0.65149  1.0000
  S   S254      1.0  0.82890  0.38643  0.63872  1.0000
  S   S255      1.0  0.76199  0.41098  0.64809  1.0000
  Fe  Fe130     1.0  0.83790  0.45129  0.65939  1.0000
  S   S256      1.0  0.86734  0.42922  0.64612  1.0000
  S   S257      1.0  0.84103  0.48744  0.67559  1.0000
  Fe  Fe131     1.0  0.84258  0.41697  0.61798  1.0000
  S   S258      1.0  0.84883  0.41844  0.57875  1.0000
  Fe  Fe132     1.0  0.85128  0.40075  0.66822  1.0000
  S   S259      1.0  0.87855  0.38164  0.69016  1.0000
  S   S260      1.0  0.81453  0.44180  0.62949  1.0000
  S   S261      1.0  0.82276  0.42347  0.68273  1.0000
  C   C907      1.0  0.85522  0.35534  0.52958  1.0000
  C   C908      1.0  0.85217  0.35177  0.55366  1.0000
  C   C909      1.0  0.84984  0.37092  0.56893  1.0000
  C   C910      1.0  0.85051  0.39381  0.56018  1.0000
  C   C911      1.0  0.85295  0.39736  0.53601  1.0000
  C   C912      1.0  0.92035  0.42695  0.53104  1.0000
  H   H1095     1.0  0.85206  0.33410  0.56062  1.0000
  H   H1096     1.0  0.84805  0.36797  0.58751  1.0000
  H   H1097     1.0  0.85341  0.41505  0.52914  1.0000
  H   H1098     1.0  0.52274  0.19051  0.68902  1.0000
  C   C913      1.0  0.85681  0.38203  0.73339  1.0000
  C   C914      1.0  0.87748  0.37857  0.72091  1.0000
  C   C915      1.0  0.89800  0.37247  0.73312  1.0000
  H   H1099     1.0  0.84089  0.38660  0.72420  1.0000
  H   H1100     1.0  0.91406  0.36969  0.72358  1.0000
  H   H1101     1.0  0.55553  0.26905  0.58716  1.0000
  C   C916      1.0  0.91022  0.43726  0.71494  1.0000
  H   H1102     1.0  0.90213  0.38328  0.57963  1.0000
  H   H1103     1.0  0.54315  0.18698  0.61739  1.0000
  H   H1104     1.0  0.88283  0.48319  0.64660  1.0000
  C   C917      1.0  0.71117  0.34989  0.63717  1.0000
  C   C918      1.0  0.73285  0.34593  0.64811  1.0000
  C   C919      1.0  0.74932  0.36414  0.65032  1.0000
  C   C920      1.0  0.74388  0.38661  0.64216  1.0000
  C   C921      1.0  0.72243  0.39042  0.63074  1.0000
  C   C922      1.0  0.70628  0.37207  0.62792  1.0000
  H   H1105     1.0  0.73674  0.32880  0.65532  1.0000
  H   H1106     1.0  0.76569  0.36107  0.65936  1.0000
  H   H1107     1.0  0.71802  0.40781  0.62454  1.0000
  H   H1108     1.0  0.68979  0.37534  0.61928  1.0000
  C   C923      1.0  0.52039  0.37363  0.63969  1.0000
  C   C924      1.0  0.53772  0.37560  0.62236  1.0000
  C   C925      1.0  0.56002  0.36576  0.62572  1.0000
  C   C926      1.0  0.56493  0.35399  0.64662  1.0000
  C   C927      1.0  0.54773  0.35234  0.66407  1.0000
  C   C928      1.0  0.55652  0.30157  0.62011  1.0000
  H   H1109     1.0  0.53385  0.38488  0.60631  1.0000
  H   H1110     1.0  0.58205  0.34648  0.64946  1.0000
  C   C929      1.0  0.69033  0.42001  0.67716  1.0000
  H   H1111     1.0  0.92866  0.44103  0.71988  1.0000
  C   C930      1.0  0.53060  0.19244  0.63044  1.0000
  H   H1112     1.0  0.66908  0.03266  0.67800  1.0000
  H   H1113     1.0  0.90593  0.41952  0.72166  1.0000
  H   H1114     1.0  0.80030  0.40674  0.55257  1.0000
  C   C931      1.0  0.53812  0.27513  0.59344  1.0000
  C   C932      1.0  0.62056  0.04298  0.64499  1.0000
  H   H1115     1.0  0.70672  0.07142  0.65020  1.0000
  C   C933      1.0  0.63782  0.04636  0.66197  1.0000
  C   C934      1.0  0.71167  0.34922  0.56802  1.0000
  H   H1116     1.0  0.63798  0.06226  0.67215  1.0000
  C   C935      1.0  0.62244  0.19850  0.64773  1.0000
  C   C936      1.0  0.60234  0.19677  0.63386  1.0000
  C   C937      1.0  0.59670  0.21485  0.61799  1.0000
  C   C938      1.0  0.61094  0.23486  0.61604  1.0000
  C   C939      1.0  0.63088  0.23667  0.63008  1.0000
  C   C940      1.0  0.63667  0.21847  0.64572  1.0000
  H   H1117     1.0  0.59137  0.18139  0.63514  1.0000
  H   H1118     1.0  0.58132  0.21328  0.60708  1.0000
  H   H1119     1.0  0.64200  0.25195  0.62869  1.0000
  H   H1120     1.0  0.65229  0.21989  0.65633  1.0000
  N   N64       1.0  0.64107  0.37554  0.67071  1.0000
  C   C941      1.0  0.63876  0.35053  0.67775  1.0000
  C   C942      1.0  0.62196  0.38874  0.68227  1.0000
  C   C943      1.0  0.63762  0.37684  0.64512  1.0000
  C   C944      1.0  0.66410  0.38585  0.67668  1.0000
  C   C945      1.0  0.68306  0.37230  0.68557  1.0000
  C   C946      1.0  0.70480  0.38251  0.69024  1.0000
  H   H1121     1.0  0.64162  0.34820  0.69684  1.0000
  H   H1122     1.0  0.62109  0.34346  0.67363  1.0000
  H   H1123     1.0  0.65136  0.33914  0.66820  1.0000
  H   H1124     1.0  0.60453  0.38060  0.67894  1.0000
  H   H1125     1.0  0.62045  0.40704  0.67576  1.0000
  H   H1126     1.0  0.65179  0.36716  0.63603  1.0000
  H   H1127     1.0  0.62058  0.36915  0.63963  1.0000
  H   H1128     1.0  0.63779  0.39515  0.63842  1.0000
  H   H1129     1.0  0.68190  0.35359  0.68829  1.0000
  C   C947      1.0  0.53551  0.18846  0.65395  1.0000
  H   H1130     1.0  0.69491  0.03650  0.62764  1.0000
  C   C948      1.0  0.89990  0.47781  0.71176  1.0000
  H   H1131     1.0  0.55108  0.26672  0.65070  1.0000
  C   C949      1.0  0.90911  0.41920  0.57101  1.0000
  H   H1132     1.0  0.86760  0.44854  0.69811  1.0000
  H   H1133     1.0  0.91812  0.48356  0.71543  1.0000
  C   C950      1.0  0.51920  0.19462  0.67083  1.0000
  H   H1134     1.0  0.90464  0.42551  0.58829  1.0000
  C   C951      1.0  0.86403  0.50694  0.66885  1.0000
  C   C952      1.0  0.91868  0.40280  0.52527  1.0000
  H   H1135     1.0  0.86476  0.43153  0.72397  1.0000
  N   N65       1.0  0.65117  0.11927  0.61223  1.0000
  C   C953      1.0  0.65930  0.13885  0.62728  1.0000
  C   C954      1.0  0.65487  0.12639  0.58760  1.0000
  C   C955      1.0  0.62574  0.11638  0.61625  1.0000
  C   C956      1.0  0.66339  0.09678  0.61684  1.0000
  C   C957      1.0  0.65708  0.07628  0.60429  1.0000
  C   C958      1.0  0.68174  0.09447  0.63353  1.0000
  C   C959      1.0  0.66852  0.05492  0.60805  1.0000
  C   C960      1.0  0.69308  0.07299  0.63711  1.0000
  H   H1136     1.0  0.52944  0.29843  0.66251  1.0000
  H   H1137     1.0  0.67813  0.14281  0.62457  1.0000
  H   H1138     1.0  0.64961  0.15544  0.62359  1.0000
  H   H1139     1.0  0.65631  0.13498  0.64612  1.0000
  H   H1140     1.0  0.67386  0.12804  0.58370  1.0000
  H   H1141     1.0  0.64644  0.14359  0.58369  1.0000
  H   H1142     1.0  0.64737  0.11351  0.57512  1.0000
  H   H1143     1.0  0.62250  0.10932  0.63400  1.0000
  H   H1144     1.0  0.61608  0.13329  0.61467  1.0000
  H   H1145     1.0  0.61740  0.10393  0.60390  1.0000
  H   H1146     1.0  0.64287  0.07644  0.59183  1.0000
  H   H1147     1.0  0.68746  0.10888  0.64429  1.0000
  H   H1148     1.0  0.90921  0.43580  0.69555  1.0000
  C   C961      1.0  0.74986  0.35644  0.58490  1.0000
  H   H1149     1.0  0.53430  0.24765  0.63225  1.0000
  C   C962      1.0  0.71306  0.37028  0.55577  1.0000
  H   H1150     1.0  0.77292  0.40304  0.53792  1.0000
  C   C963      1.0  0.66848  0.41003  0.67252  1.0000
  H   H1151     1.0  0.62471  0.38939  0.70150  1.0000
  C   C964      1.0  0.70845  0.40627  0.68602  1.0000
  H   H1152     1.0  0.65522  0.42129  0.66504  1.0000
  H   H1153     1.0  0.64950  0.01223  0.72415  1.0000
  H   H1154     1.0  0.69351  0.43836  0.67334  1.0000
  H   H1155     1.0  0.75524  0.41639  0.59857  1.0000
  N   N66       1.0  0.89414  0.45554  0.72397  1.0000
  N   N67       1.0  0.53904  0.28246  0.61830  1.0000
  C   C965      1.0  0.88274  0.50031  0.65466  1.0000
  H   H1156     1.0  0.56041  0.30629  0.63849  1.0000
  H   H1157     1.0  0.62884  0.36902  0.52387  1.0000
  C   C966      1.0  0.52543  0.36221  0.66073  1.0000
  H   H1158     1.0  0.76303  0.35025  0.59697  1.0000
  H   H1159     1.0  0.55175  0.34356  0.68037  1.0000
  C   C967      1.0  0.85522  0.37819  0.52074  1.0000
  C   C968      1.0  0.78448  0.39533  0.55155  1.0000
  H   H1160     1.0  0.73334  0.40043  0.54764  1.0000
  H   H1161     1.0  0.89857  0.47585  0.69247  1.0000
  H   H1162     1.0  0.79031  0.37781  0.54533  1.0000
  H   H1163     1.0  0.53313  0.29004  0.58183  1.0000
  H   H1164     1.0  0.69855  0.37554  0.54466  1.0000
  C   C969      1.0  0.73001  0.34231  0.58251  1.0000
  H   H1165     1.0  0.55166  0.17990  0.65915  1.0000
  H   H1166     1.0  0.52585  0.26028  0.59076  1.0000
  C   C970      1.0  0.90770  0.39536  0.56607  1.0000
  C   C971      1.0  0.91226  0.38715  0.54356  1.0000
  C   C972      1.0  0.76542  0.41725  0.58205  1.0000
  H   H1167     1.0  0.72562  0.41386  0.68883  1.0000
  H   H1168     1.0  0.55034  0.31775  0.61101  1.0000
  C   C973      1.0  0.65542  0.02948  0.66530  1.0000
  H   H1169     1.0  0.79770  0.36759  0.58654  1.0000
  H   H1170     1.0  0.91627  0.45354  0.55750  1.0000
  H   H1171     1.0  0.71926  0.37173  0.69625  1.0000
  C   C974      1.0  0.73298  0.38439  0.55771  1.0000
  H   H1172     1.0  0.80542  0.39710  0.59298  1.0000
  N   N68       1.0  0.77270  0.39345  0.57452  1.0000
  H   H1173     1.0  0.57356  0.29653  0.61217  1.0000
  C   C975      1.0  0.91548  0.43496  0.55356  1.0000
  H   H1174     1.0  0.78277  0.38352  0.60948  1.0000
  C   C976      1.0  0.79031  0.38488  0.59163  1.0000
  C   C977      1.0  0.75195  0.37801  0.57251  1.0000
  C   C978      1.0  0.86987  0.44915  0.71742  1.0000
  H   H1175     1.0  0.66289  0.03930  0.59885  1.0000
  H   H1176     1.0  0.78076  0.42885  0.58540  1.0000
  H   H1177     1.0  0.91616  0.51049  0.64038  1.0000
  S   S262      1.0  0.52272  0.13865  0.69412  1.0000
  C   C979      1.0  0.51627  0.29059  0.62752  1.0000
  S   S263      1.0  0.62533  0.09105  0.74528  1.0000
  H   H1178     1.0  0.52425  0.11674  0.64815  1.0000
  H   H1179     1.0  0.69624  0.33829  0.56643  1.0000
  C   C980      1.0  0.51434  0.29782  0.65113  1.0000
  C   C981      1.0  0.68655  0.05330  0.62434  1.0000
  H   H1180     1.0  0.88751  0.49209  0.71644  1.0000
  H   H1181     1.0  0.91001  0.36854  0.54090  1.0000
  H   H1182     1.0  0.72847  0.32618  0.59250  1.0000
  H   H1183     1.0  0.56400  0.25486  0.62528  1.0000
  C   C982      1.0  0.54735  0.26208  0.63224  1.0000
  H   H1184     1.0  0.63945  0.14952  0.75108  1.0000
  C   C983      1.0  0.89793  0.37002  0.75761  1.0000
  H   H1185     1.0  0.85704  0.46214  0.72417  1.0000
  H   H1186     1.0  0.79386  0.33143  0.51328  1.0000
  C   C984      1.0  0.62070  0.02217  0.63187  1.0000
  H   H1187     1.0  0.92514  0.43988  0.51810  1.0000
  S   S264      1.0  0.85891  0.33074  0.51126  1.0000
  H   H1188     1.0  0.67214  0.12148  0.75105  1.0000
  C   C985      1.0  0.85659  0.37893  0.75779  1.0000
  H   H1189     1.0  0.60738  0.01940  0.61872  1.0000
  H   H1190     1.0  0.90675  0.49390  0.75257  1.0000
  H   H1191     1.0  0.88616  0.42058  0.75595  1.0000
  H   H1192     1.0  0.71413  0.35177  0.51028  1.0000
  Fe  Fe133     1.0  0.67919  0.04611  0.89036  1.0000
  S   S265      1.0  0.64468  0.05998  0.90249  1.0000
  H   H1193     1.0  0.55302  0.12978  0.99921  1.0000
  Fe  Fe134     1.0  0.70331  0.09424  0.89516  1.0000
  S   S266      1.0  0.66979  0.11111  0.90704  1.0000
  S   S267      1.0  0.73178  0.12193  0.89147  1.0000
  Fe  Fe135     1.0  0.66578  0.07932  0.92962  1.0000
  S   S268      1.0  0.65529  0.07972  0.96783  1.0000
  Fe  Fe136     1.0  0.65229  0.09035  0.87868  1.0000
  S   S269      1.0  0.62405  0.10589  0.85527  1.0000
  S   S270      1.0  0.70016  0.06317  0.91928  1.0000
  S   S271      1.0  0.68588  0.07574  0.86509  1.0000
  Fe  Fe137     1.0  0.86434  0.14179  0.92465  1.0000
  S   S272      1.0  0.85514  0.17770  0.93784  1.0000
  S   S273      1.0  0.84149  0.11356  0.90843  1.0000
  Fe  Fe138     1.0  0.91518  0.14534  0.94256  1.0000
  S   S274      1.0  0.90954  0.18098  0.95801  1.0000
  S   S275      1.0  0.94957  0.12580  0.94623  1.0000
  Fe  Fe139     1.0  0.87497  0.16641  0.97020  1.0000
  H   H1194     1.0  0.00271  0.24610  0.86082  1.0000
  Fe  Fe140     1.0  0.89060  0.18909  0.92443  1.0000
  S   S276      1.0  0.90236  0.21774  0.89923  1.0000
  S   S277      1.0  0.88230  0.13015  0.95753  1.0000
  S   S278      1.0  0.89806  0.15378  0.90851  1.0000
  Fe  Fe141     1.0  0.95422  0.36412  0.84906  1.0000
  S   S279      1.0  0.94226  0.37680  0.88393  1.0000
  S   S280      1.0  0.99057  0.34807  0.84651  1.0000
  Fe  Fe142     1.0  0.90514  0.37026  0.82720  1.0000
  S   S281      1.0  0.89036  0.38265  0.86144  1.0000
  S   S282      1.0  0.87557  0.36841  0.80053  1.0000
  Fe  Fe143     1.0  0.92268  0.40458  0.86371  1.0000
  S   S283      1.0  0.92469  0.44324  0.87296  1.0000
  Fe  Fe144     1.0  0.91127  0.35343  0.87780  1.0000
  S   S284      1.0  0.89790  0.32915  0.90648  1.0000
  S   S285      1.0  0.93687  0.39356  0.82880  1.0000
  S   S286      1.0  0.92382  0.33951  0.84362  1.0000
  H   H1195     1.0  0.72558  0.12646  0.81180  1.0000
  C   C986      1.0  0.93277  0.13321  0.85287  1.0000
  H   H1196     1.0  0.65743  0.17146  0.82004  1.0000
  C   C987      1.0  0.94086  0.07473  0.89843  1.0000
  H   H1197     1.0  0.69518  0.17923  0.83466  1.0000
  C   C988      1.0  0.86120  0.49230  0.87936  1.0000
  H   H1198     1.0  0.80220  0.15155  0.99467  1.0000
  C   C989      1.0  0.90314  0.48551  0.88076  1.0000
  C   C990      1.0  0.89995  0.46181  0.87490  1.0000
  C   C991      1.0  0.87731  0.45352  0.87080  1.0000
  C   C992      1.0  0.85803  0.46872  0.87304  1.0000
  H   H1199     1.0  0.98049  0.16257  0.87508  1.0000
  H   H1200     1.0  0.92061  0.49206  0.88396  1.0000
  H   H1201     1.0  0.87462  0.43534  0.86621  1.0000
  H   H1202     1.0  0.84055  0.46209  0.87014  1.0000
  C   C993      1.0  0.90148  0.24860  0.90231  1.0000
  C   C994      1.0  0.91080  0.26249  0.88431  1.0000
  C   C995      1.0  0.90971  0.28709  0.88532  1.0000
  C   C996      1.0  0.89935  0.29814  0.90443  1.0000
  C   C997      1.0  0.89030  0.28428  0.92262  1.0000
  C   C998      1.0  0.89134  0.25958  0.92159  1.0000
  H   H1203     1.0  0.91852  0.25413  0.86926  1.0000
  H   H1204     1.0  0.91680  0.29742  0.87122  1.0000
  H   H1205     1.0  0.88227  0.29266  0.93750  1.0000
  H   H1206     1.0  0.88402  0.24908  0.93552  1.0000
  C   C999      1.0  0.97115  0.13139  0.92494  1.0000
  C   C1000     1.0  0.96696  0.14707  0.90663  1.0000
  C   C1001     1.0  0.98395  0.15049  0.88929  1.0000
  H   H1207     1.0  0.61193  0.05859  0.99809  1.0000
  C   C1002     1.0  0.99264  0.11946  0.92601  1.0000
  H   H1208     1.0  0.95055  0.15645  0.90563  1.0000
  H   H1209     1.0  0.57972  0.02575  0.86741  1.0000
  C   C1003     1.0  0.76183  0.11889  0.89849  1.0000
  C   C1004     1.0  0.77285  0.09701  0.89926  1.0000
  C   C1005     1.0  0.79723  0.09561  0.90277  1.0000
  C   C1006     1.0  0.81067  0.11598  0.90610  1.0000
  C   C1007     1.0  0.79948  0.13778  0.90622  1.0000
  C   C1008     1.0  0.77523  0.13922  0.90215  1.0000
  H   H1210     1.0  0.76275  0.08124  0.89643  1.0000
  H   H1211     1.0  0.80573  0.07866  0.90264  1.0000
  H   H1212     1.0  0.80962  0.15359  0.90866  1.0000
  H   H1213     1.0  0.76683  0.15622  0.90159  1.0000
  C   C1009     1.0  0.62507  0.10272  0.82455  1.0000
  C   C1010     1.0  0.60752  0.11297  0.81064  1.0000
  C   C1011     1.0  0.60732  0.10981  0.78624  1.0000
  C   C1012     1.0  0.62457  0.09610  0.77568  1.0000
  C   C1013     1.0  0.64206  0.08585  0.78962  1.0000
  C   C1014     1.0  0.64250  0.08938  0.81386  1.0000
  H   H1214     1.0  0.59394  0.12333  0.81876  1.0000
  H   H1215     1.0  0.59377  0.11778  0.77564  1.0000
  H   H1216     1.0  0.65554  0.07536  0.78153  1.0000
  H   H1217     1.0  0.65621  0.08154  0.82422  1.0000
  C   C1015     1.0  0.65963  0.10489  0.98522  1.0000
  C   C1016     1.0  0.83342  0.26742  0.88827  1.0000
  C   C1017     1.0  0.66519  0.12661  0.97531  1.0000
  C   C1018     1.0  0.91497  0.10145  0.87584  1.0000
  H   H1218     1.0  0.66812  0.12803  0.95674  1.0000
  H   H1219     1.0  0.98876  0.19192  0.92710  1.0000
  H   H1220     1.0  0.71905  0.16328  0.84715  1.0000
  H   H1221     1.0  0.94909  0.28606  0.93173  1.0000
  H   H1222     1.0  0.84296  0.23146  0.89487  1.0000
  C   C1019     1.0  0.00991  0.37376  0.88282  1.0000
  C   C1020     1.0  0.99219  0.20396  0.91281  1.0000
  H   H1223     1.0  0.78550  0.12271  0.97116  1.0000
  C   C1021     1.0  0.68400  0.13039  0.78577  1.0000
  H   H1224     1.0  0.94825  0.14268  0.84733  1.0000
  C   C1022     1.0  0.96548  0.31246  0.89811  1.0000
  C   C1023     1.0  0.96226  0.15462  0.99839  1.0000
  H   H1225     1.0  0.97907  0.32042  0.88669  1.0000
  H   H1226     1.0  0.60690  0.09907  0.98722  1.0000
  H   H1227     1.0  0.97548  0.14624  0.98683  1.0000
  C   C1024     1.0  0.60032  0.09397  0.00416  1.0000
  H   H1228     1.0  0.67001  0.16360  0.98151  1.0000
  C   C1025     1.0  0.59815  0.03157  0.86520  1.0000
  H   H1229     1.0  0.63228  0.17438  0.78563  1.0000
  H   H1230     1.0  0.96347  0.24056  0.87587  1.0000
  N   N69       1.0  0.97128  0.31581  0.92307  1.0000
  C   C1026     1.0  0.97016  0.34135  0.92815  1.0000
  H   H1231     1.0  0.63493  0.05268  0.84819  1.0000
  C   C1027     1.0  0.95304  0.30421  0.93752  1.0000
  C   C1028     1.0  0.70743  0.16445  0.83149  1.0000
  H   H1232     1.0  0.75102  0.11298  0.94791  1.0000
  H   H1233     1.0  0.60390  0.02037  0.79311  1.0000
  H   H1234     1.0  0.55862  0.15955  0.00816  1.0000
  S   S287      1.0  0.83639  0.51068  0.88201  1.0000
  C   C1029     1.0  0.88387  0.50073  0.88298  1.0000
  C   C1030     1.0  0.89165  0.43689  0.76373  1.0000
  H   H1235     1.0  0.95203  0.34835  0.92632  1.0000
  H   H1236     1.0  0.97606  0.34519  0.94626  1.0000
  C   C1031     1.0  0.89433  0.43733  0.78800  1.0000
  H   H1237     1.0  0.81495  0.11101  0.99500  1.0000
  H   H1238     1.0  0.88832  0.12889  0.00626  1.0000
  H   H1239     1.0  0.95825  0.30371  0.95625  1.0000
  H   H1240     1.0  0.93595  0.31355  0.93644  1.0000
  H   H1241     1.0  0.96961  0.17163  0.00443  1.0000
  C   C1032     1.0  0.90419  0.08724  0.91417  1.0000
  H   H1242     1.0  0.59965  0.04955  0.87267  1.0000
  C   C1033     1.0  0.64695  0.16233  0.78565  1.0000
  H   H1243     1.0  0.59964  0.05427  0.81058  1.0000
  C   C1034     1.0  0.76952  0.11861  0.98036  1.0000
  C   C1035     1.0  0.99462  0.30547  0.92777  1.0000
  H   H1244     1.0  0.59636  0.16165  0.98864  1.0000
  H   H1245     1.0  0.98086  0.35178  0.91569  1.0000
  C   C1036     1.0  0.85806  0.24446  0.86307  1.0000
  H   H1246     1.0  0.82306  0.26886  0.90402  1.0000
  H   H1247     1.0  0.66751  0.15125  0.85195  1.0000
  H   H1248     1.0  0.88600  0.06305  0.87903  1.0000
  H   H1249     1.0  0.91382  0.36531  0.76679  1.0000
  H   H1250     1.0  0.94144  0.05946  0.91057  1.0000
  H   H1251     1.0  0.90915  0.15574  0.83397  1.0000
  C   C1037     1.0  0.74986  0.11314  0.96683  1.0000
  H   H1252     1.0  0.61708  0.13857  0.99207  1.0000
  C   C1038     1.0  0.89286  0.10937  0.86766  1.0000
  H   H1253     1.0  0.95595  0.21350  0.90865  1.0000
  H   H1254     1.0  0.94998  0.08930  0.90763  1.0000
  C   C1039     1.0  0.84448  0.24632  0.88310  1.0000
  H   H1255     1.0  0.82716  0.30279  0.87831  1.0000
  H   H1256     1.0  0.69070  0.13441  0.86409  1.0000
  N   N70       1.0  0.85334  0.30675  0.83829  1.0000
  C   C1040     1.0  0.86205  0.32659  0.85254  1.0000
  C   C1041     1.0  0.87025  0.30324  0.81894  1.0000
  C   C1042     1.0  0.83060  0.31355  0.82778  1.0000
  C   C1043     1.0  0.85026  0.28573  0.85323  1.0000
  H   H1257     1.0  0.91164  0.10336  0.92209  1.0000
  C   C1044     1.0  0.59224  0.04998  0.82800  1.0000
  C   C1045     1.0  0.66137  0.16036  0.80532  1.0000
  H   H1258     1.0  0.66969  0.12083  0.84513  1.0000
  C   C1046     1.0  0.99767  0.28075  0.92862  1.0000
  H   H1259     1.0  0.87859  0.32182  0.86155  1.0000
  H   H1260     1.0  0.86547  0.34238  0.84165  1.0000
  H   H1261     1.0  0.84955  0.33229  0.86617  1.0000
  H   H1262     1.0  0.88791  0.29851  0.82572  1.0000
  H   H1263     1.0  0.87257  0.31949  0.80834  1.0000
  H   H1264     1.0  0.86420  0.28955  0.80652  1.0000
  H   H1265     1.0  0.63670  0.03769  0.82074  1.0000
  H   H1266     1.0  0.82316  0.29897  0.81725  1.0000
  H   H1267     1.0  0.81750  0.31838  0.84123  1.0000
  H   H1268     1.0  0.86705  0.22810  0.85950  1.0000
  C   C1047     1.0  0.86103  0.26380  0.84829  1.0000
  C   C1048     1.0  0.85097  0.50647  0.81578  1.0000
  H   H1269     1.0  0.86732  0.49594  0.81497  1.0000
  N   N71       1.0  0.69493  0.14207  0.82738  1.0000
  H   H1270     1.0  0.88522  0.09050  0.91141  1.0000
  C   C1049     1.0  0.71275  0.12313  0.82598  1.0000
  H   H1271     1.0  0.95254  0.10955  0.87331  1.0000
  C   C1050     1.0  0.00536  0.13846  0.89019  1.0000
  H   H1272     1.0  0.99602  0.10728  0.94014  1.0000
  C   C1051     1.0  0.66625  0.14676  0.98940  1.0000
  H   H1273     1.0  0.90555  0.07296  0.92738  1.0000
  H   H1274     1.0  0.59294  0.06684  0.83776  1.0000
  C   C1052     1.0  0.97800  0.23123  0.88386  1.0000
  H   H1275     1.0  0.94851  0.32088  0.89347  1.0000
  C   C1053     1.0  0.91078  0.14057  0.84530  1.0000
  N   N72       1.0  0.60525  0.03094  0.84024  1.0000
  H   H1276     1.0  0.87370  0.13463  0.84714  1.0000
  H   H1277     1.0  0.95114  0.06988  0.88270  1.0000
  C   C1054     1.0  0.72861  0.10803  0.97751  1.0000
  C   C1055     1.0  0.93497  0.11396  0.86791  1.0000
  C   C1056     1.0  0.68020  0.14412  0.80613  1.0000
  C   C1057     1.0  0.97370  0.21605  0.90244  1.0000
  H   H1278     1.0  0.87225  0.26118  0.83343  1.0000
  C   C1058     1.0  0.68008  0.13699  0.84795  1.0000
  C   C1059     1.0  0.89087  0.12863  0.85264  1.0000
  H   H1279     1.0  0.72315  0.12166  0.84242  1.0000
  H   H1280     1.0  0.70443  0.10570  0.82326  1.0000
  H   H1281     1.0  0.87681  0.10114  0.87333  1.0000
  N   N73       1.0  0.91647  0.08133  0.89221  1.0000
  C   C1060     1.0  0.90585  0.47794  0.78596  1.0000
  H   H1282     1.0  0.83249  0.32913  0.81606  1.0000
  H   H1283     1.0  0.91290  0.05635  0.86437  1.0000
  C   C1061     1.0  0.83605  0.28681  0.87350  1.0000
  H   H1284     1.0  0.71846  0.16922  0.81622  1.0000
  H   H1285     1.0  0.90693  0.04468  0.89302  1.0000
  C   C1062     1.0  0.90512  0.06047  0.88168  1.0000
  H   H1286     1.0  0.69768  0.11742  0.78466  1.0000
  C   C1063     1.0  0.63058  0.03603  0.83907  1.0000
  H   H1287     1.0  0.91155  0.49379  0.79469  1.0000
  H   H1288     1.0  0.98320  0.26898  0.92555  1.0000
  H   H1289     1.0  0.83813  0.49881  0.80345  1.0000
  H   H1290     1.0  0.89099  0.42160  0.79822  1.0000
  H   H1291     1.0  0.90404  0.45787  0.81794  1.0000
  H   H1292     1.0  0.58993  0.13346  0.97673  1.0000
  C   C1064     1.0  0.90159  0.45776  0.79910  1.0000
  H   H1293     1.0  0.96416  0.29361  0.89342  1.0000
  C   C1065     1.0  0.00975  0.12303  0.90872  1.0000
  C   C1066     1.0  0.87713  0.37298  0.77001  1.0000
  H   H1294     1.0  0.99472  0.38499  0.88151  1.0000
  C   C1067     1.0  0.59802  0.14247  0.99194  1.0000
  C   C1068     1.0  0.65101  0.14846  0.76612  1.0000
  H   H1295     1.0  0.64102  0.02184  0.84753  1.0000
  H   H1296     1.0  0.57349  0.04530  0.82572  1.0000
  H   H1297     1.0  0.95655  0.10854  0.99653  1.0000
  H   H1298     1.0  0.84041  0.38118  0.76725  1.0000
  H   H1299     1.0  0.94701  0.15812  0.98680  1.0000
  C   C1069     1.0  0.00073  0.23409  0.87527  1.0000
  C   C1070     1.0  0.65611  0.10335  0.00943  1.0000
  C   C1071     1.0  0.90314  0.47769  0.76164  1.0000
  H   H1300     1.0  0.60966  0.02048  0.87638  1.0000
  H   H1301     1.0  0.84336  0.50366  0.83344  1.0000
  S   S288      1.0  0.85958  0.17094  0.00638  1.0000
  H   H1302     1.0  0.92853  0.12219  0.99911  1.0000
  C   C1072     1.0  0.66956  0.13266  0.76613  1.0000
  H   H1303     1.0  0.71337  0.10384  0.96697  1.0000
  C   C1073     1.0  0.72692  0.10840  0.00175  1.0000
  C   C1074     1.0  0.76849  0.11901  0.00515  1.0000
  C   C1075     1.0  0.94479  0.11783  0.00893  1.0000
  Fe  Fe145     1.0  0.90547  0.65719  0.10409  1.0000
  S   S289      1.0  0.90658  0.68403  0.07530  1.0000
  S   S290      1.0  0.93982  0.63730  0.10793  1.0000
  Fe  Fe146     1.0  0.85510  0.66959  0.11629  1.0000
  S   S291      1.0  0.85375  0.69815  0.08920  1.0000
  S   S292      1.0  0.82134  0.66613  0.13702  1.0000
  Fe  Fe147     1.0  0.87067  0.67160  0.06570  1.0000
  S   S293      1.0  0.85333  0.66918  0.02995  1.0000
  Fe  Fe148     1.0  0.88970  0.70804  0.10138  1.0000
  S   S294      1.0  0.90692  0.74405  0.10348  1.0000
  S   S295      1.0  0.87050  0.64256  0.09229  1.0000
  S   S296      1.0  0.89011  0.68170  0.13061  1.0000
  Fe  Fe149     1.0  0.95879  0.87255  0.18789  1.0000
  S   S297      1.0  0.93392  0.86987  0.15754  1.0000
  S   S298      1.0  0.99634  0.85940  0.19037  1.0000
  Fe  Fe150     1.0  0.92089  0.89149  0.22100  1.0000
  S   S299      1.0  0.89297  0.88994  0.19346  1.0000
  H   H1304     1.0  0.65068  0.73281  0.09746  1.0000
  Fe  Fe151     1.0  0.90876  0.85501  0.18373  1.0000
  S   S300      1.0  0.88460  0.82420  0.17720  1.0000
  Fe  Fe152     1.0  0.92001  0.90498  0.16952  1.0000
  S   S301      1.0  0.91248  0.93437  0.14382  1.0000
  S   S302      1.0  0.93435  0.85530  0.21355  1.0000
  S   S303      1.0  0.94720  0.90890  0.19752  1.0000
  Fe  Fe153     1.0  0.70837  0.58522  0.13987  1.0000
  S   S304      1.0  0.68385  0.61595  0.13710  1.0000
  S   S305      1.0  0.74575  0.58469  0.12615  1.0000
  Fe  Fe154     1.0  0.67024  0.55254  0.16028  1.0000
  S   S306      1.0  0.64304  0.58087  0.15821  1.0000
  C   C1076     1.0  0.99035  0.81615  0.14381  1.0000
  Fe  Fe155     1.0  0.65835  0.58956  0.12300  1.0000
  S   S307      1.0  0.63392  0.59517  0.09215  1.0000
  Fe  Fe156     1.0  0.67077  0.60448  0.17255  1.0000
  S   S308      1.0  0.66487  0.62897  0.20313  1.0000
  S   S309      1.0  0.68334  0.55910  0.12383  1.0000
  S   S310      1.0  0.69751  0.57591  0.17643  1.0000
  C   C1077     1.0  0.64354  0.61150  0.06770  1.0000
  C   C1078     1.0  0.62869  0.61411  0.04825  1.0000
  C   C1079     1.0  0.63576  0.62729  0.02866  1.0000
  C   C1080     1.0  0.65772  0.63805  0.02847  1.0000
  C   C1081     1.0  0.67251  0.63549  0.04794  1.0000
  C   C1082     1.0  0.66552  0.62219  0.06743  1.0000
  H   H1305     1.0  0.61162  0.60595  0.04835  1.0000
  C   C1083     1.0  0.97165  0.74109  0.12083  1.0000
  H   H1306     1.0  0.68938  0.64401  0.04810  1.0000
  H   H1307     1.0  0.67707  0.62037  0.08231  1.0000
  C   C1084     1.0  0.88024  0.63361  0.01068  1.0000
  C   C1085     1.0  0.64427  0.62203  0.22507  1.0000
  C   C1086     1.0  0.62887  0.60317  0.22258  1.0000
  C   C1087     1.0  0.97957  0.89046  0.24753  1.0000
  H   H1308     1.0  0.62863  0.59328  0.20654  1.0000
  C   C1088     1.0  0.89241  0.95722  0.15010  1.0000
  C   C1089     1.0  0.89304  0.97801  0.13686  1.0000
  C   C1090     1.0  0.87679  0.99617  0.14081  1.0000
  C   C1091     1.0  0.85938  0.99343  0.15768  1.0000
  C   C1092     1.0  0.85867  0.97258  0.17084  1.0000
  C   C1093     1.0  0.87526  0.95468  0.16730  1.0000
  H   H1309     1.0  0.90619  0.98011  0.12348  1.0000
  H   H1310     1.0  0.62420  0.62920  0.01379  1.0000
  H   H1311     1.0  0.84518  0.97024  0.18383  1.0000
  H   H1312     1.0  0.87447  0.93875  0.17752  1.0000
  H   H1313     1.0  0.85755  0.79327  0.10292  1.0000
  H   H1314     1.0  0.98966  0.56454  0.16605  1.0000
  C   C1094     1.0  0.86154  0.83050  0.10833  1.0000
  C   C1095     1.0  0.79292  0.58876  0.01654  1.0000
  H   H1315     1.0  0.88981  0.63320  0.02699  1.0000
  C   C1096     1.0  0.90152  0.76506  0.12552  1.0000
  C   C1097     1.0  0.91638  0.78463  0.12732  1.0000
  C   C1098     1.0  0.91172  0.80261  0.14344  1.0000
  C   C1099     1.0  0.89205  0.80124  0.15783  1.0000
  C   C1100     1.0  0.87745  0.78148  0.15633  1.0000
  C   C1101     1.0  0.88224  0.76337  0.14035  1.0000
  H   H1316     1.0  0.93118  0.78624  0.11573  1.0000
  H   H1317     1.0  0.92299  0.81779  0.14430  1.0000
  H   H1318     1.0  0.86223  0.78025  0.16743  1.0000
  H   H1319     1.0  0.87066  0.74841  0.13912  1.0000
  C   C1102     1.0  0.80089  0.64288  0.13467  1.0000
  C   C1103     1.0  0.80617  0.62211  0.12291  1.0000
  C   C1104     1.0  0.78918  0.60436  0.12086  1.0000
  C   C1105     1.0  0.76665  0.60728  0.13016  1.0000
  C   C1106     1.0  0.76135  0.62805  0.14194  1.0000
  C   C1107     1.0  0.77848  0.64565  0.14436  1.0000
  H   H1320     1.0  0.82344  0.61957  0.11570  1.0000
  H   H1321     1.0  0.79360  0.58810  0.11233  1.0000
  H   H1322     1.0  0.74412  0.63048  0.14931  1.0000
  H   H1323     1.0  0.77426  0.66162  0.15361  1.0000
  C   C1108     1.0  0.96744  0.64469  0.17315  1.0000
  C   C1109     1.0  0.95140  0.64424  0.15443  1.0000
  C   C1110     1.0  0.95939  0.64111  0.13161  1.0000
  C   C1111     1.0  0.98357  0.63956  0.12758  1.0000
  C   C1112     1.0  0.64308  0.69794  0.08574  1.0000
  H   H1324     1.0  0.93281  0.64533  0.15777  1.0000
  H   H1325     1.0  0.98990  0.63733  0.10994  1.0000
  H   H1326     1.0  0.84678  0.83085  0.12004  1.0000
  H   H1327     1.0  0.90555  0.86306  0.08401  1.0000
  H   H1328     1.0  0.84319  0.88118  0.08626  1.0000
  H   H1329     1.0  0.70084  0.52639  0.24162  1.0000
  H   H1330     1.0  0.59601  0.56918  0.11854  1.0000
  H   H1331     1.0  0.93376  0.71785  0.13679  1.0000
  C   C1113     1.0  0.84561  0.90011  0.25311  1.0000
  H   H1332     1.0  0.73997  0.59934  0.04287  1.0000
  C   C1114     1.0  0.64571  0.72204  0.08269  1.0000
  H   H1333     1.0  0.99467  0.54385  0.06403  1.0000
  H   H1334     1.0  0.94427  0.58509  0.10091  1.0000
  C   C1115     1.0  0.79427  0.58137  0.05880  1.0000
  C   C1116     1.0  0.77080  0.58755  0.06087  1.0000
  H   H1335     1.0  0.59418  0.73109  0.02286  1.0000
  C   C1117     1.0  0.88661  0.80705  0.08371  1.0000
  H   H1336     1.0  0.70377  0.58998  0.25596  1.0000
  H   H1337     1.0  0.56810  0.55860  0.10854  1.0000
  C   C1118     1.0  0.73734  0.65228  0.01801  1.0000
  H   H1338     1.0  0.90432  0.95867  0.22711  1.0000
  C   C1119     1.0  0.58719  0.55859  0.10483  1.0000
  C   C1120     1.0  0.99764  0.70205  0.15906  1.0000
  H   H1339     1.0  0.66407  0.55593  0.21768  1.0000
  C   C1121     1.0  0.64420  0.63484  0.24601  1.0000
  H   H1340     1.0  0.85178  0.89475  0.23605  1.0000
  N   N74       1.0  0.86772  0.87383  0.11382  1.0000
  H   H1341     1.0  0.80396  0.57580  0.07415  1.0000
  H   H1342     1.0  0.76225  0.58674  0.07775  1.0000
  N   N75       1.0  0.59652  0.53432  0.10342  1.0000
  H   H1343     1.0  0.60610  0.54641  0.14879  1.0000
  H   H1344     1.0  0.98813  0.77379  0.18537  1.0000
  H   H1345     1.0  0.80295  0.66890  0.01971  1.0000
  H   H1346     1.0  0.96025  0.88887  0.24734  1.0000
  C   C1122     1.0  0.99960  0.64069  0.14624  1.0000
  H   H1347     1.0  0.97003  0.58789  0.13417  1.0000
  H   H1348     1.0  0.98404  0.70201  0.17209  1.0000
  N   N76       1.0  0.97016  0.71581  0.12668  1.0000
  C   C1123     1.0  0.99155  0.64236  0.16918  1.0000
  C   C1124     1.0  0.97608  0.57744  0.11970  1.0000
  H   H1349     1.0  0.62766  0.54521  0.08511  1.0000
  H   H1350     1.0  0.95586  0.56298  0.06574  1.0000
  C   C1125     1.0  0.78457  0.66440  0.01990  1.0000
  C   C1126     1.0  0.63475  0.75444  0.01635  1.0000
  H   H1351     1.0  0.97441  0.70654  0.09010  1.0000
  H   H1352     1.0  0.86452  0.93268  0.25232  1.0000
  C   C1127     1.0  0.98177  0.80280  0.16227  1.0000
  H   H1353     1.0  0.63068  0.54464  0.11602  1.0000
  H   H1354     1.0  0.72020  0.55080  0.24815  1.0000
  C   C1128     1.0  0.75828  0.59465  0.04120  1.0000
  H   H1355     1.0  0.99734  0.59469  0.16018  1.0000
  C   C1129     1.0  0.90002  0.82681  0.07875  1.0000
  N   N77       1.0  0.68332  0.55881  0.25005  1.0000
  H   H1356     1.0  0.80262  0.69415  0.08111  1.0000
  C   C1130     1.0  0.84391  0.88021  0.10567  1.0000
  C   C1131     1.0  0.86752  0.87187  0.13963  1.0000
  C   C1132     1.0  0.63310  0.69400  0.04489  1.0000
  H   H1357     1.0  0.98468  0.74461  0.10691  1.0000
  H   H1358     1.0  0.95460  0.74793  0.11431  1.0000
  C   C1133     1.0  0.96756  0.56374  0.08065  1.0000
  C   C1134     1.0  0.98256  0.84892  0.25545  1.0000
  C   C1135     1.0  0.96315  0.70277  0.10536  1.0000
  H   H1359     1.0  0.77801  0.66914  0.10081  1.0000
  H   H1360     1.0  0.95370  0.72383  0.15973  1.0000
  C   C1136     1.0  0.95112  0.71269  0.14404  1.0000
  C   C1137     1.0  0.61382  0.59698  0.24097  1.0000
  H   H1361     1.0  0.94511  0.70749  0.09966  1.0000
  H   H1362     1.0  0.69035  0.58855  0.22756  1.0000
  C   C1138     1.0  0.64202  0.73231  0.06074  1.0000
  H   H1363     1.0  0.81344  0.65180  0.08342  1.0000
  C   C1139     1.0  0.99472  0.78389  0.17075  1.0000
  C   C1140     1.0  0.87467  0.85107  0.10350  1.0000
  H   H1364     1.0  0.83054  0.86728  0.11138  1.0000
  H   H1365     1.0  0.88408  0.89670  0.08847  1.0000
  H   H1366     1.0  0.81031  0.69067  0.05138  1.0000
  H   H1367     1.0  0.85406  0.85947  0.14619  1.0000
  C   C1141     1.0  0.79531  0.68949  0.06367  1.0000
  H   H1368     1.0  0.87787  0.91036  0.11567  1.0000
  H   H1369     1.0  0.56767  0.52221  0.08240  1.0000
  C   C1142     1.0  0.80301  0.64811  0.06738  1.0000
  H   H1370     1.0  0.99498  0.88212  0.14451  1.0000
  S   S311      1.0  0.66172  0.51943  0.18108  1.0000
  C   C1143     1.0  0.63674  0.68397  0.06689  1.0000
  C   C1144     1.0  0.59163  0.51787  0.16766  1.0000
  H   H1371     1.0  0.60195  0.58242  0.23887  1.0000
  C   C1145     1.0  0.86747  0.80889  0.09853  1.0000
  H   H1372     1.0  0.86407  0.88907  0.14813  1.0000
  C   C1146     1.0  0.89926  0.97362  0.23767  1.0000
  H   H1373     1.0  0.59685  0.53985  0.23679  1.0000
  H   H1374     1.0  0.59007  0.56856  0.08831  1.0000
  H   H1375     1.0  0.88462  0.86531  0.14617  1.0000
  H   H1376     1.0  0.96341  0.68352  0.10846  1.0000
  H   H1377     1.0  0.91514  0.82516  0.06750  1.0000
  C   C1147     1.0  0.88359  0.89352  0.10763  1.0000
  C   C1148     1.0  0.89426  0.84857  0.08844  1.0000
  N   N78       1.0  0.78438  0.66586  0.06383  1.0000
  C   C1149     1.0  0.76858  0.66476  0.08435  1.0000
  C   C1150     1.0  0.77235  0.66159  0.04128  1.0000
  C   C1151     1.0  0.74838  0.65499  0.03970  1.0000
  C   C1152     1.0  0.00475  0.55442  0.09878  1.0000
  H   H1378     1.0  0.88281  0.99108  0.20927  1.0000
  C   C1153     1.0  0.76909  0.59523  0.01933  1.0000
  C   C1154     1.0  0.63556  0.71850  0.04110  1.0000
  H   H1379     1.0  0.64439  0.75105  0.05964  1.0000
  H   H1380     1.0  0.75396  0.67754  0.08276  1.0000
  H   H1381     1.0  0.90171  0.89039  0.11414  1.0000
  H   H1382     1.0  0.76132  0.64682  0.08705  1.0000
  H   H1383     1.0  0.78239  0.70325  0.05874  1.0000
  H   H1384     1.0  0.73772  0.65198  0.05494  1.0000
  H   H1385     1.0  0.82350  0.57695  0.03676  1.0000
  C   C1155     1.0  0.68787  0.58416  0.24637  1.0000
  C   C1156     1.0  0.98941  0.55297  0.07975  1.0000
  H   H1386     1.0  0.63480  0.66518  0.06929  1.0000
  H   H1387     1.0  0.96528  0.80750  0.17033  1.0000
  H   H1388     1.0  0.84454  0.00792  0.21126  1.0000
  C   C1157     1.0  0.59049  0.52111  0.12489  1.0000
  H   H1389     1.0  0.70517  0.54926  0.22088  1.0000
  H   H1390     1.0  0.62850  0.68229  0.03078  1.0000
  H   H1391     1.0  0.96106  0.64618  0.19085  1.0000
  H   H1392     1.0  0.94954  0.69400  0.14953  1.0000
  H   H1393     1.0  0.98057  0.83134  0.13782  1.0000
  H   H1394     1.0  0.98525  0.88897  0.22902  1.0000
  H   H1395     1.0  0.79555  0.63024  0.06921  1.0000
  C   C1158     1.0  0.99838  0.56632  0.11956  1.0000
  H   H1396     1.0  0.59141  0.53439  0.06604  1.0000
  C   C1159     1.0  0.59673  0.53008  0.14713  1.0000
  C   C1160     1.0  0.80532  0.58205  0.03706  1.0000
  C   C1161     1.0  0.96099  0.57604  0.10052  1.0000
  H   H1397     1.0  0.64601  0.68999  0.10274  1.0000
  C   C1162     1.0  0.66213  0.55207  0.23667  1.0000
  C   C1163     1.0  0.88706  0.99236  0.22761  1.0000
  H   H1398     1.0  0.71894  0.64767  0.01708  1.0000
  H   H1399     1.0  0.65604  0.64948  0.24808  1.0000
  C   C1164     1.0  0.99329  0.70772  0.13523  1.0000
  H   H1400     1.0  0.83833  0.89757  0.11262  1.0000
  H   H1401     1.0  0.89138  0.79010  0.07659  1.0000
  C   C1165     1.0  0.58706  0.52365  0.08173  1.0000
  H   H1402     1.0  0.97653  0.75163  0.13638  1.0000
  C   C1166     1.0  0.62231  0.53542  0.10110  1.0000
  H   H1403     1.0  0.81560  0.64763  0.05268  1.0000
  H   H1404     1.0  0.62248  0.76387  0.02809  1.0000
  N   N79       1.0  0.63134  0.72864  0.01760  1.0000
  H   H1405     1.0  0.64637  0.56171  0.24237  1.0000
  C   C1167     1.0  0.00420  0.57651  0.16113  1.0000
  H   H1406     1.0  0.96324  0.84724  0.25644  1.0000
  C   C1168     1.0  0.70330  0.54568  0.23994  1.0000
  H   H1407     1.0  0.65840  0.53300  0.23843  1.0000
  C   C1169     1.0  0.60559  0.52670  0.24739  1.0000
  H   H1408     1.0  0.63007  0.51756  0.10015  1.0000
  S   S312      1.0  0.91635  0.91012  0.25572  1.0000
  H   H1409     1.0  0.65304  0.75939  0.02082  1.0000
  H   H1410     1.0  0.98380  0.90852  0.25352  1.0000
  H   H1411     1.0  0.67320  0.59528  0.25243  1.0000
  H   H1412     1.0  0.59712  0.52496  0.18432  1.0000
  H   H1413     1.0  0.98736  0.84494  0.23704  1.0000
  H   H1414     1.0  0.82604  0.86890  0.25824  1.0000
  C   C1170     1.0  0.60694  0.72367  0.01025  1.0000
  Fe  Fe157     1.0  0.60043  0.60968  0.37170  1.0000
  S   S313      1.0  0.57148  0.59932  0.34720  1.0000
  S   S314      1.0  0.61926  0.58620  0.39782  1.0000
  Fe  Fe158     1.0  0.60272  0.65952  0.35309  1.0000
  S   S315      1.0  0.57478  0.65284  0.32627  1.0000
  S   S316      1.0  0.62167  0.69451  0.35476  1.0000
  Fe  Fe159     1.0  0.55570  0.63455  0.35548  1.0000
  H   H1415     1.0  0.52332  0.72792  0.35496  1.0000
  Fe  Fe160     1.0  0.59258  0.61835  0.31987  1.0000
  S   S317      1.0  0.59685  0.59898  0.28548  1.0000
  S   S318      1.0  0.58275  0.64338  0.38270  1.0000
  S   S319      1.0  0.62238  0.62651  0.34394  1.0000
  Fe  Fe161     1.0  0.81381  0.91921  0.40077  1.0000
  S   S320      1.0  0.83830  0.88940  0.40871  1.0000
  S   S321      1.0  0.77572  0.91937  0.41238  1.0000
  Fe  Fe162     1.0  0.85434  0.95176  0.38441  1.0000
  S   S322      1.0  0.88152  0.92422  0.39203  1.0000
  S   S323      1.0  0.86288  0.98444  0.36295  1.0000
  Fe  Fe163     1.0  0.85617  0.89950  0.37499  1.0000
  S   S324      1.0  0.86632  0.87269  0.34760  1.0000
  Fe  Fe164     1.0  0.86118  0.91685  0.42504  1.0000
  S   S325      1.0  0.87595  0.91557  0.46201  1.0000
  S   S326      1.0  0.82974  0.92715  0.36585  1.0000
  S   S327      1.0  0.83594  0.94649  0.41865  1.0000
  Fe  Fe165     1.0  0.66271  0.84275  0.41476  1.0000
  S   S328      1.0  0.66942  0.81788  0.44448  1.0000
  S   S329      1.0  0.69102  0.85076  0.38812  1.0000
  Fe  Fe166     1.0  0.61258  0.85259  0.43036  1.0000
  S   S330      1.0  0.61625  0.82957  0.46209  1.0000
  S   S331      1.0  0.57870  0.87300  0.42564  1.0000
  Fe  Fe167     1.0  0.65198  0.84540  0.46661  1.0000
  H   H1416     1.0  0.82664  0.91972  0.31480  1.0000
  Fe  Fe168     1.0  0.63319  0.80415  0.43719  1.0000
  S   S332      1.0  0.62008  0.76651  0.43939  1.0000
  S   S333      1.0  0.64690  0.87078  0.43695  1.0000
  S   S334      1.0  0.62780  0.82654  0.40534  1.0000
  C   C1171     1.0  0.54461  0.85466  0.36573  1.0000
  C   C1172     1.0  0.56186  0.85647  0.38325  1.0000
  C   C1173     1.0  0.55710  0.86867  0.40383  1.0000
  C   C1174     1.0  0.53485  0.87867  0.40687  1.0000
  N   N80       1.0  0.62098  0.90766  0.37585  1.0000
  H   H1417     1.0  0.57900  0.84905  0.38050  1.0000
  C   C1175     1.0  0.92936  0.87856  0.47049  1.0000
  C   C1176     1.0  0.78720  0.93105  0.47815  1.0000
  H   H1418     1.0  0.94524  0.93579  0.47043  1.0000
  C   C1177     1.0  0.66232  0.67915  0.42210  1.0000
  C   C1178     1.0  0.64518  0.65223  0.39423  1.0000
  C   C1179     1.0  0.52334  0.78491  0.38066  1.0000
  C   C1180     1.0  0.51873  0.81509  0.40996  1.0000
  C   C1181     1.0  0.75305  0.89917  0.40588  1.0000
  C   C1182     1.0  0.75484  0.88277  0.38785  1.0000
  C   C1183     1.0  0.73580  0.86791  0.38266  1.0000
  C   C1184     1.0  0.71506  0.86889  0.39580  1.0000
  C   C1185     1.0  0.71354  0.88492  0.41415  1.0000
  C   C1186     1.0  0.73230  0.90017  0.41894  1.0000
  H   H1419     1.0  0.77069  0.88187  0.37766  1.0000
  H   H1420     1.0  0.73711  0.85557  0.36842  1.0000
  H   H1421     1.0  0.69776  0.88590  0.42444  1.0000
  H   H1422     1.0  0.73076  0.91272  0.43297  1.0000
  C   C1187     1.0  0.87359  0.89117  0.48110  1.0000
  C   C1188     1.0  0.86925  0.86854  0.47281  1.0000
  H   H1423     1.0  0.59033  0.54811  0.46395  1.0000
  H   H1424     1.0  0.86651  0.86573  0.45433  1.0000
  N   N81       1.0  0.99083  0.87249  0.26261  1.0000
  H   H1425     1.0  0.53105  0.88823  0.42270  1.0000
  C   C1189     1.0  0.94238  0.91819  0.47702  1.0000
  C   C1190     1.0  0.00114  0.88094  0.30513  1.0000
  C   C1191     1.0  0.51789  0.71931  0.37095  1.0000
  H   H1426     1.0  0.67851  0.62288  0.41017  1.0000
  H   H1427     1.0  0.51958  0.62097  0.40178  1.0000
  C   C1192     1.0  0.65470  0.68965  0.44327  1.0000
  C   C1193     1.0  0.62797  0.55812  0.38796  1.0000
  C   C1194     1.0  0.64228  0.54380  0.40207  1.0000
  C   C1195     1.0  0.62031  0.54962  0.36641  1.0000
  H   H1428     1.0  0.64829  0.55025  0.41877  1.0000
  H   H1429     1.0  0.60920  0.56038  0.35543  1.0000
  C   C1196     1.0  0.61958  0.71487  0.37794  1.0000
  C   C1197     1.0  0.63090  0.73663  0.37580  1.0000
  C   C1198     1.0  0.63069  0.75289  0.39425  1.0000
  C   C1199     1.0  0.61942  0.74733  0.41516  1.0000
  C   C1200     1.0  0.60773  0.72575  0.41717  1.0000
  C   C1201     1.0  0.60762  0.70965  0.39858  1.0000
  H   H1430     1.0  0.64017  0.74081  0.35988  1.0000
  H   H1431     1.0  0.63982  0.76941  0.39251  1.0000
  H   H1432     1.0  0.59901  0.72131  0.43332  1.0000
  H   H1433     1.0  0.59863  0.69309  0.40038  1.0000
  C   C1202     1.0  0.90257  0.89901  0.28103  1.0000
  C   C1203     1.0  0.89481  0.87580  0.28260  1.0000
  C   C1204     1.0  0.88408  0.86775  0.30323  1.0000
  C   C1205     1.0  0.88055  0.88297  0.32219  1.0000
  C   C1206     1.0  0.88839  0.90611  0.32059  1.0000
  C   C1207     1.0  0.89960  0.91398  0.30023  1.0000
  H   H1434     1.0  0.64314  0.57101  0.31990  1.0000
  H   H1435     1.0  0.87840  0.84971  0.30445  1.0000
  H   H1436     1.0  0.88585  0.91797  0.33508  1.0000
  H   H1437     1.0  0.90569  0.93188  0.29933  1.0000
  C   C1208     1.0  0.73075  0.86490  0.47018  1.0000
  H   H1438     1.0  0.65582  0.91921  0.36709  1.0000
  H   H1439     1.0  0.78645  0.83720  0.50651  1.0000
  H   H1440     1.0  0.86688  0.83177  0.48167  1.0000
  C   C1209     1.0  0.61144  0.53162  0.27046  1.0000
  N   N82       1.0  0.79319  0.90593  0.48164  1.0000
  C   C1210     1.0  0.77216  0.89128  0.47779  1.0000
  C   C1211     1.0  0.62245  0.51460  0.28428  1.0000
  C   C1212     1.0  0.53153  0.70125  0.38014  1.0000
  H   H1441     1.0  0.53277  0.77066  0.37263  1.0000
  C   C1213     1.0  0.56846  0.90272  0.33509  1.0000
  H   H1442     1.0  0.94673  0.87362  0.28136  1.0000
  C   C1214     1.0  0.73118  0.88243  0.48703  1.0000
  C   C1215     1.0  0.67430  0.69386  0.40605  1.0000
  H   H1443     1.0  0.61963  0.93665  0.40000  1.0000
  H   H1444     1.0  0.77288  0.86188  0.29944  1.0000
  C   C1216     1.0  0.62402  0.91765  0.39961  1.0000
  C   C1217     1.0  0.81268  0.90041  0.46554  1.0000
  H   H1445     1.0  0.53874  0.76328  0.43296  1.0000
  H   H1446     1.0  0.69148  0.64917  0.39931  1.0000
  C   C1218     1.0  0.65748  0.56211  0.31119  1.0000
  C   C1219     1.0  0.87762  0.01019  0.37199  1.0000
  C   C1220     1.0  0.97061  0.88463  0.33419  1.0000
  C   C1221     1.0  0.53241  0.79650  0.40063  1.0000
  C   C1222     1.0  0.55063  0.91244  0.34842  1.0000
  H   H1447     1.0  0.68023  0.68729  0.38941  1.0000
  C   C1223     1.0  0.52246  0.86500  0.36862  1.0000
  C   C1224     1.0  0.69096  0.53644  0.31278  1.0000
  C   C1225     1.0  0.75073  0.86017  0.45720  1.0000
  H   H1448     1.0  0.92191  0.86551  0.45892  1.0000
  H   H1449     1.0  0.54927  0.75190  0.40569  1.0000
  C   C1226     1.0  0.67064  0.72726  0.43171  1.0000
  H   H1450     1.0  0.64055  0.63371  0.39024  1.0000
  H   H1451     1.0  0.62688  0.64933  0.43677  1.0000
  C   C1227     1.0  0.56291  0.80405  0.43061  1.0000
  C   C1228     1.0  0.84543  0.92830  0.28435  1.0000
  C   C1229     1.0  0.58262  0.54370  0.42756  1.0000
  H   H1452     1.0  0.62015  0.52049  0.34270  1.0000
  C   C1230     1.0  0.67833  0.71754  0.41084  1.0000
  H   H1453     1.0  0.68687  0.72859  0.39802  1.0000
  H   H1454     1.0  0.81915  0.88214  0.46788  1.0000
  C   C1231     1.0  0.64453  0.64138  0.43453  1.0000
  C   C1232     1.0  0.55549  0.92097  0.37065  1.0000
  H   H1455     1.0  0.67309  0.74582  0.43507  1.0000
  C   C1233     1.0  0.63758  0.91992  0.36015  1.0000
  H   H1456     1.0  0.77696  0.89064  0.28710  1.0000
  H   H1457     1.0  0.65223  0.72136  0.46370  1.0000
  H   H1458     1.0  0.78568  0.86909  0.44947  1.0000
  C   C1234     1.0  0.90499  0.97399  0.26129  1.0000
  N   N83       1.0  0.65824  0.65413  0.41651  1.0000
  C   C1235     1.0  0.57817  0.91965  0.37979  1.0000
  H   H1459     1.0  0.82792  0.91213  0.46845  1.0000
  C   C1236     1.0  0.93377  0.90104  0.46205  1.0000
  H   H1460     1.0  0.54855  0.84563  0.34964  1.0000
  C   C1237     1.0  0.86953  0.84931  0.48834  1.0000
  H   H1461     1.0  0.85153  0.94475  0.29164  1.0000
  H   H1462     1.0  0.62979  0.63808  0.28079  1.0000
  N   N84       1.0  0.80795  0.87558  0.30223  1.0000
  C   C1238     1.0  0.80275  0.88393  0.32622  1.0000
  H   H1463     1.0  0.54135  0.92774  0.38125  1.0000
  C   C1239     1.0  0.81885  0.85204  0.30450  1.0000
  C   C1240     1.0  0.82352  0.89149  0.28890  1.0000
  C   C1241     1.0  0.83110  0.88532  0.26612  1.0000
  H   H1464     1.0  0.71539  0.88634  0.49668  1.0000
  C   C1242     1.0  0.96049  0.87658  0.29400  1.0000
  C   C1243     1.0  0.78538  0.87319  0.28966  1.0000
  H   H1465     1.0  0.80736  0.90305  0.44705  1.0000
  S   S335      1.0  0.67295  0.85989  0.49717  1.0000
  H   H1466     1.0  0.79138  0.87147  0.33597  1.0000
  H   H1467     1.0  0.81908  0.88568  0.33670  1.0000
  H   H1468     1.0  0.70264  0.52532  0.32289  1.0000
  H   H1469     1.0  0.79345  0.90108  0.32609  1.0000
  H   H1470     1.0  0.57422  0.80715  0.38412  1.0000
  H   H1471     1.0  0.83629  0.85330  0.31306  1.0000
  H   H1472     1.0  0.80809  0.83997  0.31537  1.0000
  H   H1473     1.0  0.52429  0.82533  0.42481  1.0000
  C   C1244     1.0  0.64894  0.52120  0.39460  1.0000
  H   H1474     1.0  0.89714  0.86407  0.26799  1.0000
  H   H1475     1.0  0.57692  0.56169  0.42510  1.0000
  H   H1476     1.0  0.57723  0.53465  0.39166  1.0000
  H   H1477     1.0  0.54738  0.69578  0.37129  1.0000
  H   H1478     1.0  0.93538  0.88041  0.32173  1.0000
  H   H1479     1.0  0.64546  0.87999  0.38441  1.0000
  C   C1245     1.0  0.68098  0.64190  0.41394  1.0000
  H   H1480     1.0  0.92967  0.90538  0.44405  1.0000
  H   H1481     1.0  0.63266  0.93870  0.35800  1.0000
  C   C1246     1.0  0.62754  0.88254  0.37709  1.0000
  H   H1482     1.0  0.00726  0.88811  0.34162  1.0000
  H   H1483     1.0  0.62870  0.66252  0.39493  1.0000
  C   C1247     1.0  0.65883  0.71338  0.44785  1.0000
  H   H1484     1.0  0.64238  0.91587  0.40598  1.0000
  N   N85       1.0  0.55505  0.78905  0.41091  1.0000
  C   C1248     1.0  0.57362  0.78972  0.39286  1.0000
  H   H1485     1.0  0.82139  0.84324  0.28745  1.0000
  C   C1249     1.0  0.55297  0.76470  0.41983  1.0000
  H   H1486     1.0  0.71470  0.85532  0.46679  1.0000
  H   H1487     1.0  0.63825  0.91192  0.34251  1.0000
  H   H1488     1.0  0.55047  0.80351  0.44549  1.0000
  C   C1250     1.0  0.62658  0.52695  0.35920  1.0000
  C   C1251     1.0  0.59840  0.51306  0.45234  1.0000
  H   H1489     1.0  0.64149  0.62271  0.42955  1.0000
  H   H1490     1.0  0.59123  0.78636  0.40048  1.0000
  H   H1491     1.0  0.57123  0.77621  0.37914  1.0000
  H   H1492     1.0  0.90263  0.99304  0.29349  1.0000
  H   H1493     1.0  0.64898  0.57709  0.27831  1.0000
  H   H1494     1.0  0.58007  0.79818  0.43778  1.0000
  H   H1495     1.0  0.56526  0.82261  0.42500  1.0000
  H   H1496     1.0  0.62751  0.87392  0.35973  1.0000
  H   H1497     1.0  0.56948  0.75879  0.42843  1.0000
  H   H1498     1.0  0.64516  0.68009  0.45642  1.0000
  H   H1499     1.0  0.69167  0.64344  0.43014  1.0000
  H   H1500     1.0  0.58036  0.92565  0.39752  1.0000
  H   H1501     1.0  0.53280  0.91259  0.34185  1.0000
  H   H1502     1.0  0.56438  0.89555  0.31805  1.0000
  H   H1503     1.0  0.66997  0.54542  0.34257  1.0000
  H   H1504     1.0  0.65516  0.65889  0.37897  1.0000
  H   H1505     1.0  0.65376  0.64103  0.45165  1.0000
  C   C1252     1.0  0.98436  0.87669  0.28726  1.0000
  C   C1253     1.0  0.67963  0.55431  0.27528  1.0000
  C   C1254     1.0  0.59683  0.90986  0.36663  1.0000
  H   H1506     1.0  0.61505  0.87279  0.38835  1.0000
  H   H1507     1.0  0.61295  0.90834  0.41267  1.0000
  C   C1255     1.0  0.59125  0.90147  0.34396  1.0000
  C   C1256     1.0  0.52431  0.68954  0.40022  1.0000
  H   H1508     1.0  0.93698  0.00962  0.33093  1.0000
  C   C1257     1.0  0.93324  0.87317  0.49400  1.0000
  H   H1509     1.0  0.80293  0.94251  0.47919  1.0000
  H   H1510     1.0  0.77916  0.93392  0.46060  1.0000
  H   H1511     1.0  0.87923  0.00140  0.40851  1.0000
  C   C1258     1.0  0.77118  0.87313  0.46080  1.0000
  H   H1512     1.0  0.60436  0.89337  0.33310  1.0000
  H   H1513     1.0  0.75004  0.84701  0.44357  1.0000
  H   H1514     1.0  0.91459  0.95949  0.26893  1.0000
  C   C1259     1.0  0.69457  0.53958  0.28879  1.0000
  H   H1515     1.0  0.78758  0.86518  0.27214  1.0000
  H   H1516     1.0  0.75100  0.90875  0.50422  1.0000
  C   C1260     1.0  0.51757  0.87681  0.38939  1.0000
  C   C1261     1.0  0.67252  0.54772  0.32394  1.0000
  C   C1262     1.0  0.66095  0.56542  0.28727  1.0000
  C   C1263     1.0  0.95378  0.88049  0.31710  1.0000
  C   C1264     1.0  0.83111  0.91355  0.29761  1.0000
  H   H1517     1.0  0.60714  0.54865  0.27778  1.0000
  H   H1518     1.0  0.53459  0.67493  0.40678  1.0000
  H   H1519     1.0  0.99024  0.83498  0.26674  1.0000
  H   H1520     1.0  0.70934  0.53054  0.28134  1.0000
  S   S336      1.0  0.51708  0.64431  0.35622  1.0000
  C   C1265     1.0  0.75160  0.89527  0.49104  1.0000
  C   C1266     1.0  0.59034  0.53604  0.44936  1.0000
  C   C1267     1.0  0.58281  0.52839  0.40869  1.0000
  C   C1268     1.0  0.89838  0.99299  0.27502  1.0000
  C   C1269     1.0  0.80197  0.90251  0.50581  1.0000
  H   H1521     1.0  0.96527  0.88772  0.35206  1.0000
  H   H1522     1.0  0.92854  0.85564  0.49943  1.0000
  H   H1523     1.0  0.77469  0.93768  0.49136  1.0000
  C   C1270     1.0  0.61422  0.60931  0.26213  1.0000
  C   C1271     1.0  0.62935  0.62841  0.26456  1.0000
  H   H1524     1.0  0.62620  0.51916  0.30217  1.0000
  C   C1272     1.0  0.94658  0.91294  0.50052  1.0000
  C   C1273     1.0  0.87720  0.89447  0.50515  1.0000
  C   C1274     1.0  0.85274  0.92157  0.26220  1.0000
  C   C1275     1.0  0.99423  0.88484  0.32823  1.0000
  H   H1525     1.0  0.93296  0.00934  0.37378  1.0000
  C   C1276     1.0  0.64098  0.51265  0.37314  1.0000
  C   C1277     1.0  0.94195  0.89031  0.50981  1.0000
  C   C1278     1.0  0.88631  0.01192  0.26509  1.0000
  H   H1526     1.0  0.81815  0.91291  0.50909  1.0000
  H   H1527     1.0  0.80641  0.88377  0.50912  1.0000
  Fe  Fe169     1.0  0.68117  0.95020  0.64703  1.0000
  S   S337      1.0  0.65484  0.92263  0.65699  1.0000
  S   S338      1.0  0.67917  0.98896  0.65638  1.0000
  Fe  Fe170     1.0  0.71841  0.91334  0.63330  1.0000
  S   S339      1.0  0.69501  0.88321  0.64278  1.0000
  S   S340      1.0  0.75343  0.91025  0.61456  1.0000
  Fe  Fe171     1.0  0.66694  0.90391  0.62437  1.0000
  S   S341      1.0  0.64196  0.88411  0.60068  1.0000
  Fe  Fe172     1.0  0.68490  0.90433  0.67448  1.0000
  S   S342      1.0  0.68502  0.89030  0.71177  1.0000
  S   S343      1.0  0.69080  0.93305  0.61302  1.0000
  S   S344      1.0  0.71081  0.93281  0.66640  1.0000
  Fe  Fe173     1.0  0.87048  0.83765  0.61820  1.0000
  S   S345      1.0  0.86948  0.80536  0.59578  1.0000
  S   S346      1.0  0.83869  0.84319  0.64128  1.0000
  Fe  Fe174     1.0  0.92131  0.84866  0.60489  1.0000
  S   S347      1.0  0.92298  0.81758  0.58106  1.0000
  S   S348      1.0  0.95441  0.87079  0.60645  1.0000
  Fe  Fe175     1.0  0.88709  0.82859  0.56910  1.0000
  S   S349      1.0  0.87583  0.82768  0.53090  1.0000
  Fe  Fe176     1.0  0.90543  0.79780  0.61002  1.0000
  S   S350      1.0  0.92463  0.76577  0.62410  1.0000
  S   S351      1.0  0.88638  0.86122  0.59088  1.0000
  S   S352      1.0  0.90538  0.82855  0.63440  1.0000
  Fe  Fe177     1.0  0.92828  0.61713  0.72200  1.0000
  S   S353      1.0  0.89961  0.60941  0.69616  1.0000
  H   H1528     1.0  0.96607  0.72392  0.60837  1.0000
  Fe  Fe178     1.0  0.96309  0.63199  0.68390  1.0000
  S   S354      1.0  0.93754  0.62510  0.65493  1.0000
  S   S355      1.0  0.99835  0.65027  0.68164  1.0000
  Fe  Fe179     1.0  0.91127  0.64274  0.67807  1.0000
  S   S356      1.0  0.88573  0.66852  0.66173  1.0000
  Fe  Fe180     1.0  0.92781  0.59235  0.67488  1.0000
  S   S357      1.0  0.92611  0.55669  0.65752  1.0000
  S   S358      1.0  0.93737  0.65192  0.70588  1.0000
  S   S359      1.0  0.95583  0.59778  0.70179  1.0000
  C   C1279     1.0  0.90179  0.53803  0.66167  1.0000
  C   C1280     1.0  0.88282  0.54481  0.67542  1.0000
  H   H1529     1.0  0.94629  0.70045  0.61181  1.0000
  H   H1530     1.0  0.88255  0.56201  0.68323  1.0000
  H   H1531     1.0  0.88027  0.79043  0.67975  1.0000
  C   C1281     1.0  0.91248  0.73965  0.63535  1.0000
  C   C1282     1.0  0.92593  0.72623  0.65099  1.0000
  C   C1283     1.0  0.91784  0.70445  0.65917  1.0000
  C   C1284     1.0  0.89623  0.69587  0.65172  1.0000
  C   C1285     1.0  0.88258  0.70943  0.63631  1.0000
  C   C1286     1.0  0.89064  0.73131  0.62817  1.0000
  H   H1532     1.0  0.94265  0.73276  0.65692  1.0000
  H   H1533     1.0  0.92815  0.69436  0.67145  1.0000
  H   H1534     1.0  0.86585  0.70281  0.63046  1.0000
  H   H1535     1.0  0.88028  0.74136  0.61588  1.0000
  H   H1536     1.0  0.64353  0.94783  0.71604  1.0000
  C   C1287     1.0  0.84590  0.70944  0.68242  1.0000
  H   H1537     1.0  0.78899  0.90793  0.51916  1.0000
  H   H1538     1.0  0.93351  0.89752  0.56836  1.0000
  C   C1288     1.0  0.00874  0.77183  0.64789  1.0000
  C   C1289     1.0  0.66445  0.88904  0.75503  1.0000
  C   C1290     1.0  0.66471  0.81840  0.75363  1.0000
  C   C1291     1.0  0.77694  0.89157  0.62248  1.0000
  C   C1292     1.0  0.77589  0.87682  0.64198  1.0000
  C   C1293     1.0  0.79492  0.86206  0.64748  1.0000
  C   C1294     1.0  0.81506  0.86177  0.63345  1.0000
  C   C1295     1.0  0.81595  0.87626  0.61374  1.0000
  C   C1296     1.0  0.79699  0.89113  0.60834  1.0000
  H   H1539     1.0  0.76054  0.87698  0.65298  1.0000
  H   H1540     1.0  0.79409  0.85096  0.66280  1.0000
  H   H1541     1.0  0.83135  0.87626  0.60283  1.0000
  H   H1542     1.0  0.79791  0.90244  0.59317  1.0000
  C   C1297     1.0  0.64925  0.87890  0.57116  1.0000
  C   C1298     1.0  0.63655  0.86231  0.55818  1.0000
  C   C1299     1.0  0.64282  0.85705  0.53499  1.0000
  H   H1543     1.0  0.81698  0.78258  0.69110  1.0000
  C   C1300     1.0  0.67407  0.88546  0.53744  1.0000
  C   C1301     1.0  0.66774  0.89076  0.56053  1.0000
  H   H1544     1.0  0.62207  0.85321  0.56625  1.0000
  C   C1302     1.0  0.66186  0.86837  0.52467  1.0000
  H   H1545     1.0  0.93800  0.92029  0.54757  1.0000
  H   H1546     1.0  0.67708  0.90409  0.57014  1.0000
  C   C1303     1.0  0.66095  0.89274  0.73099  1.0000
  C   C1304     1.0  0.96435  0.70469  0.60581  1.0000
  C   C1305     1.0  0.63847  0.89802  0.72287  1.0000
  C   C1306     1.0  0.00019  0.80884  0.61703  1.0000
  H   H1547     1.0  0.63551  0.90084  0.70441  1.0000
  C   C1307     1.0  0.98895  0.84767  0.66457  1.0000
  C   C1308     1.0  0.97160  0.85111  0.64740  1.0000
  C   C1309     1.0  0.97607  0.86539  0.62804  1.0000
  C   C1310     1.0  0.99825  0.87578  0.62579  1.0000
  H   H1548     1.0  0.61522  0.84946  0.71896  1.0000
  H   H1549     1.0  0.95466  0.84295  0.64934  1.0000
  H   H1550     1.0  0.00368  0.61089  0.64951  1.0000
  N   N86       1.0  0.00755  0.61140  0.74958  1.0000
  C   C1311     1.0  0.63805  0.00495  0.63560  1.0000
  H   H1551     1.0  0.60218  0.90261  0.73208  1.0000
  H   H1552     1.0  0.84397  0.79423  0.70219  1.0000
  H   H1553     1.0  0.63811  0.98907  0.62531  1.0000
  H   H1554     1.0  0.96623  0.69306  0.65265  1.0000
  C   C1312     1.0  0.80226  0.83618  0.54057  1.0000
  H   H1555     1.0  0.81333  0.83695  0.57644  1.0000
  C   C1313     1.0  0.64692  0.99405  0.71768  1.0000
  C   C1314     1.0  0.87705  0.87528  0.52071  1.0000
  H   H1556     1.0  0.85472  0.52229  0.73022  1.0000
  H   H1557     1.0  0.98229  0.87686  0.52972  1.0000
  H   H1558     1.0  0.97553  0.59139  0.74834  1.0000
  C   C1315     1.0  0.77660  0.84498  0.57298  1.0000
  C   C1316     1.0  0.79874  0.83909  0.56444  1.0000
  H   H1559     1.0  0.82998  0.80814  0.67799  1.0000
  C   C1317     1.0  0.99520  0.63332  0.74290  1.0000
  H   H1560     1.0  0.70166  0.97481  0.73098  1.0000
  H   H1561     1.0  0.00354  0.73317  0.60921  1.0000
  H   H1562     1.0  0.92062  0.85773  0.53910  1.0000
  H   H1563     1.0  0.97714  0.90690  0.53752  1.0000
  C   C1318     1.0  0.65008  0.83563  0.71773  1.0000
  H   H1564     1.0  0.62877  0.98863  0.72210  1.0000
  H   H1565     1.0  0.99908  0.56843  0.72645  1.0000
  H   H1566     1.0  0.98233  0.63004  0.72873  1.0000
  C   C1319     1.0  0.86944  0.72858  0.71161  1.0000
  H   H1567     1.0  0.88052  0.72745  0.72696  1.0000
  H   H1568     1.0  0.97584  0.65877  0.59987  1.0000
  C   C1320     1.0  0.90162  0.51577  0.65120  1.0000
  H   H1569     1.0  0.81535  0.76713  0.65048  1.0000
  H   H1570     1.0  0.81951  0.83159  0.53410  1.0000
  H   H1571     1.0  0.88038  0.91195  0.51172  1.0000
  H   H1572     1.0  0.64796  0.99488  0.69832  1.0000
  H   H1573     1.0  0.87962  0.87802  0.53919  1.0000
  H   H1574     1.0  0.98517  0.83684  0.67962  1.0000
  H   H1575     1.0  0.66521  0.95686  0.69579  1.0000
  H   H1576     1.0  0.63336  0.84377  0.52539  1.0000
  H   H1577     1.0  0.94309  0.85811  0.56072  1.0000
  N   N87       1.0  0.98232  0.69089  0.61871  1.0000
  C   C1321     1.0  0.97493  0.66590  0.61791  1.0000
  H   H1578     1.0  0.00189  0.88687  0.61089  1.0000
  H   H1579     1.0  0.68476  0.82201  0.72192  1.0000
  C   C1322     1.0  0.93217  0.90183  0.54939  1.0000
  H   H1580     1.0  0.69201  0.98642  0.70350  1.0000
  C   C1323     1.0  0.66073  0.97532  0.75298  1.0000
  H   H1581     1.0  0.84940  0.53477  0.68957  1.0000
  H   H1582     1.0  0.74787  0.84823  0.52066  1.0000
  H   H1583     1.0  0.98570  0.65470  0.62968  1.0000
  C   C1324     1.0  0.98264  0.79264  0.62171  1.0000
  H   H1584     1.0  0.65299  0.84127  0.69987  1.0000
  C   C1325     1.0  0.86391  0.52917  0.74532  1.0000
  C   C1326     1.0  0.62882  0.84024  0.72853  1.0000
  H   H1585     1.0  0.77529  0.84742  0.59162  1.0000
  H   H1586     1.0  0.94990  0.84779  0.53232  1.0000
  C   C1327     1.0  0.97119  0.88861  0.54052  1.0000
  H   H1587     1.0  0.84231  0.76321  0.63426  1.0000
  H   H1588     1.0  0.86420  0.69122  0.70979  1.0000
  H   H1589     1.0  0.96511  0.70106  0.58675  1.0000
  N   N88       1.0  0.73392  0.85569  0.56623  1.0000
  C   C1328     1.0  0.71462  0.84352  0.55367  1.0000
  C   C1329     1.0  0.73047  0.85119  0.59159  1.0000
  C   C1330     1.0  0.73183  0.88125  0.56212  1.0000
  C   C1331     1.0  0.75714  0.84799  0.55773  1.0000
  C   C1332     1.0  0.76148  0.84541  0.53345  1.0000
  H   H1590     1.0  0.96555  0.79466  0.61367  1.0000
  H   H1591     1.0  0.71267  0.84929  0.53521  1.0000
  H   H1592     1.0  0.71715  0.82418  0.55391  1.0000
  H   H1593     1.0  0.69721  0.84721  0.56161  1.0000
  H   H1594     1.0  0.73388  0.83252  0.59609  1.0000
  H   H1595     1.0  0.71231  0.85545  0.59726  1.0000
  H   H1596     1.0  0.74176  0.86254  0.60261  1.0000
  H   H1597     1.0  0.71582  0.88857  0.57032  1.0000
  H   H1598     1.0  0.74692  0.89085  0.56987  1.0000
  H   H1599     1.0  0.73125  0.88559  0.54322  1.0000
  C   C1333     1.0  0.68822  0.98618  0.72256  1.0000
  H   H1600     1.0  0.87249  0.76564  0.70918  1.0000
  C   C1334     1.0  0.93958  0.86119  0.54190  1.0000
  H   H1601     1.0  0.83068  0.73052  0.65614  1.0000
  C   C1335     1.0  0.86011  0.70817  0.70214  1.0000
  C   C1336     1.0  0.86405  0.52931  0.67901  1.0000
  H   H1602     1.0  0.68855  0.89460  0.52949  1.0000
  H   H1603     1.0  0.86699  0.80372  0.65506  1.0000
  C   C1337     1.0  0.00592  0.69494  0.60885  1.0000
  N   N89       1.0  0.94606  0.88541  0.53489  1.0000
  H   H1604     1.0  0.89120  0.54509  0.72487  1.0000
  H   H1605     1.0  0.83088  0.79188  0.63949  1.0000
  H   H1606     1.0  0.95660  0.66356  0.62403  1.0000
  H   H1607     1.0  0.00801  0.87188  0.75137  1.0000
  H   H1608     1.0  0.83921  0.69334  0.67485  1.0000
  N   N90       1.0  0.66429  0.97737  0.72746  1.0000
  C   C1338     1.0  0.66164  0.95481  0.71480  1.0000
  H   H1609     1.0  0.67416  0.94133  0.72138  1.0000
  C   C1339     1.0  0.78366  0.83935  0.52510  1.0000
  C   C1340     1.0  0.88441  0.54198  0.74226  1.0000
  C   C1341     1.0  0.61960  0.89897  0.73859  1.0000
  H   H1610     1.0  0.97491  0.88457  0.55926  1.0000
  C   C1342     1.0  0.98251  0.69834  0.64345  1.0000
  H   H1611     1.0  0.97296  0.76186  0.64083  1.0000
  H   H1612     1.0  0.88028  0.77530  0.65236  1.0000
  N   N91       1.0  0.84689  0.77537  0.66961  1.0000
  C   C1343     1.0  0.83324  0.77417  0.64752  1.0000
  C   C1344     1.0  0.83391  0.79069  0.68596  1.0000
  C   C1345     1.0  0.86959  0.78660  0.66402  1.0000
  C   C1346     1.0  0.85096  0.75219  0.68065  1.0000
  C   C1347     1.0  0.86486  0.75032  0.70117  1.0000
  C   C1348     1.0  0.84132  0.73104  0.67171  1.0000
  H   H1613     1.0  0.98439  0.71762  0.64526  1.0000
  C   C1349     1.0  0.98691  0.77414  0.63705  1.0000
  H   H1614     1.0  0.91335  0.90121  0.54458  1.0000
  H   H1615     1.0  0.99660  0.82346  0.60539  1.0000
  H   H1616     1.0  0.99731  0.69009  0.65310  1.0000
  C   C1350     1.0  0.66800  0.82481  0.73026  1.0000
  H   H1617     1.0  0.88078  0.61834  0.75338  1.0000
  H   H1618     1.0  0.91150  0.56183  0.75905  1.0000
  H   H1619     1.0  0.00728  0.64703  0.73623  1.0000
  C   C1351     1.0  0.65568  0.00874  0.65214  1.0000
  C   C1352     1.0  0.87386  0.85253  0.51229  1.0000
  H   H1620     1.0  0.69093  0.00446  0.72856  1.0000
  H   H1621     1.0  0.64916  0.93865  0.75410  1.0000
  H   H1622     1.0  0.00431  0.90351  0.75248  1.0000
  H   H1623     1.0  0.98532  0.64096  0.75778  1.0000
  C   C1353     1.0  0.62548  0.83437  0.75198  1.0000
  H   H1624     1.0  0.60923  0.83987  0.75988  1.0000
  H   H1625     1.0  0.95308  0.92688  0.51148  1.0000
  Fe  Fe181     1.0  0.59581  0.88364  0.81937  1.0000
  S   S360      1.0  0.62392  0.88194  0.84680  1.0000
  S   S361      1.0  0.59850  0.89531  0.78138  1.0000
  Fe  Fe182     1.0  0.55714  0.86815  0.85403  1.0000
  S   S362      1.0  0.58233  0.86563  0.88411  1.0000
  C   C1354     1.0  0.66153  0.99337  0.79190  1.0000
  Fe  Fe183     1.0  0.59744  0.89958  0.86985  1.0000
  S   S363      1.0  0.60354  0.93166  0.89258  1.0000
  Fe  Fe184     1.0  0.60650  0.84819  0.85859  1.0000
  S   S364      1.0  0.62547  0.81316  0.86200  1.0000
  S   S365      1.0  0.57014  0.90317  0.84173  1.0000
  S   S366      1.0  0.58048  0.84879  0.82922  1.0000
  Fe  Fe185     1.0  0.62594  0.70062  0.94024  1.0000
  S   S367      1.0  0.62052  0.67667  0.90960  1.0000
  S   S368      1.0  0.61250  0.73806  0.94349  1.0000
  Fe  Fe186     1.0  0.64657  0.66108  0.97110  1.0000
  S   S369      1.0  0.64219  0.63405  0.94300  1.0000
  N   N92       1.0  0.85567  0.53169  0.81124  1.0000
  Fe  Fe187     1.0  0.65611  0.66202  0.91914  1.0000
  S   S370      1.0  0.68415  0.65403  0.89254  1.0000
  Fe  Fe188     1.0  0.60711  0.65089  0.93606  1.0000
  S   S371      1.0  0.57297  0.63080  0.93368  1.0000
  S   S372      1.0  0.66255  0.68825  0.94745  1.0000
  S   S373      1.0  0.61039  0.67563  0.96636  1.0000
  Fe  Fe189     1.0  0.84228  0.59709  0.86735  1.0000
  S   S374      1.0  0.81219  0.57217  0.87244  1.0000
  S   S375      1.0  0.84350  0.61085  0.83007  1.0000
  Fe  Fe190     1.0  0.85838  0.59137  0.91784  1.0000
  S   S376      1.0  0.83042  0.56503  0.92536  1.0000
  S   S377      1.0  0.88230  0.59889  0.94869  1.0000
  Fe  Fe191     1.0  0.83877  0.54949  0.89055  1.0000
  H   H1626     1.0  0.52014  0.70045  0.87470  1.0000
  Fe  Fe192     1.0  0.80647  0.59016  0.90671  1.0000
  S   S378      1.0  0.77336  0.59765  0.92747  1.0000
  S   S379      1.0  0.86911  0.57358  0.88416  1.0000
  S   S380      1.0  0.83425  0.61725  0.90043  1.0000
  C   C1355     1.0  0.90623  0.61038  0.77999  1.0000
  C   C1356     1.0  0.88362  0.61472  0.77172  1.0000
  C   C1357     1.0  0.86461  0.61468  0.78730  1.0000
  C   C1358     1.0  0.86797  0.61010  0.81120  1.0000
  C   C1359     1.0  0.89055  0.60539  0.81942  1.0000
  C   C1360     1.0  0.90959  0.60559  0.80386  1.0000
  H   H1627     1.0  0.63140  0.76128  0.99835  1.0000
  H   H1628     1.0  0.84720  0.61836  0.78081  1.0000
  H   H1629     1.0  0.89339  0.60205  0.83781  1.0000
  H   H1630     1.0  0.92703  0.60224  0.81042  1.0000
  C   C1361     1.0  0.71049  0.64123  0.90275  1.0000
  C   C1362     1.0  0.71368  0.63600  0.92643  1.0000
  C   C1363     1.0  0.73332  0.62304  0.93376  1.0000
  C   C1364     1.0  0.75022  0.61570  0.91760  1.0000
  C   C1365     1.0  0.74754  0.62173  0.89407  1.0000
  C   C1366     1.0  0.72767  0.63437  0.88667  1.0000
  H   H1631     1.0  0.70059  0.64123  0.93900  1.0000
  H   H1632     1.0  0.73523  0.61837  0.95197  1.0000
  H   H1633     1.0  0.76051  0.61621  0.88150  1.0000
  H   H1634     1.0  0.72541  0.63849  0.86835  1.0000
  C   C1367     1.0  0.54352  0.64775  0.87105  1.0000
  C   C1368     1.0  0.55991  0.64462  0.88918  1.0000
  C   C1369     1.0  0.55279  0.63547  0.91068  1.0000
  C   C1370     1.0  0.52925  0.62919  0.91376  1.0000
  C   C1371     1.0  0.63687  0.59848  0.87243  1.0000
  H   H1635     1.0  0.57811  0.64890  0.88644  1.0000
  H   H1636     1.0  0.59689  0.98235  0.77494  1.0000
  H   H1637     1.0  0.63864  0.56554  0.92240  1.0000
  C   C1372     1.0  0.56455  0.70736  0.86546  1.0000
  C   C1373     1.0  0.59855  0.59447  0.88987  1.0000
  C   C1374     1.0  0.62151  0.79265  0.88493  1.0000
  C   C1375     1.0  0.60807  0.79779  0.90464  1.0000
  C   C1376     1.0  0.60558  0.78096  0.92254  1.0000
  C   C1377     1.0  0.61634  0.75886  0.92081  1.0000
  C   C1378     1.0  0.62947  0.75362  0.90096  1.0000
  C   C1379     1.0  0.63211  0.77049  0.88317  1.0000
  H   H1638     1.0  0.59990  0.81482  0.90622  1.0000
  H   H1639     1.0  0.59543  0.78518  0.93787  1.0000
  H   H1640     1.0  0.63786  0.73667  0.89942  1.0000
  H   H1641     1.0  0.64258  0.76638  0.86802  1.0000
  H   H1642     1.0  0.59145  0.94675  0.79913  1.0000
  H   H1643     1.0  0.63770  0.83746  0.82226  1.0000
  H   H1644     1.0  0.65666  0.84965  0.80065  1.0000
  H   H1645     1.0  0.64869  0.88842  0.78930  1.0000
  H   H1646     1.0  0.68450  0.60926  0.87194  1.0000
  C   C1380     1.0  0.62590  0.95268  0.88787  1.0000
  C   C1381     1.0  0.62584  0.97341  0.90109  1.0000
  C   C1382     1.0  0.64292  0.99084  0.89752  1.0000
  C   C1383     1.0  0.66046  0.98757  0.88090  1.0000
  C   C1384     1.0  0.66081  0.96664  0.86800  1.0000
  C   C1385     1.0  0.64344  0.94939  0.87121  1.0000
  H   H1647     1.0  0.61248  0.97601  0.91415  1.0000
  H   H1648     1.0  0.82034  0.53842  0.79937  1.0000
  H   H1649     1.0  0.67462  0.96375  0.85548  1.0000
  H   H1650     1.0  0.64382  0.93345  0.86105  1.0000
  C   C1386     1.0  0.85574  0.63448  0.96813  1.0000
  C   C1387     1.0  0.87418  0.61862  0.97109  1.0000
  C   C1388     1.0  0.51774  0.77335  0.86489  1.0000
  H   H1651     1.0  0.84640  0.63512  0.95170  1.0000
  C   C1389     1.0  0.60093  0.00789  0.82914  1.0000
  H   H1652     1.0  0.99831  0.57871  0.76635  1.0000
  C   C1390     1.0  0.51983  0.64219  0.87438  1.0000
  C   C1391     1.0  0.87077  0.54025  0.83056  1.0000
  H   H1653     1.0  0.88655  0.51884  0.88785  1.0000
  H   H1654     1.0  0.68186  0.88529  0.76149  1.0000
  H   H1655     1.0  0.56979  0.70117  0.91313  1.0000
  S   S381      1.0  0.51941  0.85566  0.85297  1.0000
  H   H1656     1.0  0.55333  0.70572  0.84960  1.0000
  C   C1392     1.0  0.60082  0.00553  0.80445  1.0000
  H   H1657     1.0  0.86282  0.53666  0.84791  1.0000
  H   H1658     1.0  0.66612  0.71984  0.00620  1.0000
  C   C1393     1.0  0.65799  0.80245  0.80065  1.0000
  H   H1659     1.0  0.58498  0.72556  0.90189  1.0000
  C   C1394     1.0  0.59835  0.98695  0.84241  1.0000
  H   H1660     1.0  0.67535  0.81125  0.80105  1.0000
  C   C1395     1.0  0.80047  0.61052  0.98078  1.0000
  H   H1661     1.0  0.58053  0.71724  0.86038  1.0000
  H   H1662     1.0  0.83241  0.56435  0.00016  1.0000
  C   C1396     1.0  0.63983  0.84022  0.80320  1.0000
  H   H1663     1.0  0.57043  0.68948  0.87051  1.0000
  N   N93       1.0  0.67252  0.57904  0.89122  1.0000
  H   H1664     1.0  0.59692  0.57489  0.92178  1.0000
  H   H1665     1.0  0.66811  0.54398  0.90507  1.0000
  H   H1666     1.0  0.65947  0.78564  0.79096  1.0000
  C   C1397     1.0  0.55858  0.78328  0.86796  1.0000
  C   C1398     1.0  0.77331  0.66182  0.99835  1.0000
  H   H1667     1.0  0.98170  0.60351  0.77604  1.0000
  H   H1668     1.0  0.83574  0.66246  0.98364  1.0000
  C   C1399     1.0  0.59497  0.96527  0.83161  1.0000
  H   H1669     1.0  0.90077  0.60614  0.99481  1.0000
  H   H1670     1.0  0.77238  0.57329  0.97665  1.0000
  H   H1671     1.0  0.89647  0.55622  0.79809  1.0000
  C   C1400     1.0  0.88642  0.61829  0.99242  1.0000
  H   H1672     1.0  0.61516  0.79004  0.78320  1.0000
  H   H1673     1.0  0.61443  0.80077  0.81276  1.0000
  C   C1401     1.0  0.56372  0.76032  0.87493  1.0000
  C   C1402     1.0  0.79123  0.56928  0.97934  1.0000
  H   H1674     1.0  0.53587  0.68705  0.89781  1.0000
  H   H1675     1.0  0.83843  0.51641  0.76903  1.0000
  H   H1676     1.0  0.00433  0.88551  0.78913  1.0000
  C   C1403     1.0  0.61677  0.80604  0.79415  1.0000
  C   C1404     1.0  0.54047  0.81460  0.92888  1.0000
  C   C1405     1.0  0.74972  0.65585  0.99741  1.0000
  C   C1406     1.0  0.64564  0.89042  0.77079  1.0000
  C   C1407     1.0  0.64319  0.82289  0.76520  1.0000
  H   H1677     1.0  0.87318  0.55961  0.82977  1.0000
  H   H1678     1.0  0.74097  0.65408  0.98067  1.0000
  H   H1679     1.0  0.64353  0.93682  0.79591  1.0000
  C   C1408     1.0  0.68608  0.58981  0.87185  1.0000
  H   H1680     1.0  0.58000  0.59837  0.88985  1.0000
  C   C1409     1.0  0.68247  0.58779  0.91349  1.0000
  H   H1681     1.0  0.67582  0.57817  0.92898  1.0000
  H   H1682     1.0  0.80943  0.61064  0.96351  1.0000
  C   C1410     1.0  0.59405  0.96368  0.80738  1.0000
  H   H1683     1.0  0.59907  0.98674  0.86122  1.0000
  H   H1684     1.0  0.64573  0.72581  0.98285  1.0000
  H   H1685     1.0  0.65410  0.79803  0.81924  1.0000
  S   S382      1.0  0.66713  0.65556  0.00476  1.0000
  H   H1686     1.0  0.52069  0.88061  0.89751  1.0000
  H   H1687     1.0  0.78293  0.66462  0.98227  1.0000
  H   H1688     1.0  0.79260  0.55187  0.98806  1.0000
  N   N94       1.0  0.80337  0.58770  0.99295  1.0000
  H   H1689     1.0  0.66820  0.54600  0.87381  1.0000
  H   H1690     1.0  0.58188  0.75608  0.87806  1.0000
  C   C1411     1.0  0.54587  0.74320  0.87751  1.0000
  C   C1412     1.0  0.82879  0.58216  0.99307  1.0000
  C   C1413     1.0  0.59706  0.98377  0.79381  1.0000
  H   H1691     1.0  0.55207  0.77982  0.92091  1.0000
  C   C1414     1.0  0.52267  0.75028  0.87177  1.0000
  H   H1692     1.0  0.70515  0.58600  0.87337  1.0000
  N   N95       1.0  0.63963  0.81780  0.79031  1.0000
  C   C1415     1.0  0.53562  0.78982  0.86313  1.0000
  H   H1693     1.0  0.78191  0.61466  0.97679  1.0000
  C   C1416     1.0  0.84975  0.64997  0.98627  1.0000
  C   C1417     1.0  0.53093  0.70445  0.89045  1.0000
  H   H1694     1.0  0.67793  0.60658  0.91595  1.0000
  H   H1695     1.0  0.68027  0.58324  0.85452  1.0000
  S   S383      1.0  0.93073  0.61056  0.76115  1.0000
  H   H1696     1.0  0.64696  0.60625  0.85853  1.0000
  H   H1697     1.0  0.70190  0.58630  0.91400  1.0000
  S   S384      1.0  0.68194  0.00932  0.87538  1.0000
  H   H1698     1.0  0.75848  0.60028  0.00449  1.0000
  C   C1418     1.0  0.64966  0.95301  0.78801  1.0000
  C   C1419     1.0  0.86613  0.53488  0.78782  1.0000
  H   H1699     1.0  0.57250  0.79610  0.86616  1.0000
  H   H1700     1.0  0.60166  0.81765  0.79021  1.0000
  C   C1420     1.0  0.56710  0.71910  0.90575  1.0000
  C   C1421     1.0  0.67609  0.55332  0.89002  1.0000
  H   H1701     1.0  0.79865  0.56755  0.96156  1.0000
  C   C1422     1.0  0.60813  0.58101  0.90779  1.0000
  C   C1423     1.0  0.63204  0.57592  0.90802  1.0000
  H   H1702     1.0  0.54911  0.65467  0.85438  1.0000
  C   C1424     1.0  0.61287  0.60327  0.87230  1.0000
  C   C1425     1.0  0.88699  0.54791  0.78404  1.0000
  H   H1703     1.0  0.69504  0.54871  0.89013  1.0000
  H   H1704     1.0  0.65126  0.97139  0.82064  1.0000
  H   H1705     1.0  0.60531  0.61414  0.85866  1.0000
  H   H1706     1.0  0.55972  0.73025  0.91983  1.0000
  H   H1707     1.0  0.55772  0.82226  0.92699  1.0000
  C   C1426     1.0  0.65292  0.95432  0.76386  1.0000
  H   H1708     1.0  0.83610  0.56386  0.80891  1.0000
  N   N96       1.0  0.55179  0.71893  0.88473  1.0000
  C   C1427     1.0  0.64719  0.58447  0.89032  1.0000
  H   H1709     1.0  0.59326  0.94959  0.84224  1.0000
  H   H1710     1.0  0.52367  0.62179  0.93024  1.0000
  C   C1428     1.0  0.53718  0.79068  0.92535  1.0000
  C   C1429     1.0  0.51277  0.63269  0.89575  1.0000
  H   H1711     1.0  0.82505  0.54321  0.82987  1.0000
  C   C1430     1.0  0.85479  0.52576  0.76769  1.0000
  C   C1431     1.0  0.83331  0.54479  0.81233  1.0000
  H   H1712     1.0  0.52414  0.84734  0.93759  1.0000
  C   C1432     1.0  0.52154  0.82870  0.93483  1.0000
  H   H1713     1.0  0.51980  0.71305  0.90379  1.0000
  C   C1433     1.0  0.65404  0.97245  0.80199  1.0000
  H   H1714     1.0  0.80794  0.62502  0.99134  1.0000
  H   H1715     1.0  0.83628  0.58234  0.97511  1.0000
  H   H1716     1.0  0.62547  0.85209  0.79743  1.0000
  C   C1434     1.0  0.62302  0.89478  0.76256  1.0000
  H   H1717     1.0  0.53175  0.80764  0.85770  1.0000
  C   C1435     1.0  0.64758  0.71787  0.00058  1.0000
  H   H1718     1.0  0.60301  0.73120  0.99270  1.0000
  C   C1436     1.0  0.66455  0.99495  0.76772  1.0000
  H   H1719     1.0  0.66503  0.00839  0.80292  1.0000
  C   C1437     1.0  0.86193  0.64959  0.00761  1.0000
  C   C1438     1.0  0.89590  0.55130  0.76156  1.0000
  H   H1720     1.0  0.88815  0.53149  0.83062  1.0000
  H   H1721     1.0  0.64270  0.00663  0.90791  1.0000
  H   H1722     1.0  0.83892  0.59537  0.00320  1.0000
  H   H1723     1.0  0.64439  0.69885  0.99841  1.0000
  H   H1724     1.0  0.51357  0.76225  0.92398  1.0000
  C   C1439     1.0  0.51485  0.78082  0.92719  1.0000
  H   H1725     1.0  0.67949  0.81052  0.76236  1.0000
  H   H1726     1.0  0.66989  0.01168  0.76061  1.0000
  H   H1727     1.0  0.00892  0.88327  0.83118  1.0000
  H   H1728     1.0  0.60338  0.70457  0.00894  1.0000
  C   C1440     1.0  0.99016  0.59544  0.76050  1.0000
