data_image0
_chemical_formula_structural       Fe2HSFeHSFeSHSFeS2FeSFeSFeS3FeS2FeS2FeSFeS3FeS2FeS2FeSCS2C6H4C6H4C6H4C6H4C6H4C6H4SC5H6NC2H3NHC2H5CH2CNCH9C2H2CH2C3HCNC9H16C2H6CHCHCHCHC3HCH2C3H3CH5CHCHC3H2CH2NHC2HCHCH2CH3NCHC3HC2H4CHSCS2H4FeS2FeSHSCHCFeS2FeSFeSC2H2FeS2C2FeSHSCH2FeH2FeSHCFeS3FeS2FeS2FeSFeS3FeS2FeS2FeSFeS2HFeS2FeS2FeSFeS3C4HCH3C7H4C6H4C6H4C2SC3HCH3C4H2CH3C4H3SHC2H2C2HC2HC4H5C4HCH4CH2C3H4C6H2CHC6H2CHC2H2C3H2CHC2NC9H16CHC2HCH2CNSHCH2NSHCHCH2C3HCHNCHC5HCHNH2CH2NC9H11CH2NH2C6H4C5H6C2HNH2SHCH5SH2CHCNFeH4CH2C2H4CNC6SC2H11CH2CHC5HCHCH4NC7H10C3HSH2CHCH2CHC2H8SC4FeCH2C2FeS2FeS2FeSFeS3CSCH2SFeS2FeSCFeSFeS3C6H4C7H3C6H4C6H4C6H4C6H4NC9H15S2H5SHSCH2CHSCH2C2HNHNH3C7H2CH11SCH4NCH3SCH2CSH2SHC2HFeCH2CH2CH3C2H2NH2CHCH3CHCH3CNC2FeH2CH3NCH2C2H3C5H4CHCHNH8CH2C2H5CH5CSFeHC2FeCH4CHC2FeS2HNCFeHFeHS2FeS2HFeSCHFeS2FeS2FeSFeS3FeSHFeS2FeSFeS3C2HSCSC2HCHCH2C6H4C2HC3HC2HC6H4C5H3NHC6H17NHC2H3C2HCH3CSCHC4SC2HC3HCH4C2H4C4HC2NCH4C3H3CH2C2HCNCHC2H5CH2FeCH3SCH2FeCH4C2H3C3HC2H3CHSCNCHC2HC2H3CH2C2HC2SFeS2FeSFeSFeS3FeS2FeS2FeSFeS3FeS2FeS2FeSFeS3FeS2FeS2FeSFeS3CHFeS2FeS2C2FeS2FeS2FeS2FeSFeHS2FeS2FeS2FeSFeS3C6H4C6H4C6H4NCHCHCH6CH3C6H4C4HCHC7H4C6H4C6H4C6H4C6H4C6H4C6H4C6H4NHCHC2H6C2H8NH2NC9H16CHCH5CHNC7HC2H2CH3NHCH7CH6CH2NC3HCNHC2H4CH4C2H3NC8H9NC3H6C3H2C3H3CHCH4C2H3NHC5H9C3HFeCH4CH2C3H2CH2CHCH2C2H2C2HCH2C2HNCH2C2H3CHC2H5CNH2CFeCNC5H3C3H2CSH2C3SCHC3HCH4CH3C2H3C2N2HCH4CH3C3H5CHCH3CH4C2H3C3HCH6NCH3CH3C2H3CH2C2SHCHCH4C2H2C2H3CHCH2CHCH2CHC2SHSH3SCFeS2FeS2FeSFeS3FeSFeS2FeSFeS2HFeS2FeS2FeSFeS3FeS2FeS2FeSFeS3HSCSFeSHFeSFeS2H2CFeS2FeS2FeSFeS3FeS2FeS2FeSFeS3HC6H5CH2C2HCHNHC2H6C4HC6H4C6H4C6H4C6H4C6H4C6H4C6H4C6H4C6H4C6H4C6H4C6H4NC9H18NC6H2CH10SH2NCH5NC9H12CH2NC3H3CH4C5HCH3NHC2H2CH3CH7C2H4CH3NCH4SCHCHCH2C2H3C2H3CH3CHCNH2C3HC3NCHCH2CHCH2NCH8C2HC4NHCH2CH2CH2C3HC3HC2H2C3H2CH4SC2H2CH2CHC2H2C4H3SH2C2HCH3CHC2SH2NC2HCHFeH2C3HC3H5CH2C2FeH2C5H2C3H6NH2CHCH2CH2CHFeS2Fe2S3FeS2HSFeSFeS2HFeS2FeS2FeSFeS3H2SHS2FeSFeSCH4Fe2C6H4C6H4CH2C6H4C6H4C6H4CH2CSH3C2H2NCHC5H2C2SHSC2HCHC2SH2NC9H18FeH5CNC9H14CHCHC3NSHCHFeHNC2H2C2H2SNC9H16CHCHCH4C2H2CH2CHCH3CHCHFeS2FeS2FeSHSCFeS2FeS2FeSFeS3Fe2HSC2S2HS2HC2HSH3CSH2SH2C6H4C6H4C6H4SC6H4FeCH5CHC3H2CH4CHC2H5CH2C2H2C2H4FeNCHCH2C2H3NC5H9NC9H14C5H8C4HNCNC2SHC2HCHCFeNC6H7CHCFeH2NH3C3HCHSH3CNH3CHC2H5C2HSHC3H2CHC2H2CSNH7C2HSH5CNCHC2SC2SH4FeS2FeS2FeSFeS3FeSFeS2FeS3FeS2FeS2FeSFeCS2FeSCFeSHFeSFeHSH2CH3CSHCHCSCNH4CSFeCH2C3H2CHCH3C3H2C3H3C2H3C2H2CSHFeSC5H2CHC8H3C6H4C6H4C6H4C6H4C6H4S2C2H2C4H2C2HC3HCH2CNC9H15CHC2SH2C2H2SH6CH2CFeCH5CHC2H2C2HC2HFeHNC2HC6H7FeH2CHCNC5SH10CH4CSCH2SHCHCHNC2HCHC4SCFeH7SHSNC9H14SC2SHNCHCHC4H2C2H2CSHC2FeHCHSHSH4C5HNHC2HFeCH2CNH3CHC2H4C2H3C2HNH2CH2CHSFeCHCH2CHCHCHCHCHC2H2C4H2C4H2FeSNFeCSFeSCSHCFeS2FeSFeHSCFeS2NSFeS2FeS2FeSFeS4C6H4C6H4C6H4FeCH3C6H4C6H5CHC2H3CHCH2CHSH2CHCH4CHCH2NCHCH2SNCHSC2H3C4H8CH4CH3C2HCHSH6C2H2CH5C8NHCH3CHNCH2CHNC9H8SHC3SCHCHCHFeHC2SCH5CH2CH3CHCHCHC3HCH3FeCSH3SNFeSFeS2FeSFeS3H3FeS2FeS2FeSFeS3FeS2FeS2FeSFeS3H2SH3FeS3FeSFeS3FeS2FeS2FeSFeS3FeS2FeS2FeSFeS3FeS2FeS2FeSFeS3C6H4C6H4C6H4C6H4C6H4C6H4C6H4C6H4C6H4C6H4C6H4CHC2HCH2C5H2CH2C8H4C6H5C6H8NCHCH2CHCHC2HCH3CHC2NC9H16CHNCH5CNC9H14NHC2HCHCHCH3C3HCH2CH3NC9H12C3HC3HFeHCHC6H2NH2CNHCHNCH3NHCHSHCH2CHCHCH3C2H7C3HCH2CH8C4H3CH3CH2CH2NC2HCH3C2H3C2H4CH2CHCHCH5NHCHC2HCH3C2H4C3HCH9C2H2CHCH2CH3NC2H3CHCH3NHCHC4HCHC2HC5HCHC3HC2HC3H2C4H2CH2CSH2SH6CHFeS2CHFeS2HCHSFeS2H5FeSCFeS2FeS2FeSFeS3HC6H4C6H5C3HC6H6C6H3NH3NH2SHCH3C2SHSH2CHC2H2FeCHC2HNHNC2FeHCHCH2C2H2CH2CHCH5CH8CH5CHFeHSFeH2CNH2FeCSCH4CHC3HSH3NC2HCH2C2H2SHNC6FeHSH3CSHCHC2H5SH3C2HC4HCHFeSCFeHCHFeS2FeS2FeSFeS3H2FeHSHCHCSHC2HSCNFeHSHCNHC2HC2HC3FeS2FeSFeSFeS3CH3C6H5C2H2C6H5C3HCHSH4CH2SCHCH3FeHC7H4C6H4C6H4C6H10CH2C2H2CH2CHNH2SCSNC9H15SC3H3SHCH5CSH2SC2HCH3C3H2CHCHCH2CH3NC9H14NC8H4CH8CFeCH2NFeCHC2S2H2SHFeHCH2C3NSHCHC4H2C3SCS2HC2SCFeS2FeS2FeSFeS3FeS2FeS2Fe2S3FeS2FeSHFeSFeSHSFeSHFeS2FeSCHSCSC2HC2HSHC2H3C2H2C6H4C6H4C6H4C6H4C6H4CFeHC4SH2C7H4C2H2CH3SH3FeC2HSHCH2CHCH4FeH2C2H2CHCHNHC3H3CNC9H14SHNC3H3CH3C3HC2HC3H2CHCHCH3CH3SC2HNC9H17CHCH5NC4H11CHNC2H3CHCSHC2H2CFeH2C2NCH4CH6CNC3FeH2CHC2H2C2H2C2HNCHCH2CH5C5HCHCSCH2CSCSHCH3CSCNH2CH2CHFeC3H4SHCHCHFeCNH2C3H3CHNSH2CHCH3CSC2H2CHCHCH4NH2C2HCH2CHCHFeS2CFeSFeSFeHSFeS2FeSFeS2HFeS2FeS2FeSFeS3HSHCFeS2C6H4C6H2CHC6H4C6H4C4H3C6H4C6H4CH2CNH2C2HCH2C2H5CHSH2SHC4H3CNHCH7SNHCH2CHCHCHNHC5H2CH2C3H10CHSH2SH2CNH2FeH2NH6CH3CHC3HSCH2FeCH5CH2NC7H2C2HC3H2CHCSHSCH7C2H2C2FeC2S3FeSFeS2FeS2FeSFeS2FeS2FeS2FeSFeS3CFeS2FeSFeCS2C6H4C6H4C6H3C6H4C6H4C6H4C6H6CHCSCHFeSCHCSCH5CH5C3H3C3H3NC9H15C2H3C2H6C2H7NC2NC3HCHC2HFeHSCSCH3C2SHCH2CHC2HC2H3C2H2CH3C2HNC2HCNH2NH2FeH5NH2CHCH6C2H3CH4CFeHNCH2FeS2FeSFeSFeS3FeS2FeS2FeSFeS3FeS2FeS2FeSFeS3FeS2FeS2FeSFeS3FeS2CHFeSHCHCHSFeSHFeSFeS3FeS2FeCSHFeHS3C6H4C6H4C6H4CHFeCH3CH2C6H4C6H4C6H4C6H4C6H4C6HCH2C6H5C5H4C5H4C2H2C5H2NC4H4SCFeHCH5CHCNHCHCHCH4CHCHSH2CH3C2H3C2NH10C2HCHC2H2CH3CH3C2HC3H2CH4C3H3C2H2C2HCHCNCSCHCHC2H2CH2CHCH3SC2HCNH6CHCHNH2CH2CH3C2HNC9H14C7HNCH2C2H3CH2C2HNC8H12CH3CHCFeSH2C2HCH4CHCH4CH2C3SCHCFeC2FeS2FeSFeS4FeS2FeS2FeSFeS3NHC6H4C2HC3H4C6H4C6H5CFeH2CHNCHC3H2NC9H15C2H2CH4NCH2CH6CH3C2HCH3CNC9H15CH3CH4C2H3C2H2CHCHCNSC6SCH6CSC2H3C2H2CH2SHSC4NH5C2HCH4CNHCH2C3H2SFe2CFeSHCSCFeS3FeHFeS3FeS2FeS2FeSFeS3FeS2FeS2FeHFeS3C2H2CHCH6C2HCH2FeHCHC6H4C3HSCH3CH3C6H4C6H4CHC6H7CSH3FeNCH4C2HC2HCH2C2HC2H4NC9H15CHC3H2C4HC2NHSH2SH2C2H7CH2C5SNH3CNC2HCSH5CH2CHCHCSCHCH2C2SH2FeS2FeS2FeSFeS3FeS2FeSHFeSFeS3FeS2FeS2FeSFeS3FeS2FeS2FeSFeS3CHSHFeSFeSFeSFeS3FeS2FeS2FeSFeS3FeS2FeS2FeSFeS3CSC6H4C6H4C6H10CH2C6H4C6H4C6H3C6H4C6H4C6H4C6H4C6H4C6H4C6H4NHC2HCH5C2H2CHNC8H11CHCHCH2CH3CHCH3CH5CNHNC5HCHCHC2H3C3H2NC2H4NC9H14NC4HCH2C3H12NH3CH3C3HNHCNC9H14NC9H15CH3SH3NC4HC4HCH3CHCH7C2H3CH2CH4C2HCH5NC9H13CH4C2H3C2NHCH4C2H3C4HCNH2C2H6C2HNC2H2CHFeH2CH4CHCHCH3CHCSHC4H2SHCH2CHNC2H2C2H2C2HC3HCHCH2SH2C2H4C3H5C2HCSH3FeSHFeS2FeS2FeSFeS3FeS2FeS2FeSFeS3HSFeHSFeCSHFeS3FeS2FeS2FeSFeS3FeS2FeS2FeSFeS3FeS2FeS2FeSFeS3C6H4C6H4C6H4C6H4C6H4C6H4C6H4C5H3C4H2C6H4C6H4C6H4C6H4C2NCNSC4H3C2H3C3H6NC9H17CHCHC2H3C4HC3NC4H9C3H8CH2CH3CH5CH2CSCHCNC6H11NC9H18SH2C2H2CH2CH3C2H3NHFeC2H3C7H6C2HCHCHCSH2C2NCH3C6HCH2CH2C2HCH2CHCH5SCNC2HCH2CH2NCH2CH5CH5C6FeCNHC3HSCHCH2CHC2H3CH4CH5CSC3HC2HNC2HC4HC2HSHC2FeH6NHCHCSC2SHCHCHCH5C2H2CH3CHCHCHCHFeS2H2FeCH3S2FeSFeS2FeSFeS3FeS3FeSCSCHFeS2FeS2FeSFeS3C6H4C2H2C6H4C6H4FeH2CNC6H5CH2C3SHNCHC6H4NC9H4CH12CHCH4FeCH2CHC4HSCHCH5CHC2H2FeH3NHCHNCFeHSC2H4CHNC4H7CH5C2H4CHC2HCHC7H7NH3C3H5CH4CHCH2CHCH3CHC2HC2HSHSHCFeSC2SHFeS2FeS2FeSFeS4HCSCSC6H4C6H4C6H4C6H6CNCHSH3CH4CNH2C7NFeHCHNH4SHSHCH4CHCHC5H3CH3CHCH4CH4CFeH5NH3CFeHCSH2SFeCHC3HC2SHSCHCH4NC2H3C2HCH4C3SCHC2H2CH2CHCHCH3Fe2CH3CNC3H2CH4CFeH2C2SH3CFeH2CH2CH2SHC6NSCHCHCNHCH2CHCHSH2CH2CHSHCHCHC3SH3CH2CH2C2H3SHCHFeHS2H6CHCSH2FeSH2SC3SCH2CH2CNSC2SFeS2FeSFeS2HFeS2FeS2FeSFeS3FeS2FeS2FeCFeS3FeS2FeSCFeSFeCSCHCS3H3SCHC2HC7H4C6H4C6H4C6H4NCNC3H4C6H4C2HC2H2C4HC2HFeH5CHC2HCH3CH2C3H3C6H4C6H2CH2N2C3H4SH2CHC2H2CH4CSHC2HCH2CNHCHNC9H14C6H5CHCHC5H5CH3C2H5C2SH2CH3CHC3H4SH2CHC2H2NC3H4C3H4CH2CH2C3HCNCSC7H3CH10CFeC2H2C3Fe2C2Fe2H3C2HCH2CH5C2SH3CHCH2S2FeS2FeSFeS2FeSFeS2FeSFeS3FeS2FeS2FeSFeS3FeS2FeSFeS2C6H4C6H4C6H4C6H4CHC4H3C6H5C6H4SH5CFeH3CH8FeH6C4H4CHC2H2CH4C8H2C2H6C3HCHC2H3NH5C2HCHCHCHC2H4CH3CNCHCHN2H2CH2CHCHC3HC2HCNCHCH4CH3CSH3C2H2CH2C2HC3H2NC9H11CHSHNH2CHC2NSC2HCFeH3CHCSFeSFeS2FeSFeS3FeS2FeSCFeSFeS3FeSFeS2FeSFeS3FeS2FeS2FeSFeS3HC6HCH2C6H4C6H4C6H4C6H4C6H4C6H5C2H6SCH4C5HNH3C2H6C2H2CNCH3CH6CH4NH6C2H2NCH3CHCNC2H3NC9H14C6H8C2NH8C2HCH2C2NHC2H5C2H11C2HCHSH2CNCHC5H2CH3CSFeS2H2FeSFeSH2FeSFeS2HSC3FeS2FeHFeS3FeS2FeS2FeSFeS3FeS2FeS2FeSFeS3FeSHFeS2FeSFeS3HSHSC6H4C6H3C7H4C6H4C6HCH2C6H5C2H5S2C6H4C6H3C6H3C2HC2H2C6H2C8H2S2C6H3C3NC9H14NC9H12NCSHSC3H12CH2CHCFeC2H2CSHCHCHCHCH2NCH2NCH2C4HC3H5C2H3CH2NH2CSH2C3H3C2HCH3C3H3CHCHCHCH4CNCHCH2CH2CH2CHCH3CH2CSHCH5CHSNCHCNCH3CHCH3SCH2NHC2HC2H4FeC3H2FeCHCH2SH5C3FeHCHCHNHFeHCH10NHCH5CSNCHC2SC2HC2HFeCHCSHCHFeHCH2CHFeHS2FeH2C3FeHSHCFeS2FeS2FeSFeS4H3SH2SH2C2SFeSH3FeS2FeS2FeSFeS3C6H4CH4CH2C6H4C7H4C6H4C6H4C6H5CHCH2CNC9H15C2SCH3CH3C4HCFeSH3NH2C2HNH2CHCH2C2HC2H4C4HC6NHCH2C3HCHCHCSHC2NH4CNH3CHCHC2HCH2CH3CHCH3S2H2CHCHCH3C3H3CH4CSCHCH7FeNH2C3H2CHC3HNSHFeCSHFeS2FeS2FeSFeS3FeS2FeSCFeCFeSCSH5CHCHCHC6H4C2H2C2H2CHC6H5C7H3CH2CH3CH2CNHC2H6SCSHNHNC2HC2HC3H2CH5SC2HSCHC3HSFeCSH2NC8H9C3H5FeCHFeC3H2CHCH3SH5C2HCHCH5CH2CH2CHSHSCFeS2FeS2FeSFeS3FeS2FeS2HFeS3FeS2FeS2FeSFeS3FeS2FeS2FeSFeS3FeS2FeHSFeS3FeS2FeS2FeSFeS3FeS2FeS2FeSFeS3C3HFeCH2CHC6H5C2H3C2H4C3H3NC6H4C6H4C6H4C6H4C6H4C6H4C6H4C6H4C6H4C7H2C6H4NC9H14C4H4NC9H16C2HC2H2C5HCNH3CHCNC5H12SH3CHCNH8C3NC9H15C2HCH2C2H4CNC9H15CHC4HFeH6CNC2HC3HCH2C2H4CNH2CH3CHNCH4C4H4CHCHCHCSH2C2H5CH3C2HC2HCH2NC8H9CHCNCH3CH2CHCHCHCH3CH4CNC2HSFeS2FeSFeS3FeS2FeSCFeSFeS3FeSCFeS2FeSFeHSCFeS2FeS2FeSFeS3CHCH4C7H4C6H4C3HC2HCH2C3HC7H4C6H4C6H4CHCNC9H17CHCH5NCH4CHCNC9H14CH2C2H2C6NCHNFeH5NH6C2H3CH6CH2CHCH2SH2CH2CH3CHC2SCH2NCHC3HCH6SFeS2FeS2FeSFeS3FeSFeS2FeSFeS3FeS2FeS2FeSFeS3FeS2FeS2FeSFeS4HSC5SH3SH2SFeSFeSNCFeS2FeS2FeS4HC2HC4H3C6H4C6H3C2SH2CH2CH2C6H2CHC6HCH2C6H4C6H4C6H4C6H4C6H4C6H4C6H4C4H3C2NC9H14NC9H14NCHSHCHCH2C4NHCHCH4CSH5FeHCHC2H2C2HFeH2NCHC9HCH2CHFeH5C3HCHCSH2C2HCHC4H5FeHCHC2HC2NC2H5CHCH3SHCH3CHCHCH2NC9H14NC9H16CHCNCH2C2HCH2CNCSCNH2SHCFeHC2H6FeHCH3CH3CHNH5FeHCNHCHCH7C3HNCH4CH3CHCH3CH2CH6CH3SHC2FeS2FeS2FeCFeS3FeS2FeS2FeSFeS3FeS2HC6H4C6H4C6H4C6H4C6H4C7H2CNHCHCHCH2CH3CH2SFeHCH3NC7H12CH2C2H4NHC7HNH2CH4CH5NCH3C2HCH2CH3C2H2CH3CH2C2H3C2HSC2H2CHC5HCH2CFeHCH2SCSH7CHC4H6CH3SCH2CHCH3CHNH2CH2CH2C4S2HNH3CHC2H2CH2C2H2CH2CH3CHCHFeS2FeS2FeSFeS4FeSNHFeSH3FeSFeS2FeS2FeSFeS3HSC4H4C6H5CNC2H3C7H4C4H2CH2CHCHCH2C6H6NC2H11C2NHC3H3CHCH4CNSHC2H2Fe2HCH2CH4CH2CH2C3HC3H2FeCH2CHCHC4H2CSH2CHCHC2H2C2HC3HSCHCH2NH6C3NCHC3H5CHCHC2HC3HCH2C5H4SH3CSH3C2HS2C2SCFeS2FeS2HFeHS2FeS2FeS2FeSFeS3FeS2FeS2FeSFeS3HFeS2FeS2FeSFeS3FeS2FeS2FeSFeS3FeS2FeS2FeSFeS3FeS2FeS2FeSFeS3H4C2HC3HCH2C6HNH2C6H4C6H4C6H4C6H4C6H4C6H5CH2C7H4C2H2C2HCH2C6H4C6H4C6H4C2HCH2CH2C2H5C6H7C2HCHC5H3C2H2NC9H14NC9H14CH2CH4CH2CH2CHCH2CHNH5NC5H8C3H2CHNC3HNC2H2CH5CNC2H3NHNH2CH5C2HCH2C2HCH8C2H4C3HC2H3C2H2C3H6C3H3NH2SH4CHC2HCH2C2NC2HCNC4H4NC2H3C2H3CH3SHCHC6H2C2H2CHC2H3FeHC2HCH2CH2CHCH6CNC2HCH4CH3CH3C4H5NH3CH4C2HCHCSFeS2FeS2FeSFeS3FeSFeSFeS3FeS2FeS2FeSFeS3FeS2FeS2FeSFeS3FeSFeS2FeSFeS3C2HFeS2FeS2FeSFeS3FeS2FeS2FeSFeS3C6H4C4H4SCHC5H4C2H2C2H4C6H4C6H4C3H2C6H4C6H4C6H4C6H4C6H4C6H4C6H4C6H5C4HCHCNC6H2CH10C3NC8H11NC9H14NC9HCH12NC2H2CHCHCHSCH5CH3C2NC8H12CHCNC9H17NH5CHCHSHCHCH2C3H2CH2NC2HNHCH5C2H2C2HC3HCH2C2HCH2C2H3CH4NCNHCHCHCH3C2HCNCH3CHC2H2CH3CHCH3C2H2CHCH2CH2C2H6CHCHNCHCHC2H3CH2C2H3C3H4C2H3CH3CH3C2FeHCH2CH3CH2FeS2FeSFe2S2FeS2H2CFeS3FeCFeSFeSHSCFeS2FeS2FeSFeS3C6H4C6H4C2H3C7H4C6H4C6H5SH2CH2C3HFeHCNCH9CH2CH5C2HCH4NC7SH2C2HCH8NHNC3H2C2HCHCH4SHSCH5CH4SHC3HCHNC9H11CH3C5H2SHSCH2CH2SC2NFeSFeS2FeS2FeSFeS3NCFeSH3SCHC2HFeS2H2FeSFeCS2HS2C2H3C2H4CH3FeHC2H4C6H4C6H4C6H4C6H4C2NH2C2HCH3CH2CH6CHC4HCHCH2CHC2H2CSHNC9H16CH2CH2C2SC4H2CHC3H2NC4HC3H4C3H3NHNCH3NC3HCH2FeC3H4CSHCH7CHCHCH4SH5S2H3C2NC2H2CHFeCH2CH4CHSH2CHCH2CHC3SC3SH3SFeSHCH2SNHCNCFeS2HCSH3FeS2FeS2FeSFeS3C2FeS2FeSFeCS2FeSH2SHFeSFeS2CHSC2S2FeCFeSCSCSCHFeHCH3C4HC7H2C7H4C6H4C6H4C6H4CH2CHSC6H2C3HCH2CHC2H2C4H4CHSC3HCHCHCHC3HCH3NCSHCH3CSHC2FeCH3CSH6CH2CHC2H2NC9H14NC9H12CSNC9H14C4HC2HCSCNCHFeNC9H15NC9H13SC3HCH2CHC2H3SCH3NH2FeH4CHCFeCH3FeH2FeC2HC2FeH2NCH2CSHS2HC3H4SCH2SH2FeHCFeCHFeHCH2C2SC4HCHCHS3HCSHFeS2FeSFeSFeS3FeS2CSFeSFeS3NFeS2FeSFeS3FeS2FeS2FeSFeS3CH2SC6H4C6H4C6H4C6H4C6H4C6H4C6H4C5H3CH2CHCH5CH2C2NC9H16CH2CH3C2HCSCH4SH2CH2C3HC2HCH2CHC4H2FeCHC2HNC2H7NHC3NCH2NHCH2CH4FeH2CHNC9H15CH4CH4CH8C2H3CH2CH3
_chemical_formula_sum              "Fe768 H6912 S1536 C5760 N384"
_cell_length_a       115.782
_cell_length_b       115.955
_cell_length_c       116.338
_cell_angle_alpha    74.2681
_cell_angle_beta     74.2833
_cell_angle_gamma    74.294

_space_group_name_H-M_alt    "P 1"
_space_group_IT_number       1

loop_
  _space_group_symop_operation_xyz
  'x, y, z'

loop_
  _atom_site_type_symbol
  _atom_site_label
  _atom_site_symmetry_multiplicity
  _atom_site_fract_x
  _atom_site_fract_y
  _atom_site_fract_z
  _atom_site_occupancy
  Fe  Fe1       1.0  0.11335  0.38560  0.15810  1.0000
  Fe  Fe2       1.0  0.14525  0.47101  0.06525  1.0000
  H   H1        1.0  0.19296  0.46399  0.03731  1.0000
  S   S1        1.0  0.15342  0.46037  0.05023  1.0000
  Fe  Fe3       1.0  0.12638  0.47143  0.08885  1.0000
  H   H2        1.0  0.09525  0.45771  0.06126  1.0000
  S   S2        1.0  0.11079  0.46292  0.10055  1.0000
  Fe  Fe4       1.0  0.15214  0.47341  0.08774  1.0000
  S   S3        1.0  0.16637  0.46959  0.09887  1.0000
  H   H3        1.0  0.21185  0.43965  0.06210  1.0000
  S   S4        1.0  0.14479  0.45918  0.08402  1.0000
  Fe  Fe5       1.0  0.21119  0.40785  0.09261  1.0000
  S   S5        1.0  0.19491  0.40102  0.09273  1.0000
  S   S6        1.0  0.20920  0.42244  0.10269  1.0000
  Fe  Fe6       1.0  0.22919  0.39067  0.07725  1.0000
  S   S7        1.0  0.21420  0.38268  0.07541  1.0000
  Fe  Fe7       1.0  0.20317  0.40195  0.07275  1.0000
  S   S8        1.0  0.18959  0.41171  0.06070  1.0000
  Fe  Fe8       1.0  0.20714  0.38239  0.09541  1.0000
  S   S9        1.0  0.20233  0.36504  0.10780  1.0000
  S   S10       1.0  0.21878  0.41018  0.07246  1.0000
  S   S11       1.0  0.22279  0.38904  0.09746  1.0000
  Fe  Fe9       1.0  0.14844  0.38925  0.03594  1.0000
  S   S12       1.0  0.13662  0.37626  0.03704  1.0000
  S   S13       1.0  0.16874  0.38231  0.03512  1.0000
  Fe  Fe10      1.0  0.12723  0.41076  0.03857  1.0000
  S   S14       1.0  0.11358  0.39971  0.03979  1.0000
  S   S15       1.0  0.11945  0.43011  0.04154  1.0000
  Fe  Fe11      1.0  0.12418  0.38508  0.05227  1.0000
  S   S16       1.0  0.11342  0.37450  0.06905  1.0000
  Fe  Fe12      1.0  0.12680  0.39174  0.02433  1.0000
  S   S17       1.0  0.11790  0.39081  0.00918  1.0000
  S   S18       1.0  0.13679  0.39660  0.05229  1.0000
  S   S19       1.0  0.13971  0.40424  0.02197  1.0000
  Fe  Fe13      1.0  0.12868  0.40149  0.13820  1.0000
  S   S20       1.0  0.10831  0.40270  0.14419  1.0000
  S   S21       1.0  0.13862  0.41683  0.13294  1.0000
  Fe  Fe14      1.0  0.13460  0.37448  0.13969  1.0000
  S   S22       1.0  0.11486  0.37308  0.14572  1.0000
  S   S23       1.0  0.14955  0.35779  0.13773  1.0000
  Fe  Fe15      1.0  0.11162  0.39020  0.13125  1.0000
  S   S24       1.0  0.09870  0.39295  0.11874  1.0000
  C   C1        1.0  0.13448  0.41512  0.09783  1.0000
  S   S25       1.0  0.13154  0.39048  0.12419  1.0000
  S   S26       1.0  0.13350  0.38547  0.15318  1.0000
  C   C2        1.0  0.10971  0.37991  0.08268  1.0000
  C   C3        1.0  0.09911  0.37754  0.09132  1.0000
  C   C4        1.0  0.09592  0.38148  0.10237  1.0000
  C   C5        1.0  0.10360  0.38730  0.10518  1.0000
  C   C6        1.0  0.11439  0.38941  0.09670  1.0000
  C   C7        1.0  0.11732  0.38599  0.08533  1.0000
  H   H4        1.0  0.09320  0.37281  0.08940  1.0000
  H   H5        1.0  0.08750  0.37991  0.10882  1.0000
  H   H6        1.0  0.12037  0.39383  0.09886  1.0000
  H   H7        1.0  0.12559  0.38778  0.07878  1.0000
  C   C8        1.0  0.18737  0.36375  0.11573  1.0000
  C   C9        1.0  0.17730  0.37371  0.11535  1.0000
  C   C10       1.0  0.16560  0.37212  0.12232  1.0000
  C   C11       1.0  0.16399  0.36053  0.12941  1.0000
  C   C12       1.0  0.17403  0.35063  0.12954  1.0000
  C   C13       1.0  0.18567  0.35225  0.12280  1.0000
  H   H8        1.0  0.17861  0.38262  0.10994  1.0000
  H   H9        1.0  0.15787  0.37982  0.12224  1.0000
  H   H10       1.0  0.17284  0.34166  0.13495  1.0000
  H   H11       1.0  0.19342  0.34454  0.12309  1.0000
  C   C14       1.0  0.18429  0.40339  0.05332  1.0000
  C   C15       1.0  0.19089  0.39190  0.05110  1.0000
  C   C16       1.0  0.18626  0.38558  0.04518  1.0000
  C   C17       1.0  0.17491  0.39061  0.04175  1.0000
  C   C18       1.0  0.16837  0.40210  0.04398  1.0000
  C   C19       1.0  0.17313  0.40853  0.04959  1.0000
  H   H12       1.0  0.19959  0.38793  0.05383  1.0000
  H   H13       1.0  0.19138  0.37670  0.04344  1.0000
  H   H14       1.0  0.15973  0.40612  0.04118  1.0000
  H   H15       1.0  0.16809  0.41748  0.05113  1.0000
  C   C20       1.0  0.17808  0.45630  0.09931  1.0000
  C   C21       1.0  0.18667  0.45494  0.10628  1.0000
  C   C22       1.0  0.19628  0.44463  0.10695  1.0000
  C   C23       1.0  0.19743  0.43555  0.10067  1.0000
  C   C24       1.0  0.18892  0.43686  0.09356  1.0000
  C   C25       1.0  0.17914  0.44723  0.09295  1.0000
  H   H16       1.0  0.18590  0.46193  0.11116  1.0000
  H   H17       1.0  0.20284  0.44368  0.11242  1.0000
  H   H18       1.0  0.18981  0.42985  0.08867  1.0000
  H   H19       1.0  0.17250  0.44829  0.08757  1.0000
  C   C26       1.0  0.11768  0.45060  0.11071  1.0000
  C   C27       1.0  0.11283  0.44006  0.11541  1.0000
  C   C28       1.0  0.11918  0.42973  0.12241  1.0000
  C   C29       1.0  0.13025  0.42998  0.12491  1.0000
  C   C30       1.0  0.13493  0.44064  0.12050  1.0000
  C   C31       1.0  0.12865  0.45093  0.11339  1.0000
  H   H20       1.0  0.10439  0.43971  0.11340  1.0000
  H   H21       1.0  0.11562  0.42149  0.12560  1.0000
  H   H22       1.0  0.14343  0.44095  0.12247  1.0000
  H   H23       1.0  0.13234  0.45913  0.10997  1.0000
  C   C32       1.0  0.14396  0.45186  0.04803  1.0000
  C   C33       1.0  0.14928  0.44087  0.04395  1.0000
  C   C34       1.0  0.14187  0.43401  0.04205  1.0000
  C   C35       1.0  0.12915  0.43837  0.04376  1.0000
  C   C36       1.0  0.12393  0.44956  0.04741  1.0000
  C   C37       1.0  0.13124  0.45614  0.04984  1.0000
  H   H24       1.0  0.15914  0.43770  0.04222  1.0000
  H   H25       1.0  0.14601  0.42554  0.03897  1.0000
  H   H26       1.0  0.11419  0.45317  0.04830  1.0000
  H   H27       1.0  0.12710  0.46474  0.05269  1.0000
  S   S27       1.0  0.10312  0.38129  0.17778  1.0000
  C   C38       1.0  0.12419  0.35903  0.99698  1.0000
  C   C39       1.0  0.12465  0.36751  0.00351  1.0000
  C   C40       1.0  0.11830  0.37971  0.00089  1.0000
  C   C41       1.0  0.09325  0.42148  0.07117  1.0000
  C   C42       1.0  0.11171  0.38332  0.99149  1.0000
  H   H28       1.0  0.12898  0.34959  0.99923  1.0000
  H   H29       1.0  0.12984  0.36455  0.01064  1.0000
  H   H30       1.0  0.11267  0.44489  0.07128  1.0000
  H   H31       1.0  0.09588  0.41794  0.06288  1.0000
  H   H32       1.0  0.16465  0.42175  0.15211  1.0000
  H   H33       1.0  0.18783  0.41970  0.14262  1.0000
  N   N1        1.0  0.17362  0.42059  0.13350  1.0000
  C   C43       1.0  0.17073  0.42596  0.12128  1.0000
  C   C44       1.0  0.09339  0.38113  0.03974  1.0000
  H   H34       1.0  0.15817  0.40471  0.14829  1.0000
  H   H35       1.0  0.11547  0.35505  0.03975  1.0000
  H   H36       1.0  0.16228  0.38259  0.15121  1.0000
  N   N2        1.0  0.15768  0.41107  0.09007  1.0000
  H   H37       1.0  0.09564  0.35084  0.05241  1.0000
  C   C45       1.0  0.19284  0.46947  0.07250  1.0000
  C   C46       1.0  0.16333  0.42599  0.14263  1.0000
  H   H38       1.0  0.18297  0.37326  0.06978  1.0000
  H   H39       1.0  0.08342  0.41245  0.10180  1.0000
  H   H40       1.0  0.08551  0.43281  0.10132  1.0000
  H   H41       1.0  0.16344  0.37608  0.06342  1.0000
  H   H42       1.0  0.15430  0.42493  0.14194  1.0000
  C   C47       1.0  0.16695  0.40031  0.14353  1.0000
  H   H43       1.0  0.16218  0.42369  0.12077  1.0000
  H   H44       1.0  0.18170  0.37127  0.14046  1.0000
  C   C48       1.0  0.18865  0.38751  0.13102  1.0000
  N   N3        1.0  0.09797  0.36790  0.03953  1.0000
  C   C49       1.0  0.08908  0.41408  0.08236  1.0000
  H   H45       1.0  0.17331  0.41959  0.08394  1.0000
  H   H46       1.0  0.15360  0.41817  0.10640  1.0000
  H   H47       1.0  0.16937  0.43615  0.11904  1.0000
  H   H48       1.0  0.15859  0.43012  0.08509  1.0000
  H   H49       1.0  0.17819  0.42241  0.11399  1.0000
  H   H50       1.0  0.16242  0.43606  0.14119  1.0000
  H   H51       1.0  0.19262  0.42225  0.12629  1.0000
  H   H52       1.0  0.16570  0.40018  0.07624  1.0000
  H   H53       1.0  0.15043  0.41446  0.06851  1.0000
  C   C50       1.0  0.14501  0.41381  0.08818  1.0000
  C   C51       1.0  0.08960  0.45946  0.07022  1.0000
  H   H54       1.0  0.08182  0.36247  0.05174  1.0000
  H   H55       1.0  0.10669  0.39270  0.98942  1.0000
  C   C52       1.0  0.16378  0.42121  0.08265  1.0000
  H   H56       1.0  0.11481  0.41746  0.10343  1.0000
  H   H57       1.0  0.12972  0.41764  0.06543  1.0000
  C   C53       1.0  0.16458  0.39947  0.08618  1.0000
  C   C54       1.0  0.08851  0.36970  0.00988  1.0000
  C   C55       1.0  0.11134  0.36497  0.03905  1.0000
  H   H58       1.0  0.16795  0.40748  0.10414  1.0000
  C   C56       1.0  0.09186  0.36087  0.05121  1.0000
  N   N4        1.0  0.14486  0.35649  0.10235  1.0000
  C   C57       1.0  0.13585  0.35425  0.09664  1.0000
  C   C58       1.0  0.14900  0.34485  0.11086  1.0000
  C   C59       1.0  0.13850  0.36600  0.10953  1.0000
  C   C60       1.0  0.15535  0.36083  0.09322  1.0000
  C   C61       1.0  0.15439  0.36714  0.08108  1.0000
  C   C62       1.0  0.16658  0.35980  0.09658  1.0000
  C   C63       1.0  0.16429  0.37151  0.07273  1.0000
  C   C64       1.0  0.17638  0.36424  0.08818  1.0000
  C   C65       1.0  0.17528  0.36998  0.07626  1.0000
  H   H59       1.0  0.13076  0.36286  0.09167  1.0000
  H   H60       1.0  0.14044  0.34804  0.09017  1.0000
  H   H61       1.0  0.12855  0.35007  0.10359  1.0000
  H   H62       1.0  0.15518  0.33785  0.10576  1.0000
  H   H63       1.0  0.14114  0.34091  0.11696  1.0000
  H   H64       1.0  0.15388  0.34613  0.11730  1.0000
  H   H65       1.0  0.13512  0.37485  0.10357  1.0000
  H   H66       1.0  0.13052  0.36330  0.11669  1.0000
  H   H67       1.0  0.14479  0.36781  0.11423  1.0000
  H   H68       1.0  0.14609  0.36884  0.07778  1.0000
  H   H69       1.0  0.16794  0.35566  0.10572  1.0000
  H   H70       1.0  0.11209  0.41827  0.08290  1.0000
  H   H71       1.0  0.18492  0.36322  0.09095  1.0000
  H   H72       1.0  0.08459  0.37654  0.00275  1.0000
  H   H73       1.0  0.18280  0.43629  0.06837  1.0000
  H   H74       1.0  0.19691  0.38251  0.12592  1.0000
  C   C66       1.0  0.15831  0.40962  0.10300  1.0000
  C   C67       1.0  0.18855  0.46491  0.06486  1.0000
  H   H75       1.0  0.17752  0.46579  0.04634  1.0000
  H   H76       1.0  0.08876  0.46463  0.09089  1.0000
  H   H77       1.0  0.20756  0.44287  0.04141  1.0000
  H   H78       1.0  0.08332  0.38400  0.04027  1.0000
  H   H79       1.0  0.09513  0.38332  0.04781  1.0000
  H   H80       1.0  0.11626  0.36997  0.03031  1.0000
  C   C68       1.0  0.18478  0.42435  0.13391  1.0000
  H   H81       1.0  0.08752  0.38292  0.01972  1.0000
  C   C69       1.0  0.09025  0.37324  0.01977  1.0000
  H   H82       1.0  0.10961  0.45822  0.07754  1.0000
  C   C70       1.0  0.13111  0.41689  0.07448  1.0000
  H   H83       1.0  0.11248  0.40315  0.17452  1.0000
  C   C71       1.0  0.17573  0.40706  0.13563  1.0000
  H   H84       1.0  0.19328  0.40476  0.12238  1.0000
  C   C72       1.0  0.18007  0.38115  0.13919  1.0000
  C   C73       1.0  0.09163  0.43807  0.08136  1.0000
  C   C74       1.0  0.16916  0.38755  0.14527  1.0000
  H   H85       1.0  0.21874  0.44769  0.07559  1.0000
  C   C75       1.0  0.09231  0.35750  0.00882  1.0000
  H   H86       1.0  0.09310  0.36354  0.05926  1.0000
  H   H87       1.0  0.11065  0.44331  0.08736  1.0000
  C   C76       1.0  0.19926  0.43948  0.04713  1.0000
  C   C77       1.0  0.09776  0.34874  0.01770  1.0000
  C   C78       1.0  0.20378  0.46336  0.07622  1.0000
  H   H88       1.0  0.15988  0.39177  0.09118  1.0000
  H   H89       1.0  0.10095  0.33931  0.01666  1.0000
  H   H90       1.0  0.09024  0.46887  0.07023  1.0000
  C   C79       1.0  0.21049  0.45269  0.07227  1.0000
  H   H91       1.0  0.19532  0.43615  0.04120  1.0000
  H   H92       1.0  0.20680  0.46665  0.08254  1.0000
  H   H93       1.0  0.08837  0.40483  0.08279  1.0000
  H   H94       1.0  0.10387  0.34502  0.03424  1.0000
  H   H95       1.0  0.09136  0.35490  0.00089  1.0000
  C   C80       1.0  0.10725  0.44913  0.07912  1.0000
  H   H96       1.0  0.17229  0.45070  0.06500  1.0000
  C   C81       1.0  0.09461  0.43325  0.07065  1.0000
  H   H97       1.0  0.13510  0.41456  0.10705  1.0000
  C   C82       1.0  0.09943  0.35213  0.02770  1.0000
  C   C83       1.0  0.20635  0.44813  0.06450  1.0000
  C   C84       1.0  0.08627  0.41842  0.09306  1.0000
  H   H98       1.0  0.09855  0.43825  0.06181  1.0000
  H   H99       1.0  0.07748  0.45548  0.09400  1.0000
  C   C85       1.0  0.14145  0.39757  0.98576  1.0000
  H   H100      1.0  0.20213  0.43115  0.05403  1.0000
  H   H101      1.0  0.18245  0.45523  0.03676  1.0000
  N   N5        1.0  0.09388  0.45025  0.08072  1.0000
  H   H102      1.0  0.17559  0.43982  0.05559  1.0000
  C   C86       1.0  0.09575  0.36451  0.02904  1.0000
  C   C87       1.0  0.08750  0.45518  0.09187  1.0000
  H   H103      1.0  0.09814  0.38698  0.03151  1.0000
  C   C88       1.0  0.19525  0.45419  0.06046  1.0000
  H   H104      1.0  0.16456  0.42230  0.07269  1.0000
  C   C89       1.0  0.14293  0.41506  0.07637  1.0000
  H   H105      1.0  0.17404  0.39675  0.08784  1.0000
  H   H106      1.0  0.11340  0.36760  0.04669  1.0000
  C   C90       1.0  0.18567  0.45898  0.04292  1.0000
  H   H107      1.0  0.15407  0.40197  0.10913  1.0000
  H   H108      1.0  0.18319  0.43444  0.13299  1.0000
  H   H109      1.0  0.17967  0.46960  0.06286  1.0000
  N   N6        1.0  0.19017  0.44917  0.05292  1.0000
  C   C91       1.0  0.17976  0.44376  0.06083  1.0000
  H   H110      1.0  0.09134  0.44977  0.09997  1.0000
  C   C92       1.0  0.12109  0.41756  0.08425  1.0000
  C   C93       1.0  0.12270  0.41695  0.09584  1.0000
  C   C94       1.0  0.18649  0.40028  0.12913  1.0000
  H   H111      1.0  0.07988  0.45965  0.07042  1.0000
  C   C95       1.0  0.08752  0.43021  0.09264  1.0000
  C   C96       1.0  0.11137  0.37489  0.98486  1.0000
  H   H112      1.0  0.13597  0.40385  0.99161  1.0000
  H   H113      1.0  0.15557  0.39081  0.99618  1.0000
  H   H114      1.0  0.14838  0.35935  0.17974  1.0000
  H   H115      1.0  0.18732  0.47745  0.07605  1.0000
  C   C97       1.0  0.11754  0.36264  0.98761  1.0000
  H   H116      1.0  0.16810  0.37630  0.98311  1.0000
  S   S28       1.0  0.15423  0.48451  0.06851  1.0000
  C   C98       1.0  0.15249  0.39019  0.98839  1.0000
  S   S29       1.0  0.13359  0.48462  0.09445  1.0000
  S   S30       1.0  0.12615  0.48223  0.06978  1.0000
  H   H117      1.0  0.23641  0.11368  0.34160  1.0000
  H   H118      1.0  0.05899  0.37154  0.37974  1.0000
  H   H119      1.0  0.23986  0.08085  0.37442  1.0000
  H   H120      1.0  0.11215  0.41517  0.18940  1.0000
  Fe  Fe16      1.0  0.08511  0.21774  0.36220  1.0000
  S   S31       1.0  0.07176  0.23474  0.36662  1.0000
  S   S32       1.0  0.08417  0.20621  0.34992  1.0000
  Fe  Fe17      1.0  0.08841  0.24252  0.36375  1.0000
  S   S33       1.0  0.08768  0.26149  0.35151  1.0000
  H   H121      1.0  0.04374  0.20070  0.37468  1.0000
  S   S34       1.0  0.10157  0.22604  0.35770  1.0000
  C   C99       1.0  0.15445  0.48175  0.31246  1.0000
  H   H122      1.0  0.07706  0.16866  0.37394  1.0000
  C   C100      1.0  0.08411  0.16199  0.37868  1.0000
  Fe  Fe18      1.0  0.04272  0.16192  0.36611  1.0000
  S   S35       1.0  0.04639  0.15231  0.35065  1.0000
  S   S36       1.0  0.03801  0.18189  0.36671  1.0000
  Fe  Fe19      1.0  0.03570  0.13885  0.36423  1.0000
  S   S37       1.0  0.02134  0.12969  0.36191  1.0000
  Fe  Fe20      1.0  0.06257  0.14067  0.35867  1.0000
  S   S38       1.0  0.08156  0.13641  0.34696  1.0000
  C   C101      1.0  0.13654  0.17503  0.37405  1.0000
  C   C102      1.0  0.13103  0.45873  0.31226  1.0000
  H   H123      1.0  0.06726  0.41110  0.34702  1.0000
  H   H124      1.0  0.06391  0.42784  0.32783  1.0000
  Fe  Fe21      1.0  0.14990  0.14851  0.36294  1.0000
  S   S39       1.0  0.15330  0.13209  0.35481  1.0000
  S   S40       1.0  0.14588  0.16774  0.35210  1.0000
  C   C103      1.0  0.10498  0.15626  0.38098  1.0000
  C   C104      1.0  0.06740  0.46635  0.28646  1.0000
  Fe  Fe22      1.0  0.16861  0.12441  0.36517  1.0000
  S   S41       1.0  0.18810  0.11457  0.35854  1.0000
  H   H125      1.0  0.23726  0.13896  0.31430  1.0000
  S   S42       1.0  0.16619  0.14162  0.37154  1.0000
  C   C105      1.0  0.20242  0.08617  0.37923  1.0000
  H   H126      1.0  0.05914  0.42607  0.29394  1.0000
  H   H127      1.0  0.15436  0.46624  0.30610  1.0000
  Fe  Fe23      1.0  0.01762  0.38713  0.33235  1.0000
  H   H128      1.0  0.20008  0.08523  0.37116  1.0000
  H   H129      1.0  0.17601  0.16928  0.35088  1.0000
  Fe  Fe24      1.0  0.01588  0.41129  0.33841  1.0000
  S   S43       1.0  0.00615  0.39578  0.34789  1.0000
  H   H130      1.0  0.11539  0.28383  0.31445  1.0000
  C   C106      1.0  0.04436  0.40601  0.37011  1.0000
  Fe  Fe25      1.0  0.01342  0.41051  0.31351  1.0000
  S   S44       1.0  0.01750  0.41991  0.29380  1.0000
  S   S45       1.0  0.02585  0.36707  0.33551  1.0000
  S   S46       1.0  0.02845  0.40188  0.32381  1.0000
  Fe  Fe26      1.0  0.09590  0.40592  0.23562  1.0000
  S   S47       1.0  0.10642  0.40861  0.24809  1.0000
  S   S48       1.0  0.10314  0.41208  0.21532  1.0000
  Fe  Fe27      1.0  0.07751  0.39477  0.25660  1.0000
  S   S49       1.0  0.08660  0.39618  0.27064  1.0000
  S   S50       1.0  0.06119  0.38599  0.26443  1.0000
  Fe  Fe28      1.0  0.08794  0.41490  0.25952  1.0000
  S   S51       1.0  0.08166  0.42916  0.27101  1.0000
  Fe  Fe29      1.0  0.10418  0.38972  0.25823  1.0000
  S   S52       1.0  0.11913  0.37665  0.26690  1.0000
  S   S53       1.0  0.07747  0.41412  0.24615  1.0000
  S   S54       1.0  0.09510  0.38638  0.24506  1.0000
  Fe  Fe30      1.0  0.11278  0.34684  0.33928  1.0000
  S   S55       1.0  0.09554  0.35526  0.33240  1.0000
  S   S56       1.0  0.12534  0.36011  0.33461  1.0000
  Fe  Fe31      1.0  0.10504  0.32202  0.35002  1.0000
  S   S57       1.0  0.08692  0.32918  0.34432  1.0000
  S   S58       1.0  0.11085  0.30203  0.35917  1.0000
  Fe  Fe32      1.0  0.09810  0.33773  0.32672  1.0000
  S   S59       1.0  0.09477  0.33747  0.30869  1.0000
  Fe  Fe33      1.0  0.08639  0.34595  0.35070  1.0000
  S   S60       1.0  0.03074  0.14959  0.37907  1.0000
  S   S61       1.0  0.11631  0.32984  0.33192  1.0000
  H   H131      1.0  0.11623  0.29550  0.30077  1.0000
  Fe  Fe34      1.0  0.10420  0.45339  0.33656  1.0000
  S   S62       1.0  0.09637  0.45687  0.31989  1.0000
  S   S63       1.0  0.10685  0.47113  0.33993  1.0000
  Fe  Fe35      1.0  0.10212  0.42630  0.34295  1.0000
  S   S64       1.0  0.09440  0.42795  0.32675  1.0000
  S   S65       1.0  0.10274  0.40811  0.35640  1.0000
  Fe  Fe36      1.0  0.10863  0.43901  0.31670  1.0000
  S   S66       1.0  0.11893  0.43704  0.29773  1.0000
  Fe  Fe37      1.0  0.08276  0.44556  0.33137  1.0000
  S   S67       1.0  0.06287  0.45277  0.33013  1.0000
  S   S68       1.0  0.11755  0.43594  0.33255  1.0000
  S   S69       1.0  0.08939  0.44337  0.34842  1.0000
  C   C107      1.0  0.11904  0.37337  0.34083  1.0000
  C   C108      1.0  0.10888  0.37374  0.35063  1.0000
  C   C109      1.0  0.10398  0.38440  0.35540  1.0000
  C   C110      1.0  0.10886  0.39494  0.35007  1.0000
  H   H132      1.0  0.04759  0.45261  0.30964  1.0000
  C   C111      1.0  0.12403  0.38386  0.33563  1.0000
  H   H133      1.0  0.10495  0.36571  0.35471  1.0000
  H   H134      1.0  0.09641  0.38443  0.36324  1.0000
  H   H135      1.0  0.03485  0.23740  0.35919  1.0000
  C   C112      1.0  0.05260  0.45492  0.30033  1.0000
  C   C113      1.0  0.09232  0.43135  0.27807  1.0000
  C   C114      1.0  0.08792  0.43660  0.28835  1.0000
  C   C115      1.0  0.09609  0.43866  0.29414  1.0000
  C   C116      1.0  0.10876  0.43539  0.28975  1.0000
  C   C117      1.0  0.11322  0.43009  0.27947  1.0000
  C   C118      1.0  0.10500  0.42800  0.27366  1.0000
  H   H136      1.0  0.07816  0.43902  0.29193  1.0000
  H   H137      1.0  0.09253  0.44281  0.30201  1.0000
  H   H138      1.0  0.12302  0.42746  0.27608  1.0000
  H   H139      1.0  0.10846  0.42394  0.26572  1.0000
  C   C119      1.0  0.11267  0.36544  0.27832  1.0000
  C   C120      1.0  0.11699  0.36077  0.28916  1.0000
  C   C121      1.0  0.11132  0.35237  0.29865  1.0000
  C   C122      1.0  0.10178  0.34812  0.29702  1.0000
  C   C123      1.0  0.09776  0.35246  0.28601  1.0000
  C   C124      1.0  0.10297  0.36136  0.27679  1.0000
  H   H140      1.0  0.12457  0.36382  0.29031  1.0000
  H   H141      1.0  0.11455  0.34894  0.30709  1.0000
  H   H142      1.0  0.09046  0.34909  0.28470  1.0000
  H   H143      1.0  0.09962  0.36491  0.26841  1.0000
  C   C125      1.0  0.02924  0.41042  0.28535  1.0000
  C   C126      1.0  0.03688  0.41567  0.27480  1.0000
  C   C127      1.0  0.04680  0.40820  0.26844  1.0000
  C   C128      1.0  0.04877  0.39543  0.27228  1.0000
  C   C129      1.0  0.04082  0.39017  0.28257  1.0000
  C   C130      1.0  0.03123  0.39766  0.28927  1.0000
  H   H144      1.0  0.03530  0.42552  0.27164  1.0000
  H   H145      1.0  0.05276  0.41230  0.26038  1.0000
  H   H146      1.0  0.04223  0.38030  0.28550  1.0000
  H   H147      1.0  0.02532  0.39354  0.29737  1.0000
  C   C131      1.0  0.03369  0.42947  0.34230  1.0000
  C   C132      1.0  0.22296  0.13642  0.33728  1.0000
  S   S70       1.0  0.02270  0.42035  0.34940  1.0000
  C   C133      1.0  0.05195  0.44349  0.33453  1.0000
  C   C134      1.0  0.04000  0.44841  0.34017  1.0000
  C   C135      1.0  0.03101  0.44137  0.34424  1.0000
  H   H148      1.0  0.23820  0.15023  0.32179  1.0000
  C   C136      1.0  0.05769  0.36055  0.35387  1.0000
  H   H149      1.0  0.03776  0.45762  0.34176  1.0000
  H   H150      1.0  0.02195  0.44512  0.34908  1.0000
  H   H151      1.0  0.14271  0.33640  0.28968  1.0000
  C   C137      1.0  0.04003  0.37408  0.34651  1.0000
  C   C138      1.0  0.05008  0.37219  0.35178  1.0000
  C   C139      1.0  0.13437  0.39600  0.21198  1.0000
  C   C140      1.0  0.13541  0.31245  0.31267  1.0000
  H   H152      1.0  0.06445  0.43115  0.36179  1.0000
  H   H153      1.0  0.03420  0.38310  0.34494  1.0000
  C   C141      1.0  0.04511  0.35265  0.34552  1.0000
  H   H154      1.0  0.03549  0.21833  0.35311  1.0000
  H   H155      1.0  0.04580  0.42238  0.29181  1.0000
  H   H156      1.0  0.08180  0.12603  0.37249  1.0000
  C   C142      1.0  0.09642  0.38743  0.20017  1.0000
  C   C143      1.0  0.09623  0.39421  0.20861  1.0000
  C   C144      1.0  0.10199  0.40417  0.20479  1.0000
  C   C145      1.0  0.10771  0.40745  0.19243  1.0000
  H   H157      1.0  0.15412  0.20345  0.35903  1.0000
  H   H158      1.0  0.09205  0.37965  0.20321  1.0000
  H   H159      1.0  0.09172  0.39164  0.21808  1.0000
  S   S71       1.0  0.00154  0.42124  0.32740  1.0000
  H   H160      1.0  0.10125  0.31079  0.31156  1.0000
  C   C146      1.0  0.19898  0.11635  0.36569  1.0000
  C   C147      1.0  0.21653  0.12010  0.37629  1.0000
  H   H161      1.0  0.19951  0.14832  0.35904  1.0000
  H   H162      1.0  0.12145  0.30035  0.33405  1.0000
  C   C148      1.0  0.22033  0.11392  0.36666  1.0000
  C   C149      1.0  0.21158  0.11215  0.36130  1.0000
  H   H163      1.0  0.24120  0.14400  0.34312  1.0000
  C   C150      1.0  0.13944  0.37597  0.20717  1.0000
  C   C151      1.0  0.14884  0.47477  0.30840  1.0000
  H   H164      1.0  0.21453  0.10764  0.35367  1.0000
  C   C152      1.0  0.01367  0.12940  0.35059  1.0000
  C   C153      1.0  0.01647  0.13558  0.33837  1.0000
  C   C154      1.0  0.01044  0.13453  0.32974  1.0000
  C   C155      1.0  0.00459  0.12239  0.35404  1.0000
  H   H165      1.0  0.12233  0.38360  0.20077  1.0000
  H   H166      1.0  0.15796  0.36618  0.20984  1.0000
  H   H167      1.0  0.02341  0.14102  0.33552  1.0000
  H   H168      1.0  0.01285  0.13916  0.32029  1.0000
  H   H169      1.0  0.11340  0.47019  0.29988  1.0000
  C   C156      1.0  0.09350  0.13157  0.35512  1.0000
  C   C157      1.0  0.10561  0.13226  0.34895  1.0000
  C   C158      1.0  0.11521  0.12826  0.35535  1.0000
  C   C159      1.0  0.11281  0.12307  0.36788  1.0000
  H   H170      1.0  0.05878  0.45009  0.27135  1.0000
  C   C160      1.0  0.09106  0.12679  0.36771  1.0000
  H   H171      1.0  0.10760  0.13586  0.33920  1.0000
  H   H172      1.0  0.12453  0.12869  0.35049  1.0000
  H   H173      1.0  0.09966  0.38853  0.29122  1.0000
  H   H174      1.0  0.11325  0.47099  0.36897  1.0000
  C   C161      1.0  0.15424  0.36208  0.19472  1.0000
  H   H175      1.0  0.14679  0.46372  0.29105  1.0000
  H   H176      1.0  0.07198  0.38650  0.37288  1.0000
  C   C162      1.0  0.13803  0.17838  0.36132  1.0000
  C   C163      1.0  0.13324  0.19042  0.35580  1.0000
  C   C164      1.0  0.12711  0.19913  0.36296  1.0000
  H   H177      1.0  0.12650  0.45275  0.30969  1.0000
  H   H178      1.0  0.99952  0.36865  0.34693  1.0000
  H   H179      1.0  0.13435  0.19304  0.34597  1.0000
  H   H180      1.0  0.12378  0.20847  0.35858  1.0000
  C   C165      1.0  0.07175  0.19884  0.35536  1.0000
  C   C166      1.0  0.07154  0.18932  0.35020  1.0000
  C   C167      1.0  0.06139  0.18375  0.35401  1.0000
  C   C168      1.0  0.05124  0.18798  0.36270  1.0000
  C   C169      1.0  0.05155  0.19737  0.36800  1.0000
  C   C170      1.0  0.06189  0.20264  0.36452  1.0000
  H   H181      1.0  0.07918  0.18636  0.34313  1.0000
  H   H182      1.0  0.06122  0.17649  0.34989  1.0000
  C   C171      1.0  0.05161  0.44998  0.29078  1.0000
  H   H183      1.0  0.06199  0.21000  0.36852  1.0000
  C   C172      1.0  0.09357  0.27263  0.35462  1.0000
  C   C173      1.0  0.08978  0.28500  0.34919  1.0000
  C   C174      1.0  0.09468  0.29409  0.35092  1.0000
  C   C175      1.0  0.10366  0.29090  0.35786  1.0000
  C   C176      1.0  0.10743  0.27851  0.36336  1.0000
  C   C177      1.0  0.10234  0.26940  0.36183  1.0000
  H   H184      1.0  0.08294  0.28758  0.34368  1.0000
  H   H185      1.0  0.09159  0.30355  0.34675  1.0000
  C   C178      1.0  0.11878  0.39470  0.34004  1.0000
  H   H186      1.0  0.10537  0.25989  0.36603  1.0000
  C   C179      1.0  0.05715  0.40262  0.37000  1.0000
  C   C180      1.0  0.03761  0.36435  0.34327  1.0000
  H   H187      1.0  0.03881  0.44803  0.27500  1.0000
  H   H188      1.0  0.18561  0.12457  0.37967  1.0000
  C   C181      1.0  0.13017  0.47051  0.34318  1.0000
  C   C182      1.0  0.13628  0.47856  0.30764  1.0000
  C   C183      1.0  0.10424  0.39557  0.29184  1.0000
  H   H189      1.0  0.13260  0.46100  0.34251  1.0000
  H   H190      1.0  0.14787  0.47048  0.34605  1.0000
  C   C184      1.0  0.14484  0.37914  0.22520  1.0000
  H   H191      1.0  0.12307  0.38178  0.30012  1.0000
  C   C185      1.0  0.21544  0.13482  0.33025  1.0000
  C   C186      1.0  0.02769  0.10835  0.32188  1.0000
  N   N7        1.0  0.06413  0.37182  0.30766  1.0000
  C   C187      1.0  0.07322  0.37871  0.29902  1.0000
  C   C188      1.0  0.05318  0.38096  0.31196  1.0000
  C   C189      1.0  0.06961  0.36461  0.31825  1.0000
  C   C190      1.0  0.06046  0.36358  0.30219  1.0000
  C   C191      1.0  0.06507  0.36261  0.28978  1.0000
  C   C192      1.0  0.05178  0.35640  0.30928  1.0000
  C   C193      1.0  0.06099  0.35514  0.28478  1.0000
  C   C194      1.0  0.04782  0.34889  0.30422  1.0000
  C   C195      1.0  0.05238  0.34830  0.29197  1.0000
  H   H192      1.0  0.08187  0.37240  0.29566  1.0000
  H   H193      1.0  0.06943  0.38467  0.29103  1.0000
  H   H194      1.0  0.07580  0.38478  0.30340  1.0000
  H   H195      1.0  0.04876  0.38656  0.30428  1.0000
  H   H196      1.0  0.05555  0.38728  0.31620  1.0000
  H   H197      1.0  0.04612  0.37659  0.31896  1.0000
  H   H198      1.0  0.07776  0.35754  0.31542  1.0000
  H   H199      1.0  0.07254  0.37048  0.32259  1.0000
  H   H200      1.0  0.06312  0.35975  0.32554  1.0000
  H   H201      1.0  0.07167  0.36770  0.28361  1.0000
  H   H202      1.0  0.04786  0.35663  0.31878  1.0000
  H   H203      1.0  0.06442  0.35488  0.27518  1.0000
  H   H204      1.0  0.04108  0.34362  0.30984  1.0000
  H   H205      1.0  0.04920  0.34261  0.28802  1.0000
  H   H206      1.0  0.17739  0.16128  0.37210  1.0000
  H   H207      1.0  0.05209  0.37979  0.35401  1.0000
  C   C196      1.0  0.12392  0.38028  0.22519  1.0000
  H   H208      1.0  0.12421  0.37027  0.22849  1.0000
  C   C197      1.0  0.17174  0.17509  0.35745  1.0000
  C   C198      1.0  0.03701  0.11444  0.31508  1.0000
  H   H209      1.0  0.12637  0.45985  0.32174  1.0000
  C   C199      1.0  0.05822  0.42458  0.36461  1.0000
  H   H210      1.0  0.08440  0.15259  0.37776  1.0000
  H   H211      1.0  0.04316  0.43368  0.31189  1.0000
  C   C200      1.0  0.13817  0.32897  0.29490  1.0000
  N   N8        1.0  0.13581  0.38265  0.21723  1.0000
  S   S72       1.0  0.07049  0.35848  0.35997  1.0000
  H   H212      1.0  0.04324  0.34510  0.34303  1.0000
  C   C201      1.0  0.20263  0.13792  0.33357  1.0000
  H   H213      1.0  0.03062  0.44645  0.30867  1.0000
  H   H214      1.0  0.07927  0.40096  0.35410  1.0000
  N   N9        1.0  0.04363  0.44126  0.29273  1.0000
  S   S73       1.0  0.00389  0.39479  0.32051  1.0000
  H   H215      1.0  0.14627  0.36918  0.22949  1.0000
  C   C202      1.0  0.14153  0.32178  0.30568  1.0000
  H   H216      1.0  0.19704  0.13619  0.32836  1.0000
  C   C203      1.0  0.05880  0.45370  0.27899  1.0000
  H   H217      1.0  0.02899  0.45569  0.28678  1.0000
  H   H218      1.0  0.03081  0.43167  0.30669  1.0000
  C   C204      1.0  0.10536  0.30623  0.31966  1.0000
  C   C205      1.0  0.09530  0.17763  0.37550  1.0000
  C   C206      1.0  0.13880  0.47592  0.34525  1.0000
  H   H219      1.0  0.13102  0.40147  0.21923  1.0000
  C   C207      1.0  0.10792  0.40065  0.18399  1.0000
  H   H220      1.0  0.13003  0.28730  0.30606  1.0000
  N   N10       1.0  0.13049  0.47081  0.30364  1.0000
  C   C208      1.0  0.15940  0.19434  0.36201  1.0000
  H   H221      1.0  0.99923  0.40585  0.29402  1.0000
  C   C209      1.0  0.11324  0.47828  0.37319  1.0000
  C   C210      1.0  0.03679  0.43817  0.30557  1.0000
  C   C211      1.0  0.12251  0.31758  0.29795  1.0000
  C   C212      1.0  0.11451  0.38240  0.30736  1.0000
  C   C213      1.0  0.04554  0.42460  0.33623  1.0000
  H   H222      1.0  0.06075  0.26203  0.33289  1.0000
  C   C214      1.0  0.10069  0.12240  0.37402  1.0000
  H   H223      1.0  0.13834  0.30742  0.32103  1.0000
  N   N11       1.0  0.23651  0.13273  0.33373  1.0000
  H   H224      1.0  0.14162  0.38413  0.23285  1.0000
  H   H225      1.0  0.05241  0.21094  0.33695  1.0000
  C   C215      1.0  0.04244  0.22366  0.34842  1.0000
  H   H226      1.0  0.21941  0.13096  0.32222  1.0000
  H   H227      1.0  0.12139  0.38444  0.23335  1.0000
  N   N12       1.0  0.07096  0.24403  0.33013  1.0000
  C   C216      1.0  0.08307  0.23619  0.33193  1.0000
  C   C217      1.0  0.07109  0.24756  0.31686  1.0000
  C   C218      1.0  0.06946  0.25544  0.33438  1.0000
  C   C219      1.0  0.06114  0.23714  0.33659  1.0000
  C   C220      1.0  0.06121  0.22610  0.33345  1.0000
  C   C221      1.0  0.05129  0.24109  0.34603  1.0000
  C   C222      1.0  0.05196  0.21954  0.33925  1.0000
  C   C223      1.0  0.04213  0.23438  0.35184  1.0000
  C   C224      1.0  0.24295  0.13425  0.34249  1.0000
  H   H228      1.0  0.08550  0.22789  0.32801  1.0000
  H   H229      1.0  0.09066  0.24121  0.32774  1.0000
  H   H230      1.0  0.08313  0.23287  0.34180  1.0000
  H   H231      1.0  0.07339  0.23945  0.31267  1.0000
  H   H232      1.0  0.07805  0.25317  0.31176  1.0000
  H   H233      1.0  0.06195  0.25301  0.31516  1.0000
  H   H234      1.0  0.07709  0.26031  0.32955  1.0000
  H   H235      1.0  0.06965  0.25345  0.34424  1.0000
  H   H236      1.0  0.06861  0.22227  0.32670  1.0000
  H   H237      1.0  0.05054  0.24921  0.34926  1.0000
  H   H238      1.0  0.03969  0.41536  0.36720  1.0000
  C   C225      1.0  0.20396  0.12394  0.38090  1.0000
  H   H239      1.0  0.13731  0.47772  0.28454  1.0000
  H   H240      1.0  0.12800  0.37313  0.18393  1.0000
  N   N13       1.0  0.09636  0.16516  0.37371  1.0000
  H   H241      1.0  0.13276  0.46326  0.28790  1.0000
  H   H242      1.0  0.09989  0.29930  0.32523  1.0000
  C   C226      1.0  0.10108  0.16491  0.36059  1.0000
  C   C227      1.0  0.09428  0.16234  0.35340  1.0000
  C   C228      1.0  0.11287  0.16730  0.35460  1.0000
  C   C229      1.0  0.09906  0.16225  0.34102  1.0000
  C   C230      1.0  0.11761  0.16708  0.34225  1.0000
  C   C231      1.0  0.11072  0.16456  0.33547  1.0000
  H   H243      1.0  0.14317  0.39830  0.20623  1.0000
  H   H244      1.0  0.05277  0.42723  0.35744  1.0000
  H   H245      1.0  0.16396  0.47853  0.31327  1.0000
  H   H246      1.0  0.11436  0.27595  0.36876  1.0000
  C   C232      1.0  0.06659  0.46173  0.27691  1.0000
  C   C233      1.0  0.11839  0.47741  0.34212  1.0000
  C   C234      1.0  0.17226  0.17053  0.36977  1.0000
  C   C235      1.0  0.10234  0.39056  0.18787  1.0000
  C   C236      1.0  0.00144  0.12740  0.33319  1.0000
  H   H247      1.0  0.08528  0.16026  0.35708  1.0000
  H   H248      1.0  0.11855  0.16933  0.35945  1.0000
  H   H249      1.0  0.09376  0.16007  0.33580  1.0000
  H   H250      1.0  0.12672  0.16883  0.33799  1.0000
  H   H251      1.0  0.11445  0.16429  0.32592  1.0000
  H   H252      1.0  0.05510  0.43075  0.27934  1.0000
  C   C237      1.0  0.14595  0.36393  0.18732  1.0000
  C   C238      1.0  0.15978  0.18985  0.37435  1.0000
  H   H253      1.0  0.11502  0.31656  0.29470  1.0000
  N   N14       1.0  0.11862  0.30061  0.31639  1.0000
  H   H254      1.0  0.11715  0.28698  0.33335  1.0000
  H   H255      1.0  0.12594  0.33263  0.28277  1.0000
  S   S74       1.0  0.10354  0.33824  0.35803  1.0000
  H   H256      1.0  0.02794  0.44062  0.28646  1.0000
  C   C239      1.0  0.06039  0.46298  0.29813  1.0000
  H   H257      1.0  0.02076  0.10762  0.31758  1.0000
  H   H258      1.0  0.14873  0.32363  0.30879  1.0000
  H   H259      1.0  0.13241  0.28899  0.32629  1.0000
  H   H260      1.0  0.12269  0.40274  0.33597  1.0000
  H   H261      1.0  0.07878  0.41705  0.34987  1.0000
  S   S75       1.0  0.12481  0.11613  0.37583  1.0000
  H   H262      1.0  0.00236  0.11751  0.36343  1.0000
  H   H263      1.0  0.07362  0.47239  0.28488  1.0000
  C   C240      1.0  0.12555  0.31018  0.30909  1.0000
  H   H264      1.0  0.11060  0.37432  0.30835  1.0000
  C   C241      1.0  0.05472  0.43161  0.33237  1.0000
  N   N15       1.0  0.06516  0.41164  0.36579  1.0000
  Fe  Fe38      1.0  0.14096  0.12496  0.37243  1.0000
  H   H265      1.0  0.07865  0.41686  0.37198  1.0000
  H   H266      1.0  0.15486  0.19591  0.38052  1.0000
  H   H267      1.0  0.15382  0.38146  0.22007  1.0000
  H   H268      1.0  0.12754  0.39939  0.20606  1.0000
  C   C242      1.0  0.05122  0.42963  0.28934  1.0000
  H   H269      1.0  0.06115  0.46649  0.30559  1.0000
  H   H270      1.0  0.06102  0.34172  0.35251  1.0000
  C   C243      1.0  0.03447  0.44665  0.28490  1.0000
  C   C244      1.0  0.12875  0.32681  0.29100  1.0000
  H   H271      1.0  0.11165  0.47717  0.31234  1.0000
  H   H272      1.0  0.16448  0.19023  0.34412  1.0000
  H   H273      1.0  0.13194  0.38363  0.32810  1.0000
  H   H274      1.0  0.04766  0.41532  0.33496  1.0000
  C   C245      1.0  0.05521  0.35076  0.35077  1.0000
  N   N16       1.0  0.05447  0.11273  0.33916  1.0000
  C   C246      1.0  0.05315  0.10663  0.35230  1.0000
  C   C247      1.0  0.06706  0.10764  0.33281  1.0000
  C   C248      1.0  0.05327  0.12599  0.33820  1.0000
  C   C249      1.0  0.04525  0.11105  0.33340  1.0000
  C   C250      1.0  0.04568  0.11580  0.32071  1.0000
  C   C251      1.0  0.03550  0.10501  0.34011  1.0000
  S   S76       1.0  0.05230  0.12658  0.37130  1.0000
  C   C252      1.0  0.99851  0.12140  0.34545  1.0000
  C   C253      1.0  0.11739  0.47616  0.30312  1.0000
  H   H275      1.0  0.05385  0.09660  0.35371  1.0000
  H   H276      1.0  0.06044  0.10772  0.35627  1.0000
  H   H277      1.0  0.04422  0.11067  0.35785  1.0000
  H   H278      1.0  0.06817  0.09780  0.33283  1.0000
  H   H279      1.0  0.07417  0.10837  0.33726  1.0000
  H   H280      1.0  0.06938  0.11261  0.32317  1.0000
  H   H281      1.0  0.04386  0.13017  0.34273  1.0000
  H   H282      1.0  0.05996  0.12765  0.34259  1.0000
  H   H283      1.0  0.05497  0.13118  0.32858  1.0000
  H   H284      1.0  0.05260  0.12079  0.31508  1.0000
  H   H285      1.0  0.03405  0.10155  0.34987  1.0000
  C   C254      1.0  0.03713  0.39721  0.37375  1.0000
  H   H286      1.0  0.11614  0.38433  0.22047  1.0000
  H   H287      1.0  0.07229  0.46408  0.26790  1.0000
  C   C255      1.0  0.24021  0.11962  0.33291  1.0000
  H   H288      1.0  0.11332  0.39449  0.28532  1.0000
  C   C256      1.0  0.07294  0.41012  0.35367  1.0000
  C   C257      1.0  0.12265  0.29397  0.32797  1.0000
  C   C258      1.0  0.21683  0.14165  0.34766  1.0000
  C   C259      1.0  0.20400  0.14482  0.35083  1.0000
  C   C260      1.0  0.19692  0.14288  0.34385  1.0000
  H   H289      1.0  0.10383  0.31331  0.32506  1.0000
  C   C261      1.0  0.12014  0.29142  0.30908  1.0000
  H   H290      1.0  0.22095  0.07736  0.37411  1.0000
  C   C262      1.0  0.16527  0.18693  0.35359  1.0000
  H   H291      1.0  0.22998  0.11072  0.36322  1.0000
  H   H292      1.0  0.03737  0.11832  0.30543  1.0000
  H   H293      1.0  0.11384  0.15909  0.37910  1.0000
  H   H294      1.0  0.18699  0.14486  0.34662  1.0000
  N   N17       1.0  0.10550  0.39409  0.30457  1.0000
  C   C263      1.0  0.11061  0.40425  0.30517  1.0000
  C   C264      1.0  0.09343  0.39442  0.31324  1.0000
  C   C265      1.0  0.08287  0.40335  0.31044  1.0000
  C   C266      1.0  0.09198  0.38652  0.32500  1.0000
  C   C267      1.0  0.07141  0.40361  0.31850  1.0000
  C   C268      1.0  0.08051  0.38685  0.33300  1.0000
  C   C269      1.0  0.07021  0.39524  0.32969  1.0000
  H   H295      1.0  0.11219  0.40321  0.31447  1.0000
  H   H296      1.0  0.11951  0.40478  0.29852  1.0000
  H   H297      1.0  0.10423  0.41324  0.30314  1.0000
  H   H298      1.0  0.11760  0.38141  0.31585  1.0000
  H   H299      1.0  0.09910  0.40480  0.28810  1.0000
  H   H300      1.0  0.08339  0.41031  0.30208  1.0000
  H   H301      1.0  0.09963  0.37998  0.32824  1.0000
  H   H302      1.0  0.06346  0.41042  0.31610  1.0000
  H   H303      1.0  0.07963  0.38050  0.34185  1.0000
  H   H304      1.0  0.06133  0.39536  0.33593  1.0000
  C   C270      1.0  0.13128  0.37762  0.19941  1.0000
  C   C271      1.0  0.13715  0.46883  0.29125  1.0000
  C   C272      1.0  0.02695  0.10364  0.33435  1.0000
  H   H305      1.0  0.01942  0.09927  0.33966  1.0000
  S   S77       1.0  0.05975  0.15152  0.37274  1.0000
  H   H306      1.0  0.14058  0.45355  0.31251  1.0000
  H   H307      1.0  0.14034  0.16580  0.37836  1.0000
  C   C273      1.0  0.15110  0.36800  0.20452  1.0000
  H   H308      1.0  0.02746  0.40001  0.37345  1.0000
  C   C274      1.0  0.13449  0.37168  0.18968  1.0000
  H   H309      1.0  0.16316  0.35602  0.19283  1.0000
  H   H310      1.0  0.03678  0.37803  0.38006  1.0000
  C   C275      1.0  0.12572  0.19584  0.37566  1.0000
  H   H311      1.0  0.22167  0.14304  0.35374  1.0000
  C   C276      1.0  0.24096  0.14029  0.32162  1.0000
  C   C277      1.0  0.19523  0.12194  0.37573  1.0000
  H   H312      1.0  0.23707  0.11784  0.32547  1.0000
  H   H313      1.0  0.14849  0.47925  0.37344  1.0000
  H   H314      1.0  0.11626  0.48525  0.29671  1.0000
  H   H315      1.0  0.13142  0.47084  0.37550  1.0000
  H   H316      1.0  0.05189  0.42618  0.37339  1.0000
  H   H317      1.0  0.10431  0.18041  0.37276  1.0000
  H   H318      1.0  0.24014  0.12865  0.35179  1.0000
  H   H319      1.0  0.08917  0.18462  0.36990  1.0000
  S   S78       1.0  0.13676  0.14185  0.37993  1.0000
  C   C278      1.0  0.04235  0.38486  0.37746  1.0000
  C   C279      1.0  0.06223  0.38990  0.37342  1.0000
  C   C280      1.0  0.07322  0.40960  0.37447  1.0000
  C   C281      1.0  0.12368  0.47832  0.37703  1.0000
  Fe  Fe39      1.0  0.10185  0.21872  0.37755  1.0000
  C   C282      1.0  0.05487  0.38122  0.37729  1.0000
  H   H320      1.0  0.08025  0.40090  0.37449  1.0000
  H   H321      1.0  0.10699  0.14697  0.37892  1.0000
  C   C283      1.0  0.16602  0.17770  0.37867  1.0000
  C   C284      1.0  0.21446  0.08181  0.38101  1.0000
  Fe  Fe40      1.0  0.09209  0.14707  0.46095  1.0000
  S   S79       1.0  0.10758  0.14413  0.44487  1.0000
  S   S80       1.0  0.09356  0.13452  0.47942  1.0000
  Fe  Fe41      1.0  0.07751  0.16888  0.44574  1.0000
  S   S81       1.0  0.09210  0.16785  0.42871  1.0000
  S   S82       1.0  0.05967  0.18281  0.44571  1.0000
  Fe  Fe42      1.0  0.09298  0.14776  0.43420  1.0000
  S   S83       1.0  0.09558  0.13989  0.41779  1.0000
  Fe  Fe43      1.0  0.10510  0.16451  0.44086  1.0000
  S   S84       1.0  0.12218  0.17187  0.43479  1.0000
  S   S85       1.0  0.07751  0.14876  0.45065  1.0000
  S   S86       1.0  0.09054  0.16738  0.45758  1.0000
  C   C285      1.0  0.07641  0.15494  0.50050  1.0000
  S   S87       1.0  0.04831  0.13335  0.40496  1.0000
  C   C286      1.0  0.08906  0.10402  0.41905  1.0000
  H   H322      1.0  0.12902  0.18114  0.39106  1.0000
  H   H323      1.0  0.13495  0.12483  0.40541  1.0000
  S   S88       1.0  0.20977  0.10539  0.55702  1.0000
  Fe  Fe44      1.0  0.13162  0.13393  0.52628  1.0000
  S   S89       1.0  0.15121  0.12532  0.52779  1.0000
  S   S90       1.0  0.12730  0.14565  0.50832  1.0000
  Fe  Fe45      1.0  0.12163  0.12368  0.55312  1.0000
  S   S91       1.0  0.14014  0.11394  0.55685  1.0000
  C   C287      1.0  0.11004  0.10500  0.40869  1.0000
  Fe  Fe46      1.0  0.14601  0.13119  0.54566  1.0000
  S   S92       1.0  0.15727  0.13895  0.55335  1.0000
  Fe  Fe47      1.0  0.14365  0.10886  0.53879  1.0000
  S   S93       1.0  0.15368  0.08989  0.53656  1.0000
  S   S94       1.0  0.12711  0.14149  0.54324  1.0000
  S   S95       1.0  0.12447  0.11696  0.53595  1.0000
  C   C288      1.0  0.19541  0.11509  0.55566  1.0000
  C   C289      1.0  0.18975  0.12329  0.56341  1.0000
  C   C290      1.0  0.17811  0.13072  0.56250  1.0000
  C   C291      1.0  0.17198  0.12979  0.55406  1.0000
  C   C292      1.0  0.17760  0.12155  0.54634  1.0000
  C   C293      1.0  0.18939  0.11433  0.54702  1.0000
  H   H324      1.0  0.14401  0.46906  0.38794  1.0000
  H   H325      1.0  0.10718  0.22679  0.41406  1.0000
  H   H326      1.0  0.17298  0.12088  0.53970  1.0000
  H   H327      1.0  0.19379  0.10807  0.54094  1.0000
  C   C294      1.0  0.03493  0.20945  0.39999  1.0000
  C   C295      1.0  0.14650  0.05954  0.56175  1.0000
  C   C296      1.0  0.15233  0.06751  0.55187  1.0000
  C   C297      1.0  0.14606  0.07951  0.54799  1.0000
  C   C298      1.0  0.13380  0.08336  0.55360  1.0000
  C   C299      1.0  0.12781  0.07524  0.56306  1.0000
  C   C300      1.0  0.17217  0.18033  0.39592  1.0000
  H   H328      1.0  0.16177  0.06445  0.54745  1.0000
  H   H329      1.0  0.12888  0.09259  0.55069  1.0000
  H   H330      1.0  0.15268  0.17081  0.40897  1.0000
  C   C301      1.0  0.05925  0.19525  0.43307  1.0000
  C   C302      1.0  0.06965  0.19656  0.42371  1.0000
  C   C303      1.0  0.06923  0.20668  0.41386  1.0000
  C   C304      1.0  0.05843  0.21563  0.41337  1.0000
  C   C305      1.0  0.04802  0.21441  0.42274  1.0000
  C   C306      1.0  0.04840  0.20419  0.43252  1.0000
  H   H331      1.0  0.07814  0.19009  0.42421  1.0000
  H   H332      1.0  0.07739  0.20776  0.40688  1.0000
  H   H333      1.0  0.03964  0.22136  0.42242  1.0000
  H   H334      1.0  0.04034  0.20330  0.43976  1.0000
  C   C307      1.0  0.13211  0.16139  0.42635  1.0000
  C   C308      1.0  0.14328  0.15495  0.42952  1.0000
  C   C309      1.0  0.15076  0.14582  0.42337  1.0000
  C   C310      1.0  0.14718  0.14329  0.41391  1.0000
  C   C311      1.0  0.13605  0.14979  0.41067  1.0000
  C   C312      1.0  0.12844  0.15874  0.41700  1.0000
  H   H335      1.0  0.14598  0.15680  0.43695  1.0000
  H   H336      1.0  0.15932  0.14070  0.42596  1.0000
  H   H337      1.0  0.13317  0.14783  0.40346  1.0000
  H   H338      1.0  0.11971  0.16358  0.41466  1.0000
  C   C313      1.0  0.08245  0.13775  0.41452  1.0000
  C   C314      1.0  0.07143  0.13783  0.42325  1.0000
  C   C315      1.0  0.06111  0.13601  0.42039  1.0000
  C   C316      1.0  0.06163  0.13456  0.40867  1.0000
  C   C317      1.0  0.07266  0.13443  0.39998  1.0000
  C   C318      1.0  0.08310  0.13582  0.40297  1.0000
  H   H339      1.0  0.07091  0.13911  0.43226  1.0000
  H   H340      1.0  0.05265  0.13591  0.42722  1.0000
  H   H341      1.0  0.07320  0.13303  0.39103  1.0000
  H   H342      1.0  0.09170  0.13539  0.39631  1.0000
  C   C319      1.0  0.10320  0.13744  0.48729  1.0000
  C   C320      1.0  0.10919  0.14724  0.48239  1.0000
  C   C321      1.0  0.11660  0.14959  0.48891  1.0000
  C   C322      1.0  0.11818  0.14213  0.50032  1.0000
  C   C323      1.0  0.11236  0.13221  0.50514  1.0000
  C   C324      1.0  0.10486  0.12989  0.49867  1.0000
  H   H343      1.0  0.10809  0.15303  0.47359  1.0000
  H   H344      1.0  0.12111  0.15725  0.48508  1.0000
  H   H345      1.0  0.11354  0.12646  0.51389  1.0000
  H   H346      1.0  0.10027  0.12229  0.50249  1.0000
  N   N18       1.0  0.14175  0.10273  0.50227  1.0000
  C   C325      1.0  0.15188  0.09211  0.49990  1.0000
  C   C326      1.0  0.14682  0.11144  0.50579  1.0000
  C   C327      1.0  0.13231  0.09839  0.51293  1.0000
  C   C328      1.0  0.13636  0.10820  0.49131  1.0000
  C   C329      1.0  0.12981  0.10159  0.48759  1.0000
  C   C330      1.0  0.13752  0.12001  0.48395  1.0000
  C   C331      1.0  0.12429  0.10672  0.47752  1.0000
  C   C332      1.0  0.13217  0.12493  0.47376  1.0000
  C   C333      1.0  0.12542  0.11839  0.47066  1.0000
  H   H347      1.0  0.15918  0.09494  0.49195  1.0000
  H   H348      1.0  0.15621  0.08780  0.50797  1.0000
  H   H349      1.0  0.14865  0.08482  0.49788  1.0000
  H   H350      1.0  0.13965  0.11972  0.50762  1.0000
  H   H351      1.0  0.15464  0.11441  0.49864  1.0000
  H   H352      1.0  0.15051  0.10719  0.51422  1.0000
  H   H353      1.0  0.12936  0.09042  0.51195  1.0000
  H   H354      1.0  0.13579  0.09525  0.52155  1.0000
  H   H355      1.0  0.12400  0.10581  0.51431  1.0000
  H   H356      1.0  0.12875  0.09248  0.49255  1.0000
  H   H357      1.0  0.14219  0.12584  0.48604  1.0000
  H   H358      1.0  0.11889  0.10175  0.47515  1.0000
  H   H359      1.0  0.13283  0.13411  0.46850  1.0000
  H   H360      1.0  0.12081  0.12251  0.46311  1.0000
  H   H361      1.0  0.04426  0.16770  0.39139  1.0000
  S   S96       1.0  0.10382  0.12308  0.56683  1.0000
  S   S97       1.0  0.05782  0.22834  0.40111  1.0000
  H   H362      1.0  0.19619  0.07833  0.55164  1.0000
  H   H363      1.0  0.15381  0.47909  0.38656  1.0000
  H   H364      1.0  0.18202  0.06655  0.55379  1.0000
  H   H365      1.0  0.08181  0.12396  0.53970  1.0000
  H   H366      1.0  0.06103  0.16444  0.41506  1.0000
  S   S98       1.0  0.12671  0.05377  0.57975  1.0000
  H   H367      1.0  0.18942  0.09895  0.40395  1.0000
  S   S99       1.0  0.08631  0.20922  0.38158  1.0000
  C   C334      1.0  0.08994  0.12795  0.53815  1.0000
  H   H368      1.0  0.09875  0.19968  0.41018  1.0000
  H   H369      1.0  0.12822  0.11802  0.39768  1.0000
  C   C335      1.0  0.13377  0.10122  0.41693  1.0000
  H   H370      1.0  0.07413  0.15782  0.49154  1.0000
  S   S100      1.0  0.22715  0.12348  0.38260  1.0000
  C   C336      1.0  0.17176  0.08927  0.55771  1.0000
  H   H371      1.0  0.10259  0.22034  0.40388  1.0000
  H   H372      1.0  0.17388  0.13715  0.56840  1.0000
  C   C337      1.0  0.07061  0.14651  0.50960  1.0000
  C   C338      1.0  0.08887  0.15524  0.51406  1.0000
  H   H373      1.0  0.19808  0.07374  0.56720  1.0000
  N   N19       1.0  0.08692  0.14158  0.53547  1.0000
  H   H374      1.0  0.03747  0.21744  0.40095  1.0000
  N   N20       1.0  0.10405  0.20843  0.42148  1.0000
  H   H375      1.0  0.11884  0.12979  0.40543  1.0000
  H   H376      1.0  0.13193  0.09387  0.42517  1.0000
  H   H377      1.0  0.09003  0.16581  0.49557  1.0000
  C   C339      1.0  0.09132  0.21205  0.42834  1.0000
  C   C340      1.0  0.08659  0.20416  0.43927  1.0000
  C   C341      1.0  0.08315  0.22312  0.42422  1.0000
  C   C342      1.0  0.07455  0.20727  0.44580  1.0000
  C   C343      1.0  0.07110  0.22611  0.43081  1.0000
  C   C344      1.0  0.06682  0.21822  0.44158  1.0000
  C   C345      1.0  0.12655  0.12163  0.40600  1.0000
  H   H378      1.0  0.10125  0.15533  0.39101  1.0000
  H   H379      1.0  0.13485  0.09745  0.40877  1.0000
  C   C346      1.0  0.10198  0.11013  0.42860  1.0000
  H   H380      1.0  0.04933  0.19724  0.40781  1.0000
  H   H381      1.0  0.04271  0.15742  0.41853  1.0000
  H   H382      1.0  0.24012  0.06584  0.40645  1.0000
  H   H383      1.0  0.15143  0.05036  0.56495  1.0000
  H   H384      1.0  0.13933  0.48611  0.40414  1.0000
  H   H385      1.0  0.09202  0.19532  0.44265  1.0000
  H   H386      1.0  0.08569  0.22949  0.41577  1.0000
  H   H387      1.0  0.07100  0.20088  0.45387  1.0000
  H   H388      1.0  0.06489  0.23437  0.42727  1.0000
  H   H389      1.0  0.05735  0.22036  0.44640  1.0000
  H   H390      1.0  0.21022  0.09118  0.40759  1.0000
  S   S101      1.0  0.15677  0.13195  0.40630  1.0000
  C   C347      1.0  0.05597  0.17403  0.41219  1.0000
  H   H391      1.0  0.09599  0.15580  0.53502  1.0000
  H   H392      1.0  0.18175  0.18001  0.39049  1.0000
  H   H393      1.0  0.15242  0.12892  0.57932  1.0000
  H   H394      1.0  0.05687  0.17501  0.38817  1.0000
  N   N21       1.0  0.12378  0.11233  0.41737  1.0000
  C   C348      1.0  0.02183  0.20076  0.39330  1.0000
  H   H395      1.0  0.18424  0.09600  0.38582  1.0000
  H   H396      1.0  0.09621  0.15881  0.51497  1.0000
  H   H397      1.0  0.11143  0.19698  0.43709  1.0000
  S   S102      1.0  0.15663  0.11555  0.38199  1.0000
  C   C349      1.0  0.11193  0.10916  0.41831  1.0000
  H   H398      1.0  0.14114  0.08742  0.57393  1.0000
  H   H399      1.0  0.05243  0.17785  0.42062  1.0000
  C   C350      1.0  0.10503  0.19759  0.41656  1.0000
  S   S103      1.0  0.09013  0.23599  0.38341  1.0000
  H   H400      1.0  0.11452  0.19444  0.41142  1.0000
  H   H401      1.0  0.07906  0.14229  0.55439  1.0000
  S   S104      1.0  0.11841  0.20683  0.38460  1.0000
  H   H402      1.0  0.06370  0.14299  0.50771  1.0000
  C   C351      1.0  0.08538  0.15942  0.50278  1.0000
  C   C352      1.0  0.03873  0.18709  0.40259  1.0000
  H   H403      1.0  0.06906  0.13591  0.52776  1.0000
  Fe  Fe48      1.0  0.07447  0.22700  0.38577  1.0000
  C   C353      1.0  0.07388  0.14240  0.52099  1.0000
  H   H404      1.0  0.09156  0.17830  0.38523  1.0000
  H   H405      1.0  0.07398  0.15590  0.54353  1.0000
  C   C354      1.0  0.23952  0.07399  0.38324  1.0000
  H   H406      1.0  0.22479  0.07288  0.41288  1.0000
  H   H407      1.0  0.11192  0.21289  0.43407  1.0000
  C   C355      1.0  0.23488  0.08948  0.39485  1.0000
  H   H408      1.0  0.08019  0.10254  0.41912  1.0000
  H   H409      1.0  0.16734  0.19013  0.39488  1.0000
  H   H410      1.0  0.12249  0.20277  0.42468  1.0000
  C   C356      1.0  0.05134  0.16903  0.39546  1.0000
  C   C357      1.0  0.19232  0.08025  0.56095  1.0000
  H   H411      1.0  0.11675  0.12602  0.42828  1.0000
  H   H412      1.0  0.12260  0.11080  0.43656  1.0000
  N   N22       1.0  0.04585  0.17452  0.40635  1.0000
  H   H413      1.0  0.09368  0.12403  0.54660  1.0000
  H   H414      1.0  0.16195  0.08859  0.56039  1.0000
  C   C358      1.0  0.07660  0.14571  0.54523  1.0000
  H   H415      1.0  0.14281  0.10326  0.41637  1.0000
  C   C359      1.0  0.08331  0.14643  0.52349  1.0000
  H   H416      1.0  0.18208  0.15832  0.39064  1.0000
  H   H417      1.0  0.11775  0.21540  0.40635  1.0000
  H   H418      1.0  0.08307  0.10905  0.43650  1.0000
  C   C360      1.0  0.13421  0.06341  0.56732  1.0000
  H   H419      1.0  0.11720  0.10386  0.40066  1.0000
  C   C361      1.0  0.11281  0.20518  0.42970  1.0000
  H   H420      1.0  0.09692  0.12446  0.53052  1.0000
  H   H421      1.0  0.22977  0.09288  0.40326  1.0000
  H   H422      1.0  0.10592  0.14287  0.52895  1.0000
  C   C362      1.0  0.03759  0.16684  0.41524  1.0000
  N   N23       1.0  0.16592  0.17302  0.39187  1.0000
  C   C363      1.0  0.10801  0.21823  0.41105  1.0000
  C   C364      1.0  0.12396  0.11748  0.42769  1.0000
  Fe  Fe49      1.0  0.15346  0.13317  0.38784  1.0000
  H   H423      1.0  0.17495  0.08895  0.54784  1.0000
  H   H424      1.0  0.14600  0.16096  0.56584  1.0000
  C   C365      1.0  0.17172  0.16303  0.57279  1.0000
  H   H425      1.0  0.01982  0.22011  0.39169  1.0000
  H   H426      1.0  0.22723  0.06161  0.40403  1.0000
  H   H427      1.0  0.10273  0.18966  0.42391  1.0000
  N   N24       1.0  0.23052  0.07916  0.39337  1.0000
  C   C366      1.0  0.20838  0.08957  0.39960  1.0000
  H   H428      1.0  0.06828  0.14233  0.54587  1.0000
  H   H429      1.0  0.12833  0.47750  0.40459  1.0000
  C   C367      1.0  0.19640  0.09395  0.39768  1.0000
  C   C368      1.0  0.21784  0.08349  0.39124  1.0000
  H   H430      1.0  0.10046  0.14166  0.54508  1.0000
  H   H431      1.0  0.13288  0.12009  0.42651  1.0000
  H   H432      1.0  0.12243  0.12145  0.58057  1.0000
  C   C369      1.0  0.15308  0.17417  0.39900  1.0000
  C   C370      1.0  0.04173  0.19771  0.40389  1.0000
  C   C371      1.0  0.02860  0.18899  0.39711  1.0000
  C   C372      1.0  0.17835  0.06743  0.56348  1.0000
  C   C373      1.0  0.23066  0.06946  0.40468  1.0000
  H   H433      1.0  0.18360  0.05953  0.56922  1.0000
  H   H434      1.0  0.08089  0.16205  0.38860  1.0000
  H   H435      1.0  0.17211  0.09849  0.55854  1.0000
  H   H436      1.0  0.17149  0.15653  0.40503  1.0000
  C   C374      1.0  0.09779  0.14568  0.53609  1.0000
  H   H437      1.0  0.23737  0.06561  0.38213  1.0000
  C   C375      1.0  0.15263  0.15917  0.57142  1.0000
  H   H438      1.0  0.12790  0.15733  0.58026  1.0000
  N   N25       1.0  0.17924  0.07931  0.56535  1.0000
  H   H439      1.0  0.16868  0.06639  0.56571  1.0000
  H   H440      1.0  0.11829  0.07825  0.56733  1.0000
  H   H441      1.0  0.02604  0.18140  0.39542  1.0000
  H   H442      1.0  0.14813  0.16872  0.39624  1.0000
  H   H443      1.0  0.06289  0.17914  0.40583  1.0000
  H   H444      1.0  0.19442  0.12409  0.56996  1.0000
  H   H445      1.0  0.19366  0.08953  0.56024  1.0000
  H   H446      1.0  0.17939  0.16754  0.56885  1.0000
  C   C376      1.0  0.09072  0.10767  0.42885  1.0000
  H   H447      1.0  0.03045  0.16560  0.41120  1.0000
  H   H448      1.0  0.20094  0.12847  0.38853  1.0000
  C   C377      1.0  0.09875  0.10256  0.40905  1.0000
  C   C378      1.0  0.17213  0.15990  0.39499  1.0000
  H   H449      1.0  0.16778  0.15389  0.39223  1.0000
  H   H450      1.0  0.03286  0.17094  0.42336  1.0000
  H   H451      1.0  0.15037  0.10050  0.58098  1.0000
  H   H452      1.0  0.05731  0.15980  0.39773  1.0000
  H   H453      1.0  0.10243  0.11339  0.43628  1.0000
  C   C379      1.0  0.02499  0.21098  0.39476  1.0000
  H   H454      1.0  0.17261  0.17685  0.40574  1.0000
  H   H455      1.0  0.06777  0.40946  0.38397  1.0000
  H   H456      1.0  0.09745  0.09978  0.40139  1.0000
  H   H457      1.0  0.18136  0.09738  0.57550  1.0000
  H   H458      1.0  0.14771  0.18377  0.39785  1.0000
  C   C380      1.0  0.13143  0.48629  0.40033  1.0000
  S   S105      1.0  0.22268  0.11733  0.57933  1.0000
  Fe  Fe50      1.0  0.21429  0.10417  0.57497  1.0000
  H   H459      1.0  0.09877  0.11832  0.38368  1.0000
  C   C381      1.0  0.16242  0.16518  0.56649  1.0000
  C   C382      1.0  0.14571  0.47842  0.38355  1.0000
  Fe  Fe51      1.0  0.04814  0.13854  0.38484  1.0000
  C   C383      1.0  0.19344  0.09226  0.38752  1.0000
  H   H460      1.0  0.23378  0.09740  0.38703  1.0000
  H   H461      1.0  0.20140  0.05341  0.58008  1.0000
  H   H462      1.0  0.16295  0.17131  0.55757  1.0000
  H   H463      1.0  0.01429  0.20195  0.38895  1.0000
  C   C384      1.0  0.17485  0.08058  0.57824  1.0000
  H   H464      1.0  0.13582  0.14544  0.57175  1.0000
  C   C385      1.0  0.13222  0.14740  0.58108  1.0000
  C   C386      1.0  0.13034  0.18375  0.38122  1.0000
  Fe  Fe52      1.0  0.14139  0.03297  0.61717  1.0000
  S   S106      1.0  0.15877  0.01881  0.61388  1.0000
  S   S107      1.0  0.13099  0.03790  0.63507  1.0000
  H   H465      1.0  0.12599  0.06288  0.61709  1.0000
  N   N26       1.0  0.11363  0.07968  0.61120  1.0000
  C   C387      1.0  0.23618  0.03620  0.61719  1.0000
  Fe  Fe53      1.0  0.14935  0.01340  0.60201  1.0000
  H   H466      1.0  0.10252  0.99866  0.64839  1.0000
  Fe  Fe54      1.0  0.16464  0.03315  0.59735  1.0000
  H   H467      1.0  0.10868  0.99340  0.61614  1.0000
  S   S108      1.0  0.13160  0.02668  0.60666  1.0000
  S   S109      1.0  0.14784  0.04762  0.60163  1.0000
  Fe  Fe55      1.0  0.20858  0.11549  0.59689  1.0000
  S   S110      1.0  0.22045  0.09960  0.60716  1.0000
  S   S111      1.0  0.19954  0.13264  0.60394  1.0000
  H   H468      1.0  0.12719  0.09394  0.61632  1.0000
  Fe  Fe56      1.0  0.21211  0.08797  0.60023  1.0000
  S   S112      1.0  0.20381  0.07205  0.61254  1.0000
  C   C388      1.0  0.03289  0.17376  0.77798  1.0000
  H   H469      1.0  0.03607  0.15866  0.74642  1.0000
  Fe  Fe57      1.0  0.11799  0.11407  0.65883  1.0000
  S   S113      1.0  0.13845  0.11137  0.65227  1.0000
  S   S114      1.0  0.10838  0.11281  0.67874  1.0000
  Fe  Fe58      1.0  0.11384  0.11734  0.63307  1.0000
  S   S115      1.0  0.13384  0.11524  0.62441  1.0000
  S   S116      1.0  0.09879  0.11973  0.62323  1.0000
  Fe  Fe59      1.0  0.13631  0.09980  0.64064  1.0000
  S   S117      1.0  0.15050  0.08299  0.63687  1.0000
  Fe  Fe60      1.0  0.13405  0.12695  0.63677  1.0000
  S   S118      1.0  0.14365  0.14258  0.63062  1.0000
  S   S119      1.0  0.11623  0.10099  0.64849  1.0000
  S   S120      1.0  0.11368  0.13061  0.64408  1.0000
  Fe  Fe61      1.0  0.10390  0.15367  0.75289  1.0000
  S   S121      1.0  0.09794  0.16506  0.73563  1.0000
  H   H470      1.0  0.02389  0.19039  0.76741  1.0000
  Fe  Fe62      1.0  0.09310  0.13255  0.75279  1.0000
  S   S122      1.0  0.08583  0.14198  0.73582  1.0000
  S   S123      1.0  0.08910  0.11520  0.76580  1.0000
  Fe  Fe63      1.0  0.10408  0.14752  0.72867  1.0000
  S   S124      1.0  0.11493  0.14773  0.70926  1.0000
  Fe  Fe64      1.0  0.08022  0.15867  0.74390  1.0000
  S   S125      1.0  0.06207  0.17172  0.74264  1.0000
  S   S126      1.0  0.11179  0.13677  0.74508  1.0000
  S   S127      1.0  0.08568  0.14869  0.76152  1.0000
  C   C389      1.0  0.05111  0.17242  0.75641  1.0000
  C   C390      1.0  0.04083  0.18213  0.75661  1.0000
  H   H471      1.0  0.03984  0.18913  0.74840  1.0000
  S   S128      1.0  0.15682  0.02650  0.58503  1.0000
  C   C391      1.0  0.05229  0.16338  0.76705  1.0000
  S   S129      1.0  0.14951  0.99299  0.60472  1.0000
  C   C392      1.0  0.10548  0.18032  0.76849  1.0000
  C   C393      1.0  0.23882  0.05680  0.60719  1.0000
  H   H472      1.0  0.10543  0.18280  0.75884  1.0000
  C   C394      1.0  0.03180  0.18284  0.76736  1.0000
  H   H473      1.0  0.10621  0.09325  0.62235  1.0000
  C   C395      1.0  0.12335  0.98763  0.59020  1.0000
  H   H474      1.0  0.06650  0.12540  0.75691  1.0000
  H   H475      1.0  0.11487  0.11468  0.76144  1.0000
  C   C396      1.0  0.11082  0.12218  0.68721  1.0000
  C   C397      1.0  0.11796  0.13100  0.68172  1.0000
  C   C398      1.0  0.11935  0.13861  0.68864  1.0000
  C   C399      1.0  0.11353  0.13754  0.70105  1.0000
  C   C400      1.0  0.10641  0.12870  0.70654  1.0000
  C   C401      1.0  0.10509  0.12103  0.69965  1.0000
  H   H476      1.0  0.12237  0.13200  0.67214  1.0000
  H   H477      1.0  0.12490  0.14540  0.68432  1.0000
  H   H478      1.0  0.10197  0.12770  0.71610  1.0000
  H   H479      1.0  0.09957  0.11421  0.70395  1.0000
  C   C402      1.0  0.10105  0.12047  0.60746  1.0000
  C   C403      1.0  0.11248  0.12066  0.59938  1.0000
  H   H480      1.0  0.11962  0.06269  0.60475  1.0000
  C   C404      1.0  0.19379  0.08090  0.64159  1.0000
  C   C405      1.0  0.11754  0.06613  0.61330  1.0000
  C   C406      1.0  0.09085  0.12092  0.60299  1.0000
  H   H481      1.0  0.12035  0.12032  0.60283  1.0000
  C   C407      1.0  0.09036  0.16170  0.67199  1.0000
  C   C408      1.0  0.10935  0.08312  0.62331  1.0000
  H   H482      1.0  0.08199  0.12081  0.60917  1.0000
  C   C409      1.0  0.18400  0.13477  0.61139  1.0000
  C   C410      1.0  0.17841  0.14591  0.61496  1.0000
  C   C411      1.0  0.16607  0.14810  0.62094  1.0000
  C   C412      1.0  0.15925  0.13909  0.62364  1.0000
  C   C413      1.0  0.16482  0.12780  0.62025  1.0000
  C   C414      1.0  0.17720  0.12569  0.61397  1.0000
  H   H483      1.0  0.18363  0.15293  0.61301  1.0000
  H   H484      1.0  0.16179  0.15683  0.62352  1.0000
  H   H485      1.0  0.15956  0.12081  0.62232  1.0000
  H   H486      1.0  0.18151  0.11707  0.61125  1.0000
  C   C415      1.0  0.18852  0.04820  0.59673  1.0000
  C   C416      1.0  0.18408  0.04935  0.60891  1.0000
  C   C417      1.0  0.18879  0.05671  0.61365  1.0000
  C   C418      1.0  0.19767  0.06330  0.60617  1.0000
  C   C419      1.0  0.20202  0.06223  0.59397  1.0000
  H   H487      1.0  0.12893  0.11011  0.77546  1.0000
  H   H488      1.0  0.17716  0.04443  0.61473  1.0000
  H   H489      1.0  0.18547  0.05733  0.62313  1.0000
  N   N27       1.0  0.11888  0.99123  0.63637  1.0000
  H   H490      1.0  0.10036  0.09392  0.60272  1.0000
  C   C420      1.0  0.13671  0.04967  0.63692  1.0000
  C   C421      1.0  0.12903  0.05844  0.64344  1.0000
  C   C422      1.0  0.13322  0.06867  0.64367  1.0000
  C   C423      1.0  0.14515  0.06998  0.63756  1.0000
  C   C424      1.0  0.15299  0.06086  0.63164  1.0000
  C   C425      1.0  0.14872  0.05084  0.63112  1.0000
  H   H491      1.0  0.11976  0.05752  0.64801  1.0000
  H   H492      1.0  0.12724  0.07548  0.64858  1.0000
  H   H493      1.0  0.16231  0.06168  0.62719  1.0000
  H   H494      1.0  0.15475  0.04400  0.62623  1.0000
  H   H495      1.0  0.08962  0.13567  0.66423  1.0000
  H   H496      1.0  0.12490  0.07766  0.58765  1.0000
  H   H497      1.0  0.12474  0.14227  0.58550  1.0000
  H   H498      1.0  0.11755  0.99292  0.58386  1.0000
  H   H499      1.0  0.08296  0.16838  0.71140  1.0000
  H   H500      1.0  0.07363  0.15966  0.70903  1.0000
  H   H501      1.0  0.05624  0.11791  0.75366  1.0000
  H   H502      1.0  0.08222  0.12986  0.68646  1.0000
  H   H503      1.0  0.07752  0.18304  0.68021  1.0000
  H   H504      1.0  0.06674  0.17547  0.69196  1.0000
  H   H505      1.0  0.15931  0.06734  0.60615  1.0000
  H   H506      1.0  0.07479  0.18485  0.69561  1.0000
  H   H507      1.0  0.10149  0.07898  0.62906  1.0000
  N   N28       1.0  0.18191  0.08985  0.64111  1.0000
  H   H508      1.0  0.18423  0.13504  0.64355  1.0000
  C   C426      1.0  0.09145  0.15355  0.66464  1.0000
  C   C427      1.0  0.08416  0.13893  0.68245  1.0000
  H   H509      1.0  0.16614  0.06463  0.58545  1.0000
  H   H510      1.0  0.08394  0.12203  0.58725  1.0000
  H   H511      1.0  0.08025  0.14358  0.69961  1.0000
  C   C428      1.0  0.06803  0.19263  0.77861  1.0000
  C   C429      1.0  0.09746  0.17123  0.68953  1.0000
  H   H512      1.0  0.17392  0.08355  0.66011  1.0000
  C   C430      1.0  0.08841  0.14217  0.66987  1.0000
  H   H513      1.0  0.17222  0.07513  0.64994  1.0000
  H   H514      1.0  0.14030  0.12494  0.59203  1.0000
  H   H515      1.0  0.10534  0.16321  0.68948  1.0000
  C   C431      1.0  0.04344  0.14143  0.75746  1.0000
  S   S130      1.0  0.22694  0.08747  0.58322  1.0000
  C   C432      1.0  0.07575  0.17814  0.68995  1.0000
  H   H516      1.0  0.20115  0.08316  0.63350  1.0000
  C   C433      1.0  0.13791  0.08891  0.58317  1.0000
  C   C434      1.0  0.02486  0.15560  0.76453  1.0000
  C   C435      1.0  0.16671  0.08332  0.60285  1.0000
  C   C436      1.0  0.18268  0.10198  0.64239  1.0000
  S   S131      1.0  0.19909  0.10393  0.59162  1.0000
  C   C437      1.0  0.12976  0.09235  0.60714  1.0000
  C   C438      1.0  0.11150  0.11189  0.77113  1.0000
  H   H517      1.0  0.20900  0.06707  0.58815  1.0000
  C   C439      1.0  0.16421  0.07381  0.59940  1.0000
  C   C440      1.0  0.10299  0.18951  0.77515  1.0000
  C   C441      1.0  0.05779  0.12236  0.78079  1.0000
  H   H518      1.0  0.03921  0.11073  0.77085  1.0000
  C   C442      1.0  0.10890  0.16801  0.77412  1.0000
  H   H519      1.0  0.14355  0.10306  0.60239  1.0000
  H   H520      1.0  0.09803  0.17615  0.69629  1.0000
  H   H521      1.0  0.16488  0.10611  0.65503  1.0000
  H   H522      1.0  0.09285  0.17041  0.66750  1.0000
  C   C443      1.0  0.17888  0.09128  0.62915  1.0000
  C   C444      1.0  0.03480  0.15240  0.75526  1.0000
  H   H523      1.0  0.08985  0.15349  0.70831  1.0000
  H   H524      1.0  0.15094  0.06188  0.78037  1.0000
  H   H525      1.0  0.07464  0.16434  0.78004  1.0000
  H   H526      1.0  0.01840  0.16428  0.76288  1.0000
  C   C445      1.0  0.08640  0.15855  0.68490  1.0000
  C   C446      1.0  0.17278  0.09178  0.59411  1.0000
  C   C447      1.0  0.12853  0.08340  0.59109  1.0000
  C   C448      1.0  0.19345  0.11900  0.63620  1.0000
  H   H527      1.0  0.20112  0.12304  0.63059  1.0000
  C   C449      1.0  0.11242  0.99458  0.64828  1.0000
  C   C450      1.0  0.17311  0.10919  0.64972  1.0000
  N   N29       1.0  0.14204  0.14371  0.58817  1.0000
  C   C451      1.0  0.17127  0.15485  0.58406  1.0000
  H   H528      1.0  0.10490  0.08027  0.59668  1.0000
  H   H529      1.0  0.06700  0.10957  0.76312  1.0000
  H   H530      1.0  0.16616  0.12641  0.65550  1.0000
  H   H531      1.0  0.11670  0.07983  0.62863  1.0000
  C   C452      1.0  0.08318  0.14693  0.68992  1.0000
  C   C453      1.0  0.17675  0.09052  0.58195  1.0000
  C   C454      1.0  0.11362  0.12133  0.58681  1.0000
  H   H532      1.0  0.11039  0.06147  0.61990  1.0000
  H   H533      1.0  0.19697  0.08034  0.64997  1.0000
  H   H534      1.0  0.12806  0.14099  0.60476  1.0000
  C   C455      1.0  0.10298  0.08371  0.60520  1.0000
  H   H535      1.0  0.22285  0.04998  0.60843  1.0000
  H   H536      1.0  0.16999  0.09788  0.62840  1.0000
  C   C456      1.0  0.13106  0.99333  0.59334  1.0000
  C   C457      1.0  0.19278  0.10737  0.63549  1.0000
  H   H537      1.0  0.16298  0.08989  0.65034  1.0000
  C   C458      1.0  0.06057  0.11854  0.76085  1.0000
  N   N30       1.0  0.08563  0.16723  0.69252  1.0000
  C   C459      1.0  0.12393  0.08522  0.60322  1.0000
  H   H538      1.0  0.07558  0.19163  0.77077  1.0000
  C   C460      1.0  0.19767  0.05451  0.58939  1.0000
  C   C461      1.0  0.03212  0.13693  0.77839  1.0000
  H   H539      1.0  0.09910  0.17748  0.68044  1.0000
  H   H540      1.0  0.13992  0.16263  0.77636  1.0000
  H   H541      1.0  0.09490  0.15594  0.65484  1.0000
  H   H542      1.0  0.11642  0.00143  0.65020  1.0000
  H   H543      1.0  0.16176  0.14236  0.59767  1.0000
  C   C462      1.0  0.04317  0.16404  0.77780  1.0000
  H   H544      1.0  0.13293  0.15530  0.60109  1.0000
  H   H545      1.0  0.10093  0.19906  0.77058  1.0000
  Fe  Fe65      1.0  0.13960  0.04010  0.59073  1.0000
  C   C463      1.0  0.13918  0.09778  0.59915  1.0000
  H   H546      1.0  0.06287  0.12993  0.77711  1.0000
  H   H547      1.0  0.19306  0.07154  0.64148  1.0000
  H   H548      1.0  0.09480  0.08030  0.61124  1.0000
  S   S132      1.0  0.18312  0.03893  0.59026  1.0000
  C   C464      1.0  0.23179  0.04785  0.61071  1.0000
  H   H549      1.0  0.10946  0.00798  0.62617  1.0000
  H   H550      1.0  0.13619  0.14319  0.77564  1.0000
  Fe  Fe66      1.0  0.23415  0.10073  0.58920  1.0000
  C   C465      1.0  0.16819  0.07240  0.58732  1.0000
  H   H551      1.0  0.05106  0.13971  0.74993  1.0000
  H   H552      1.0  0.05992  0.15563  0.76688  1.0000
  H   H553      1.0  0.18607  0.09465  0.62139  1.0000
  H   H554      1.0  0.23064  0.02932  0.61991  1.0000
  C   C466      1.0  0.17375  0.12093  0.65015  1.0000
  C   C467      1.0  0.08287  0.16193  0.70587  1.0000
  H   H555      1.0  0.14242  0.14125  0.60720  1.0000
  H   H556      1.0  0.13696  0.99164  0.63793  1.0000
  H   H557      1.0  0.17863  0.15300  0.58887  1.0000
  C   C468      1.0  0.11893  0.00284  0.62699  1.0000
  C   C469      1.0  0.04226  0.13325  0.76910  1.0000
  C   C470      1.0  0.14747  0.13050  0.58860  1.0000
  H   H558      1.0  0.12423  0.00112  0.61786  1.0000
  C   C471      1.0  0.18391  0.12581  0.64344  1.0000
  C   C472      1.0  0.15191  0.15073  0.58290  1.0000
  H   H559      1.0  0.16377  0.08418  0.61229  1.0000
  H   H560      1.0  0.05136  0.10226  0.77875  1.0000
  H   H561      1.0  0.17807  0.08239  0.62779  1.0000
  C   C473      1.0  0.04479  0.11123  0.77706  1.0000
  H   H562      1.0  0.24249  0.07945  0.60715  1.0000
  S   S133      1.0  0.11424  0.15641  0.76563  1.0000
  C   C474      1.0  0.16154  0.14879  0.58906  1.0000
  N   N31       1.0  0.05123  0.12157  0.77180  1.0000
  C   C475      1.0  0.13611  0.14540  0.60080  1.0000
  H   H563      1.0  0.12339  0.00911  0.62924  1.0000
  C   C476      1.0  0.14309  0.09624  0.58714  1.0000
  C   C477      1.0  0.17239  0.08441  0.65086  1.0000
  H   H564      1.0  0.05540  0.18820  0.77073  1.0000
  C   C478      1.0  0.11951  0.10912  0.77906  1.0000
  C   C479      1.0  0.05669  0.19068  0.77858  1.0000
  H   H565      1.0  0.20002  0.10287  0.62911  1.0000
  H   H566      1.0  0.15419  0.12677  0.59465  1.0000
  H   H567      1.0  0.13115  0.00291  0.58942  1.0000
  C   C480      1.0  0.09196  0.12161  0.59056  1.0000
  H   H568      1.0  0.17447  0.09930  0.59680  1.0000
  H   H569      1.0  0.15319  0.17324  0.77700  1.0000
  C   C481      1.0  0.02355  0.14791  0.77608  1.0000
  C   C482      1.0  0.09930  0.11073  0.77568  1.0000
  H   H570      1.0  0.23495  0.06570  0.60221  1.0000
  C   C483      1.0  0.10328  0.12188  0.58240  1.0000
  C   C484      1.0  0.15190  0.05774  0.88608  1.0000
  S   S134      1.0  0.12908  0.01463  0.81668  1.0000
  Fe  Fe67      1.0  0.11744  0.34166  0.93920  1.0000
  S   S135      1.0  0.11108  0.35922  0.92641  1.0000
  S   S136      1.0  0.12664  0.32403  0.93231  1.0000
  Fe  Fe68      1.0  0.11211  0.35450  0.96116  1.0000
  S   S137      1.0  0.10441  0.37268  0.95009  1.0000
  Fe  Fe69      1.0  0.09551  0.36223  0.94236  1.0000
  S   S138      1.0  0.07599  0.36949  0.93983  1.0000
  Fe  Fe70      1.0  0.12050  0.36800  0.93521  1.0000
  S   S139      1.0  0.13274  0.38140  0.92675  1.0000
  S   S140      1.0  0.10146  0.34423  0.95504  1.0000
  S   S141      1.0  0.12861  0.35026  0.94631  1.0000
  Fe  Fe71      1.0  0.14120  0.28049  0.87304  1.0000
  S   S142      1.0  0.13014  0.26939  0.88906  1.0000
  S   S143      1.0  0.16152  0.27922  0.86965  1.0000
  Fe  Fe72      1.0  0.11930  0.29364  0.86207  1.0000
  S   S144      1.0  0.10635  0.28384  0.87712  1.0000
  S   S145      1.0  0.11369  0.30946  0.84731  1.0000
  Fe  Fe73      1.0  0.11637  0.28727  0.88958  1.0000
  S   S146      1.0  0.10507  0.29606  0.90550  1.0000
  Fe  Fe74      1.0  0.12122  0.26689  0.87499  1.0000
  S   S147      1.0  0.11765  0.24796  0.87621  1.0000
  S   S148      1.0  0.12813  0.29831  0.87456  1.0000
  S   S149      1.0  0.13347  0.27670  0.85901  1.0000
  Fe  Fe75      1.0  0.04838  0.37874  0.85259  1.0000
  S   S150      1.0  0.04338  0.36843  0.87195  1.0000
  S   S151      1.0  0.03415  0.38782  0.84069  1.0000
  Fe  Fe76      1.0  0.07617  0.37219  0.85320  1.0000
  S   S152      1.0  0.07299  0.36113  0.87239  1.0000
  S   S153      1.0  0.09587  0.37174  0.84274  1.0000
  Fe  Fe77      1.0  0.05985  0.35416  0.86633  1.0000
  S   S154      1.0  0.05996  0.33419  0.87014  1.0000
  Fe  Fe78      1.0  0.05712  0.37658  0.87597  1.0000
  S   S155      1.0  0.05320  0.38466  0.89257  1.0000
  S   S156      1.0  0.06418  0.36393  0.84680  1.0000
  S   S157      1.0  0.06085  0.38831  0.85701  1.0000
  Fe  Fe79      1.0  0.17543  0.35484  0.87891  1.0000
  S   S158      1.0  0.16969  0.37468  0.87035  1.0000
  S   S159      1.0  0.17923  0.35064  0.89768  1.0000
  Fe  Fe80      1.0  0.17506  0.34610  0.85686  1.0000
  S   S160      1.0  0.16957  0.36539  0.84625  1.0000
  S   S161      1.0  0.17897  0.32973  0.84830  1.0000
  Fe  Fe81      1.0  0.18356  0.37006  0.85373  1.0000
  S   S162      1.0  0.19890  0.38025  0.84273  1.0000
  Fe  Fe82      1.0  0.15622  0.36826  0.86391  1.0000
  S   S163      1.0  0.13594  0.37749  0.86781  1.0000
  S   S164      1.0  0.19005  0.35044  0.86278  1.0000
  S   S165      1.0  0.16100  0.34868  0.87394  1.0000
  C   C485      1.0  0.08653  0.34567  0.82038  1.0000
  H   H571      1.0  0.08647  0.31455  0.89726  1.0000
  Fe  Fe83      1.0  0.03505  0.14744  0.82936  1.0000
  S   S166      1.0  0.01889  0.16292  0.82637  1.0000
  S   S167      1.0  0.05157  0.14520  0.83707  1.0000
  Fe  Fe84      1.0  0.02787  0.13182  0.81663  1.0000
  S   S168      1.0  0.01109  0.14570  0.81240  1.0000
  S   S169      1.0  0.03403  0.11406  0.81054  1.0000
  C   C486      1.0  0.13624  0.07491  0.87819  1.0000
  C   C487      1.0  0.21419  0.34595  0.87925  1.0000
  Fe  Fe85      1.0  0.00801  0.14812  0.83156  1.0000
  S   S170      1.0  0.04018  0.14511  0.81002  1.0000
  S   S171      1.0  0.02388  0.13291  0.83628  1.0000
  Fe  Fe86      1.0  0.11794  0.07174  0.84071  1.0000
  S   S172      1.0  0.10965  0.07639  0.82432  1.0000
  S   S173      1.0  0.12958  0.05291  0.84631  1.0000
  Fe  Fe87      1.0  0.10720  0.09758  0.84589  1.0000
  S   S174      1.0  0.09814  0.10401  0.82989  1.0000
  S   S175      1.0  0.10282  0.11075  0.85830  1.0000
  Fe  Fe88      1.0  0.09291  0.08571  0.83594  1.0000
  S   S176      1.0  0.07483  0.08074  0.83878  1.0000
  Fe  Fe89      1.0  0.11586  0.09398  0.82017  1.0000
  H   H572      1.0  0.09034  0.31497  0.83141  1.0000
  S   S177      1.0  0.10070  0.07990  0.85276  1.0000
  S   S178      1.0  0.12548  0.08886  0.83571  1.0000
  Fe  Fe90      1.0  0.10666  0.20372  0.83594  1.0000
  S   S179      1.0  0.09046  0.20670  0.82739  1.0000
  S   S180      1.0  0.11286  0.22076  0.83679  1.0000
  Fe  Fe91      1.0  0.11268  0.17612  0.83626  1.0000
  S   S181      1.0  0.09705  0.17716  0.82795  1.0000
  S   S182      1.0  0.12605  0.15784  0.83844  1.0000
  Fe  Fe92      1.0  0.10237  0.19400  0.81527  1.0000
  S   S183      1.0  0.10144  0.19827  0.79529  1.0000
  Fe  Fe93      1.0  0.08624  0.18955  0.84071  1.0000
  S   S184      1.0  0.06622  0.18896  0.84862  1.0000
  S   S185      1.0  0.11898  0.19224  0.82253  1.0000
  S   S186      1.0  0.10153  0.18725  0.85031  1.0000
  C   C488      1.0  0.10895  0.12401  0.85188  1.0000
  C   C489      1.0  0.10206  0.13533  0.85446  1.0000
  C   C490      1.0  0.10712  0.14584  0.85004  1.0000
  C   C491      1.0  0.11923  0.14499  0.84337  1.0000
  C   C492      1.0  0.12613  0.13365  0.84081  1.0000
  C   C493      1.0  0.12093  0.12323  0.84486  1.0000
  H   H573      1.0  0.09281  0.13600  0.85989  1.0000
  H   H574      1.0  0.10177  0.15454  0.85212  1.0000
  H   H575      1.0  0.13553  0.13293  0.83573  1.0000
  H   H576      1.0  0.12631  0.11455  0.84280  1.0000
  C   C494      1.0  0.05509  0.15732  0.84089  1.0000
  C   C495      1.0  0.06681  0.15579  0.84302  1.0000
  C   C496      1.0  0.07026  0.16542  0.84547  1.0000
  C   C497      1.0  0.06183  0.17651  0.84629  1.0000
  C   C498      1.0  0.04987  0.17782  0.84483  1.0000
  C   C499      1.0  0.04657  0.16835  0.84184  1.0000
  H   H577      1.0  0.13232  0.32306  0.85001  1.0000
  H   H578      1.0  0.07937  0.16417  0.84699  1.0000
  H   H579      1.0  0.04321  0.18627  0.84580  1.0000
  H   H580      1.0  0.03741  0.16948  0.84048  1.0000
  C   C500      1.0  0.04599  0.10480  0.81756  1.0000
  C   C501      1.0  0.04552  0.09261  0.82317  1.0000
  C   C502      1.0  0.05456  0.08530  0.82950  1.0000
  C   C503      1.0  0.06435  0.08999  0.82987  1.0000
  C   C504      1.0  0.06518  0.10204  0.82375  1.0000
  C   C505      1.0  0.05582  0.10954  0.81782  1.0000
  H   H581      1.0  0.03792  0.08895  0.82300  1.0000
  H   H582      1.0  0.05390  0.07600  0.83422  1.0000
  H   H583      1.0  0.07284  0.10565  0.82378  1.0000
  H   H584      1.0  0.05624  0.11895  0.81340  1.0000
  N   N32       1.0  0.12767  0.08695  0.87857  1.0000
  C   C506      1.0  0.05090  0.20280  0.81933  1.0000
  H   H585      1.0  0.23734  0.42925  0.84528  1.0000
  C   C507      1.0  0.06725  0.12720  0.86821  1.0000
  H   H586      1.0  0.08672  0.04710  0.81084  1.0000
  C   C508      1.0  0.14613  0.33974  0.84374  1.0000
  H   H587      1.0  0.11005  0.31857  0.88873  1.0000
  H   H588      1.0  0.10253  0.32412  0.87625  1.0000
  H   H589      1.0  0.14931  0.34823  0.83821  1.0000
  H   H590      1.0  0.07456  0.01010  0.84607  1.0000
  H   H591      1.0  0.22499  0.42589  0.83462  1.0000
  H   H592      1.0  0.13858  0.34929  0.90162  1.0000
  C   C509      1.0  0.00032  0.39763  0.85581  1.0000
  H   H593      1.0  0.12086  0.36520  0.89587  1.0000
  H   H594      1.0  0.10003  0.10015  0.80579  1.0000
  H   H595      1.0  0.08675  0.33746  0.88829  1.0000
  C   C510      1.0  0.20670  0.38829  0.84821  1.0000
  C   C511      1.0  0.20096  0.39409  0.85801  1.0000
  C   C512      1.0  0.20750  0.40018  0.86223  1.0000
  C   C513      1.0  0.21986  0.40054  0.85676  1.0000
  C   C514      1.0  0.22554  0.39496  0.84679  1.0000
  C   C515      1.0  0.21895  0.38898  0.84248  1.0000
  H   H596      1.0  0.19146  0.39389  0.86234  1.0000
  H   H597      1.0  0.20293  0.40467  0.86978  1.0000
  H   H598      1.0  0.10676  0.99717  0.85017  1.0000
  H   H599      1.0  0.22343  0.38469  0.83478  1.0000
  C   C516      1.0  0.02398  0.38053  0.83752  1.0000
  C   C517      1.0  0.01670  0.38703  0.82891  1.0000
  C   C518      1.0  0.00875  0.38147  0.82593  1.0000
  C   C519      1.0  0.00800  0.36930  0.83151  1.0000
  H   H600      1.0  0.16245  0.16353  0.78755  1.0000
  C   C520      1.0  0.02295  0.36849  0.84336  1.0000
  H   H601      1.0  0.01736  0.39637  0.82438  1.0000
  C   C521      1.0  0.00581  0.38716  0.86325  1.0000
  C   C522      1.0  0.10698  0.37357  0.84960  1.0000
  C   C523      1.0  0.11954  0.37031  0.84433  1.0000
  C   C524      1.0  0.12856  0.37120  0.84993  1.0000
  C   C525      1.0  0.12505  0.37557  0.86073  1.0000
  C   C526      1.0  0.11250  0.37887  0.86593  1.0000
  C   C527      1.0  0.10350  0.37790  0.86040  1.0000
  H   H602      1.0  0.12231  0.36721  0.83584  1.0000
  H   H603      1.0  0.13819  0.36884  0.84574  1.0000
  H   H604      1.0  0.10976  0.38204  0.87436  1.0000
  H   H605      1.0  0.09387  0.38034  0.86455  1.0000
  C   C528      1.0  0.16625  0.29338  0.86459  1.0000
  C   C529      1.0  0.17669  0.29430  0.85523  1.0000
  C   C530      1.0  0.18061  0.30541  0.85069  1.0000
  C   C531      1.0  0.17439  0.31569  0.85567  1.0000
  C   C532      1.0  0.16413  0.31474  0.86536  1.0000
  C   C533      1.0  0.15996  0.30362  0.86971  1.0000
  H   H606      1.0  0.18166  0.28644  0.85129  1.0000
  H   H607      1.0  0.18850  0.30606  0.84318  1.0000
  H   H608      1.0  0.15926  0.32261  0.86930  1.0000
  H   H609      1.0  0.15202  0.30292  0.87713  1.0000
  C   C534      1.0  0.09855  0.31624  0.85303  1.0000
  C   C535      1.0  0.08981  0.30906  0.85897  1.0000
  C   C536      1.0  0.07780  0.31458  0.86400  1.0000
  C   C537      1.0  0.07461  0.32726  0.86313  1.0000
  C   C538      1.0  0.08336  0.33438  0.85713  1.0000
  C   C539      1.0  0.09527  0.32890  0.85200  1.0000
  H   H610      1.0  0.09226  0.29927  0.85951  1.0000
  H   H611      1.0  0.07105  0.30902  0.86862  1.0000
  H   H612      1.0  0.08107  0.34413  0.85644  1.0000
  H   H613      1.0  0.10195  0.33447  0.84736  1.0000
  C   C540      1.0  0.11567  0.24089  0.86515  1.0000
  C   C541      1.0  0.11256  0.22928  0.86904  1.0000
  C   C542      1.0  0.11140  0.22309  0.86059  1.0000
  C   C543      1.0  0.11349  0.22835  0.84806  1.0000
  C   C544      1.0  0.11663  0.23994  0.84419  1.0000
  C   C545      1.0  0.11763  0.24621  0.85264  1.0000
  H   H614      1.0  0.11106  0.22502  0.87867  1.0000
  H   H615      1.0  0.10903  0.21418  0.86377  1.0000
  H   H616      1.0  0.11829  0.24412  0.83454  1.0000
  H   H617      1.0  0.12005  0.25509  0.84944  1.0000
  C   C546      1.0  0.12048  0.31705  0.92421  1.0000
  C   C547      1.0  0.12845  0.30837  0.91765  1.0000
  C   C548      1.0  0.12390  0.30215  0.91156  1.0000
  C   C549      1.0  0.11127  0.30426  0.91233  1.0000
  C   C550      1.0  0.10331  0.31297  0.91884  1.0000
  C   C551      1.0  0.10789  0.31950  0.92459  1.0000
  H   H618      1.0  0.13819  0.30636  0.91734  1.0000
  H   H619      1.0  0.13013  0.29543  0.90663  1.0000
  H   H620      1.0  0.09354  0.31464  0.91953  1.0000
  H   H621      1.0  0.10166  0.32610  0.92968  1.0000
  C   C552      1.0  0.14605  0.37381  0.91824  1.0000
  C   C553      1.0  0.15709  0.37019  0.92232  1.0000
  C   C554      1.0  0.16750  0.36331  0.91586  1.0000
  C   C555      1.0  0.16683  0.36017  0.90530  1.0000
  C   C556      1.0  0.15585  0.36402  0.90116  1.0000
  C   C557      1.0  0.14544  0.37069  0.90769  1.0000
  H   H622      1.0  0.15751  0.37244  0.93060  1.0000
  H   H623      1.0  0.17598  0.36033  0.91908  1.0000
  H   H624      1.0  0.15522  0.36160  0.89307  1.0000
  H   H625      1.0  0.13693  0.37343  0.90453  1.0000
  C   C558      1.0  0.07050  0.37275  0.92625  1.0000
  C   C559      1.0  0.07755  0.36926  0.91533  1.0000
  C   C560      1.0  0.07232  0.37233  0.90489  1.0000
  C   C561      1.0  0.06012  0.37896  0.90541  1.0000
  C   C562      1.0  0.05327  0.38235  0.91631  1.0000
  C   C563      1.0  0.05836  0.37919  0.92664  1.0000
  H   H626      1.0  0.08696  0.36428  0.91494  1.0000
  H   H627      1.0  0.07777  0.36985  0.89643  1.0000
  H   H628      1.0  0.04391  0.38756  0.91680  1.0000
  H   H629      1.0  0.05284  0.38190  0.93499  1.0000
  C   C564      1.0  0.12867  0.02428  0.82623  1.0000
  C   C565      1.0  0.13742  0.02176  0.83334  1.0000
  C   C566      1.0  0.13749  0.03043  0.83979  1.0000
  C   C567      1.0  0.12866  0.04149  0.83934  1.0000
  C   C568      1.0  0.11951  0.04355  0.83284  1.0000
  C   C569      1.0  0.11967  0.03512  0.82614  1.0000
  H   H630      1.0  0.14442  0.01339  0.83348  1.0000
  H   H631      1.0  0.14454  0.02868  0.84491  1.0000
  H   H632      1.0  0.11231  0.05167  0.83289  1.0000
  H   H633      1.0  0.11282  0.03707  0.82077  1.0000
  N   N33       1.0  0.14225  0.05896  0.79946  1.0000
  H   H634      1.0  0.15760  0.17979  0.78685  1.0000
  C   C570      1.0  0.15949  0.38200  0.98104  1.0000
  H   H635      1.0  0.18049  0.32002  0.93250  1.0000
  C   C571      1.0  0.21283  0.43925  0.84533  1.0000
  C   C572      1.0  0.23449  0.36379  0.88055  1.0000
  H   H636      1.0  0.19515  0.36541  0.88238  1.0000
  H   H637      1.0  0.11230  0.07839  0.88772  1.0000
  H   H638      1.0  0.15894  0.33693  0.91206  1.0000
  H   H639      1.0  0.09487  0.15023  0.82972  1.0000
  H   H640      1.0  0.01449  0.35353  0.84477  1.0000
  H   H641      1.0  0.11170  0.15542  0.79105  1.0000
  C   C573      1.0  0.15888  0.33493  0.94785  1.0000
  C   C574      1.0  0.10742  0.06100  0.79124  1.0000
  H   H642      1.0  0.09895  0.99402  0.83485  1.0000
  H   H643      1.0  0.07631  0.21085  0.79957  1.0000
  H   H644      1.0  0.14527  0.33557  0.92363  1.0000
  H   H645      1.0  0.14083  0.32936  0.97635  1.0000
  H   H646      1.0  0.15907  0.06506  0.78997  1.0000
  H   H647      1.0  0.05739  0.10105  0.87663  1.0000
  H   H648      1.0  0.00456  0.40552  0.85259  1.0000
  H   H649      1.0  0.13671  0.09396  0.88835  1.0000
  N   N34       1.0  0.06799  0.31278  0.90597  1.0000
  H   H650      1.0  0.21462  0.34645  0.86947  1.0000
  H   H651      1.0  0.06687  0.16891  0.80509  1.0000
  N   N35       1.0  0.16187  0.24372  0.86354  1.0000
  C   C575      1.0  0.17390  0.24256  0.86650  1.0000
  C   C576      1.0  0.16078  0.25381  0.85262  1.0000
  C   C577      1.0  0.15216  0.24721  0.87405  1.0000
  C   C578      1.0  0.16032  0.23239  0.86112  1.0000
  C   C579      1.0  0.14918  0.23209  0.85839  1.0000
  C   C580      1.0  0.16961  0.22145  0.86135  1.0000
  C   C581      1.0  0.14742  0.22156  0.85605  1.0000
  C   C582      1.0  0.16774  0.21094  0.85900  1.0000
  C   C583      1.0  0.15667  0.21100  0.85636  1.0000
  H   H652      1.0  0.18167  0.24041  0.85880  1.0000
  H   H653      1.0  0.17464  0.25130  0.86828  1.0000
  H   H654      1.0  0.17515  0.23540  0.87491  1.0000
  H   H655      1.0  0.16783  0.25147  0.84447  1.0000
  H   H656      1.0  0.16192  0.26252  0.85408  1.0000
  H   H657      1.0  0.15166  0.25587  0.85023  1.0000
  H   H658      1.0  0.15342  0.25532  0.87660  1.0000
  H   H659      1.0  0.14282  0.24972  0.87208  1.0000
  H   H660      1.0  0.15210  0.23956  0.88225  1.0000
  H   H661      1.0  0.14167  0.24002  0.85813  1.0000
  H   H662      1.0  0.17837  0.22075  0.86336  1.0000
  H   H663      1.0  0.13877  0.22160  0.85405  1.0000
  H   H664      1.0  0.17490  0.20266  0.85926  1.0000
  H   H665      1.0  0.15520  0.20285  0.85459  1.0000
  H   H666      1.0  0.11517  0.38487  0.91148  1.0000
  H   H667      1.0  0.15766  0.05347  0.89270  1.0000
  C   C584      1.0  0.14024  0.06490  0.80985  1.0000
  H   H668      1.0  0.12998  0.09343  0.85896  1.0000
  C   C585      1.0  0.06478  0.33476  0.92655  1.0000
  H   H669      1.0  0.12471  0.08607  0.89789  1.0000
  H   H670      1.0  0.07324  0.10196  0.87058  1.0000
  H   H671      1.0  0.20342  0.35376  0.89970  1.0000
  H   H672      1.0  0.15176  0.04135  0.79515  1.0000
  H   H673      1.0  0.09011  0.41983  0.87224  1.0000
  C   C586      1.0  0.05877  0.34649  0.90776  1.0000
  H   H674      1.0  0.09344  0.38720  0.92254  1.0000
  N   N36       1.0  0.09361  0.01107  0.84103  1.0000
  C   C587      1.0  0.10426  0.00732  0.84701  1.0000
  C   C588      1.0  0.08285  0.00725  0.85012  1.0000
  C   C589      1.0  0.09665  0.00411  0.83121  1.0000
  C   C590      1.0  0.09082  0.02457  0.83653  1.0000
  C   C591      1.0  0.09009  0.03021  0.82416  1.0000
  C   C592      1.0  0.08840  0.03253  0.84467  1.0000
  C   C593      1.0  0.08719  0.04298  0.82030  1.0000
  H   H675      1.0  0.08880  0.00579  0.82676  1.0000
  C   C594      1.0  0.08501  0.05050  0.82851  1.0000
  C   C595      1.0  0.05999  0.19741  0.79902  1.0000
  H   H676      1.0  0.13652  0.31408  0.96773  1.0000
  H   H677      1.0  0.11249  0.01023  0.84057  1.0000
  C   C596      1.0  0.05337  0.14537  0.87414  1.0000
  H   H678      1.0  0.15452  0.34508  0.92428  1.0000
  H   H679      1.0  0.12468  0.07940  0.79317  1.0000
  H   H680      1.0  0.06644  0.09358  0.86437  1.0000
  N   N37       1.0  0.21453  0.35784  0.88151  1.0000
  H   H681      1.0  0.08059  0.01129  0.85830  1.0000
  C   C597      1.0  0.04390  0.14243  0.87100  1.0000
  H   H682      1.0  0.22723  0.46236  0.84213  1.0000
  H   H683      1.0  0.14153  0.32821  0.89887  1.0000
  H   H684      1.0  0.03774  0.35761  0.82445  1.0000
  H   H685      1.0  0.05082  0.32517  0.82778  1.0000
  H   H686      1.0  0.21178  0.36536  0.89734  1.0000
  H   H687      1.0  0.09185  0.02497  0.81725  1.0000
  H   H688      1.0  0.09471  0.33266  0.90072  1.0000
  C   C598      1.0  0.10941  0.32586  0.88032  1.0000
  H   H689      1.0  0.05174  0.15371  0.87740  1.0000
  H   H690      1.0  0.05339  0.33594  0.81343  1.0000
  H   H691      1.0  0.10482  0.00647  0.82412  1.0000
  H   H692      1.0  0.15263  0.33494  0.84987  1.0000
  H   H693      1.0  0.11835  0.32463  0.87367  1.0000
  H   H694      1.0  0.05292  0.20507  0.82722  1.0000
  C   C599      1.0  0.16156  0.31434  0.92641  1.0000
  H   H695      1.0  0.07309  0.10623  0.84390  1.0000
  H   H696      1.0  0.13707  0.34262  0.84970  1.0000
  N   N38       1.0  0.14006  0.38727  0.95764  1.0000
  C   C600      1.0  0.12756  0.39463  0.95657  1.0000
  C   C601      1.0  0.14873  0.39159  0.94629  1.0000
  C   C602      1.0  0.13998  0.37427  0.95846  1.0000
  H   H697      1.0  0.13742  0.16900  0.81523  1.0000
  C   C603      1.0  0.13717  0.14454  0.78418  1.0000
  N   N39       1.0  0.14348  0.16941  0.79591  1.0000
  H   H698      1.0  0.12538  0.10525  0.86733  1.0000
  C   C604      1.0  0.12635  0.04875  0.79701  1.0000
  C   C605      1.0  0.10791  0.38955  0.90656  1.0000
  H   H699      1.0  0.14936  0.40118  0.94561  1.0000
  H   H700      1.0  0.12468  0.39333  0.94867  1.0000
  H   H701      1.0  0.12057  0.39190  0.96486  1.0000
  H   H702      1.0  0.15815  0.38581  0.94583  1.0000
  C   C606      1.0  0.20024  0.44331  0.85054  1.0000
  H   H703      1.0  0.14577  0.39148  0.93798  1.0000
  H   H704      1.0  0.03084  0.13141  0.78758  1.0000
  H   H705      1.0  0.13587  0.37328  0.95127  1.0000
  H   H706      1.0  0.14931  0.36834  0.95734  1.0000
  C   C607      1.0  0.14055  0.15777  0.79575  1.0000
  C   C608      1.0  0.13654  0.13721  0.80575  1.0000
  H   H707      1.0  0.07646  0.12163  0.86727  1.0000
  H   H708      1.0  0.20894  0.41728  0.83275  1.0000
  H   H709      1.0  0.07701  0.39764  0.91193  1.0000
  N   N40       1.0  0.10589  0.33829  0.88305  1.0000
  C   C609      1.0  0.09391  0.33927  0.89188  1.0000
  C   C610      1.0  0.10436  0.34722  0.87144  1.0000
  C   C611      1.0  0.11499  0.34106  0.88817  1.0000
  C   C612      1.0  0.12538  0.33216  0.89146  1.0000
  C   C613      1.0  0.11349  0.35300  0.89012  1.0000
  C   C614      1.0  0.13375  0.33516  0.89628  1.0000
  C   C615      1.0  0.12202  0.35593  0.89476  1.0000
  C   C616      1.0  0.13209  0.34701  0.89790  1.0000
  H   H710      1.0  0.09040  0.34855  0.89400  1.0000
  H   H711      1.0  0.11340  0.34808  0.86517  1.0000
  H   H712      1.0  0.09947  0.35646  0.87301  1.0000
  H   H713      1.0  0.09879  0.34466  0.86646  1.0000
  H   H714      1.0  0.12722  0.32278  0.89054  1.0000
  H   H715      1.0  0.10574  0.36021  0.88801  1.0000
  H   H716      1.0  0.15062  0.34001  0.81007  1.0000
  H   H717      1.0  0.13983  0.31515  0.83787  1.0000
  H   H718      1.0  0.12094  0.10121  0.88894  1.0000
  N   N41       1.0  0.14564  0.33191  0.83578  1.0000
  C   C617      1.0  0.14120  0.32083  0.84355  1.0000
  C   C618      1.0  0.13716  0.33895  0.82758  1.0000
  C   C619      1.0  0.14115  0.34245  0.81467  1.0000
  H   H719      1.0  0.13613  0.35209  0.79748  1.0000
  H   H720      1.0  0.08380  0.16840  0.78797  1.0000
  H   H721      1.0  0.04929  0.36228  0.82846  1.0000
  H   H722      1.0  0.06798  0.32019  0.83491  1.0000
  H   H723      1.0  0.21108  0.46308  0.84598  1.0000
  H   H724      1.0  0.06610  0.41621  0.90127  1.0000
  C   C620      1.0  0.15838  0.32770  0.82913  1.0000
  C   C621      1.0  0.20651  0.42474  0.83751  1.0000
  C   C622      1.0  0.13289  0.34944  0.80728  1.0000
  H   H725      1.0  0.16281  0.33554  0.82395  1.0000
  H   H726      1.0  0.16440  0.32203  0.83550  1.0000
  C   C623      1.0  0.04784  0.35581  0.82368  1.0000
  C   C624      1.0  0.07285  0.32751  0.83054  1.0000
  C   C625      1.0  0.08566  0.32441  0.82863  1.0000
  H   H727      1.0  0.05017  0.34618  0.84696  1.0000
  H   H728      1.0  0.05193  0.35834  0.81376  1.0000
  H   H729      1.0  0.18729  0.42457  0.84221  1.0000
  C   C626      1.0  0.14977  0.06565  0.78856  1.0000
  H   H730      1.0  0.07329  0.14712  0.84267  1.0000
  C   C627      1.0  0.12451  0.34295  0.83252  1.0000
  H   H731      1.0  0.12088  0.34095  0.84225  1.0000
  H   H732      1.0  0.08260  0.42615  0.88553  1.0000
  H   H733      1.0  0.07356  0.29302  0.91101  1.0000
  H   H734      1.0  0.08019  0.30105  0.91759  1.0000
  C   C628      1.0  0.11634  0.34990  0.82505  1.0000
  C   C629      1.0  0.12052  0.35318  0.81246  1.0000
  H   H735      1.0  0.14779  0.31488  0.84926  1.0000
  H   H736      1.0  0.22928  0.44637  0.86182  1.0000
  H   H737      1.0  0.13161  0.07238  0.86211  1.0000
  N   N42       1.0  0.05291  0.34281  0.82902  1.0000
  H   H738      1.0  0.03728  0.34240  0.84416  1.0000
  C   C630      1.0  0.04749  0.34041  0.84231  1.0000
  C   C631      1.0  0.06648  0.33981  0.82712  1.0000
  C   C632      1.0  0.09249  0.33347  0.82356  1.0000
  C   C633      1.0  0.09568  0.39097  0.91278  1.0000
  C   C634      1.0  0.07158  0.30131  0.91491  1.0000
  H   H739      1.0  0.15865  0.32187  0.82284  1.0000
  H   H740      1.0  0.10676  0.35300  0.82912  1.0000
  H   H741      1.0  0.05056  0.33072  0.84693  1.0000
  H   H742      1.0  0.11419  0.35877  0.80674  1.0000
  H   H743      1.0  0.03870  0.33762  0.82390  1.0000
  H   H744      1.0  0.10241  0.33101  0.82241  1.0000
  H   H745      1.0  0.14395  0.07319  0.89406  1.0000
  H   H746      1.0  0.06421  0.30016  0.92329  1.0000
  H   H747      1.0  0.08087  0.30482  0.89140  1.0000
  C   C635      1.0  0.14392  0.06913  0.88675  1.0000
  C   C636      1.0  0.04883  0.33504  0.82328  1.0000
  C   C637      1.0  0.07373  0.34886  0.82211  1.0000
  H   H748      1.0  0.07235  0.14008  0.87525  1.0000
  Fe  Fe94      1.0  0.13508  0.99408  0.82279  1.0000
  C   C638      1.0  0.07818  0.31335  0.89505  1.0000
  H   H749      1.0  0.04888  0.31208  0.91018  1.0000
  H   H750      1.0  0.07786  0.39167  0.88321  1.0000
  H   H751      1.0  0.06973  0.35851  0.81963  1.0000
  H   H752      1.0  0.13528  0.13007  0.81393  1.0000
  C   C639      1.0  0.05696  0.31183  0.90239  1.0000
  H   H753      1.0  0.05440  0.31937  0.89467  1.0000
  H   H754      1.0  0.07576  0.32108  0.88748  1.0000
  C   C640      1.0  0.20425  0.36734  0.87721  1.0000
  C   C641      1.0  0.04699  0.19200  0.78861  1.0000
  C   C642      1.0  0.22181  0.44303  0.86021  1.0000
  H   H755      1.0  0.09183  0.35275  0.81668  1.0000
  H   H756      1.0  0.08784  0.40000  0.87120  1.0000
  C   C643      1.0  0.06539  0.32405  0.91074  1.0000
  H   H757      1.0  0.05849  0.30319  0.89922  1.0000
  H   H758      1.0  0.07043  0.31555  0.92857  1.0000
  C   C644      1.0  0.08125  0.16054  0.78622  1.0000
  H   H759      1.0  0.07873  0.15930  0.81834  1.0000
  C   C645      1.0  0.13117  0.09588  0.86710  1.0000
  H   H760      1.0  0.22284  0.43315  0.86482  1.0000
  H   H761      1.0  0.06917  0.13614  0.80340  1.0000
  C   C646      1.0  0.06124  0.33571  0.90350  1.0000
  C   C647      1.0  0.06717  0.32390  0.92243  1.0000
  H   H762      1.0  0.05983  0.33660  0.89445  1.0000
  H   H763      1.0  0.05759  0.16367  0.79862  1.0000
  C   C648      1.0  0.10146  0.40021  0.88763  1.0000
  C   C649      1.0  0.12756  0.09220  0.88892  1.0000
  H   H764      1.0  0.06379  0.40202  0.89961  1.0000
  C   C650      1.0  0.06495  0.16045  0.80396  1.0000
  H   H765      1.0  0.05956  0.41575  0.88908  1.0000
  H   H766      1.0  0.11225  0.04128  0.79464  1.0000
  C   C651      1.0  0.11538  0.10501  0.79158  1.0000
  C   C652      1.0  0.06049  0.34599  0.91930  1.0000
  H   H767      1.0  0.06623  0.33449  0.93547  1.0000
  N   N43       1.0  0.07608  0.15272  0.79775  1.0000
  C   C653      1.0  0.15249  0.05181  0.87695  1.0000
  H   H768      1.0  0.05546  0.35530  0.90213  1.0000
  H   H769      1.0  0.08577  0.10543  0.79178  1.0000
  C   C654      1.0  0.13583  0.13531  0.79466  1.0000
  C   C655      1.0  0.07122  0.19059  0.81521  1.0000
  H   H770      1.0  0.04704  0.11971  0.84806  1.0000
  H   H771      1.0  0.07951  0.11467  0.85034  1.0000
  H   H772      1.0  0.24318  0.36731  0.84534  1.0000
  C   C656      1.0  0.06666  0.41074  0.89455  1.0000
  H   H773      1.0  0.12710  0.40463  0.95502  1.0000
  C   C657      1.0  0.04605  0.13192  0.86635  1.0000
  C   C658      1.0  0.08889  0.40203  0.89370  1.0000
  H   H774      1.0  0.07407  0.42600  0.87474  1.0000
  H   H775      1.0  0.07152  0.40517  0.87318  1.0000
  H   H776      1.0  0.05847  0.35433  0.92266  1.0000
  H   H777      1.0  0.13583  0.07480  0.80779  1.0000
  H   H778      1.0  0.06108  0.15527  0.81309  1.0000
  C   C659      1.0  0.21233  0.35652  0.89495  1.0000
  N   N44       1.0  0.16200  0.32580  0.92956  1.0000
  H   H779      1.0  0.12841  0.40245  0.97471  1.0000
  H   H780      1.0  0.14092  0.09651  0.86549  1.0000
  C   C660      1.0  0.08574  0.15186  0.81528  1.0000
  Fe  Fe95      1.0  0.02311  0.15928  0.80751  1.0000
  C   C661      1.0  0.04856  0.19526  0.79874  1.0000
  N   N45       1.0  0.07918  0.40849  0.88670  1.0000
  C   C662      1.0  0.08162  0.42062  0.87951  1.0000
  C   C663      1.0  0.07913  0.40104  0.87818  1.0000
  C   C664      1.0  0.07206  0.14286  0.79490  1.0000
  C   C665      1.0  0.08566  0.14738  0.80508  1.0000
  C   C666      1.0  0.10446  0.13713  0.81858  1.0000
  H   H781      1.0  0.00528  0.36855  0.87252  1.0000
  H   H782      1.0  0.10420  0.40335  0.87786  1.0000
  H   H783      1.0  0.07862  0.19737  0.78825  1.0000
  C   C667      1.0  0.15543  0.38111  0.97109  1.0000
  C   C668      1.0  0.09572  0.13787  0.80167  1.0000
  C   C669      1.0  0.09501  0.14675  0.82191  1.0000
  H   H784      1.0  0.15199  0.31367  0.92707  1.0000
  H   H785      1.0  0.10637  0.17151  0.80298  1.0000
  C   C670      1.0  0.10324  0.10353  0.79615  1.0000
  S   S187      1.0  0.22751  0.40863  0.86233  1.0000
  H   H786      1.0  0.12034  0.39266  0.88912  1.0000
  H   H787      1.0  0.08389  0.05125  0.84699  1.0000
  C   C671      1.0  0.08626  0.39707  0.90651  1.0000
  C   C672      1.0  0.11080  0.39405  0.89399  1.0000
  C   C673      1.0  0.08561  0.04529  0.84067  1.0000
  S   S188      1.0  0.12556  0.10135  0.80136  1.0000
  C   C674      1.0  0.05792  0.12411  0.86455  1.0000
  H   H788      1.0  0.09684  0.13443  0.79358  1.0000
  C   C675      1.0  0.13880  0.14828  0.80637  1.0000
  C   C676      1.0  0.19114  0.43811  0.84935  1.0000
  C   C677      1.0  0.15494  0.33627  0.92200  1.0000
  H   H789      1.0  0.03853  0.11198  0.78605  1.0000
  C   C678      1.0  0.22981  0.36272  0.86184  1.0000
  H   H790      1.0  0.16629  0.31392  0.91678  1.0000
  H   H791      1.0  0.00351  0.38649  0.81903  1.0000
  H   H792      1.0  0.04699  0.19445  0.82320  1.0000
  H   H793      1.0  0.10813  0.09439  0.88075  1.0000
  C   C679      1.0  0.14855  0.31858  0.95021  1.0000
  H   H794      1.0  0.08007  0.18854  0.80863  1.0000
  H   H795      1.0  0.06770  0.18200  0.81895  1.0000
  H   H796      1.0  0.03840  0.13046  0.86372  1.0000
  C   C680      1.0  0.10483  0.13272  0.80846  1.0000
  C   C681      1.0  0.11496  0.08568  0.87969  1.0000
  H   H797      1.0  0.14824  0.17832  0.80759  1.0000
  H   H798      1.0  0.04230  0.11021  0.86293  1.0000
  H   H799      1.0  0.14442  0.04086  0.81108  1.0000
  C   C682      1.0  0.05018  0.11164  0.85512  1.0000
  C   C683      1.0  0.13713  0.06861  0.86897  1.0000
  N   N46       1.0  0.06072  0.11324  0.85910  1.0000
  N   N47       1.0  0.06213  0.20068  0.80962  1.0000
  H   H800      1.0  0.21302  0.44798  0.86506  1.0000
  C   C684      1.0  0.21569  0.42983  0.83866  1.0000
  H   H801      1.0  0.13078  0.18039  0.78442  1.0000
  H   H802      1.0  0.12471  0.17878  0.80054  1.0000
  H   H803      1.0  0.11379  0.08337  0.87147  1.0000
  H   H804      1.0  0.01423  0.38697  0.86576  1.0000
  C   C685      1.0  0.14408  0.38832  0.96831  1.0000
  H   H805      1.0  0.08865  0.02896  0.85421  1.0000
  H   H806      1.0  0.21990  0.45967  0.83158  1.0000
  H   H807      1.0  0.15865  0.04297  0.87647  1.0000
  C   C686      1.0  0.22631  0.36137  0.87474  1.0000
  C   C687      1.0  0.14513  0.05724  0.86841  1.0000
  C   C688      1.0  0.06499  0.13771  0.87286  1.0000
  H   H808      1.0  0.06845  0.12266  0.84117  1.0000
  H   H809      1.0  0.13907  0.14918  0.81529  1.0000
  H   H810      1.0  0.13404  0.12675  0.79420  1.0000
  H   H811      1.0  0.07935  0.13772  0.78859  1.0000
  H   H812      1.0  0.17615  0.33616  0.92585  1.0000
  C   C689      1.0  0.07088  0.11427  0.84818  1.0000
  H   H813      1.0  0.07343  0.19294  0.82290  1.0000
  C   C690      1.0  0.09518  0.10642  0.78821  1.0000
  H   H814      1.0  0.15338  0.16193  0.81051  1.0000
  H   H815      1.0  0.11156  0.13317  0.82378  1.0000
  H   H816      1.0  0.04374  0.21053  0.81584  1.0000
  C   C691      1.0  0.17507  0.32686  0.92611  1.0000
  H   H817      1.0  0.19736  0.45042  0.85571  1.0000
  H   H818      1.0  0.14559  0.05257  0.86132  1.0000
  H   H819      1.0  0.09871  0.06163  0.78907  1.0000
  H   H820      1.0  0.16439  0.34150  0.94249  1.0000
  C   C692      1.0  0.10613  0.17407  0.79338  1.0000
  C   C693      1.0  0.01507  0.36291  0.84032  1.0000
  H   H821      1.0  0.23259  0.36323  0.89027  1.0000
  H   H822      1.0  0.10253  0.01123  0.85517  1.0000
  H   H823      1.0  0.05268  0.10352  0.85085  1.0000
  C   C694      1.0  0.06461  0.10198  0.86809  1.0000
  C   C695      1.0  0.06701  0.21206  0.80561  1.0000
  C   C696      1.0  0.15342  0.33584  0.95996  1.0000
  H   H824      1.0  0.20550  0.34293  0.88442  1.0000
  C   C697      1.0  0.11505  0.04959  0.79432  1.0000
  H   H825      1.0  0.04063  0.19609  0.80616  1.0000
  H   H826      1.0  0.08285  0.06040  0.82548  1.0000
  H   H827      1.0  0.06806  0.21511  0.81351  1.0000
  H   H828      1.0  0.13506  0.18876  0.79290  1.0000
  H   H829      1.0  0.03492  0.14853  0.87181  1.0000
  H   H830      1.0  0.14588  0.31204  0.94692  1.0000
  N   N48       1.0  0.22231  0.44473  0.84698  1.0000
  C   C698      1.0  0.11104  0.07163  0.79087  1.0000
  H   H831      1.0  0.20443  0.36801  0.86746  1.0000
  H   H832      1.0  0.21964  0.34935  0.89887  1.0000
  H   H833      1.0  0.17948  0.32545  0.91666  1.0000
  C   C699      1.0  0.23502  0.43923  0.84126  1.0000
  H   H834      1.0  0.11228  0.12534  0.80578  1.0000
  H   H835      1.0  0.02827  0.36348  0.85019  1.0000
  H   H836      1.0  0.13451  0.37036  0.96742  1.0000
  C   C700      1.0  0.14578  0.16961  0.80781  1.0000
  C   C701      1.0  0.12228  0.07089  0.79361  1.0000
  H   H837      1.0  0.22203  0.33863  0.88199  1.0000
  H   H838      1.0  0.20454  0.37650  0.87826  1.0000
  H   H839      1.0  0.08454  0.99708  0.85346  1.0000
  C   C702      1.0  0.15674  0.32614  0.94262  1.0000
  H   H840      1.0  0.15500  0.34272  0.96373  1.0000
  H   H841      1.0  0.18162  0.44120  0.85359  1.0000
  C   C703      1.0  0.14303  0.31968  0.96226  1.0000
  C   C704      1.0  0.06967  0.19594  0.78866  1.0000
  S   S189      1.0  0.02123  0.17486  0.79124  1.0000
  H   H842      1.0  0.13426  0.06041  0.81810  1.0000
  C   C705      1.0  0.22001  0.45804  0.84144  1.0000
  H   H843      1.0  0.16595  0.30608  0.93248  1.0000
  C   C706      1.0  0.19429  0.42880  0.84290  1.0000
  H   H844      1.0  0.06424  0.14658  0.79019  1.0000
  H   H845      1.0  0.14553  0.07561  0.78631  1.0000
  H   H846      1.0  0.23499  0.39529  0.84237  1.0000
  H   H847      1.0  0.24200  0.44335  0.84277  1.0000
  C   C707      1.0  0.13029  0.05943  0.79681  1.0000
  C   C708      1.0  0.24083  0.36613  0.85521  1.0000
  H   H848      1.0  0.15836  0.04620  0.80480  1.0000
  H   H849      1.0  0.06086  0.21970  0.80057  1.0000
  C   C709      1.0  0.14949  0.04628  0.80273  1.0000
  C   C710      1.0  0.10354  0.18643  0.78756  1.0000
  H   H850      1.0  0.13174  0.03959  0.79935  1.0000
  H   H851      1.0  0.05145  0.12396  0.78955  1.0000
  H   H852      1.0  0.01603  0.15063  0.78338  1.0000
  C   C711      1.0  0.15466  0.17156  0.78642  1.0000
  H   H853      1.0  0.23629  0.44054  0.83120  1.0000
  C   C712      1.0  0.13311  0.17976  0.79327  1.0000
  H   H854      1.0  0.22389  0.36143  0.85672  1.0000
  H   H855      1.0  0.14900  0.06436  0.81240  1.0000
  C   C713      1.0  0.14546  0.32828  0.96713  1.0000
  H   H856      1.0  0.10514  0.08052  0.78838  1.0000
  C   C714      1.0  0.10910  0.16493  0.78661  1.0000
  H   H857      1.0  0.16126  0.37474  0.96558  1.0000
  H   H858      1.0  0.03814  0.19057  0.78852  1.0000
  C   C715      1.0  0.13720  0.39665  0.97595  1.0000
  H   H859      1.0  0.10607  0.37779  0.97783  1.0000
  C   C716      1.0  0.13938  0.15565  0.78469  1.0000
  C   C717      1.0  0.00077  0.37677  0.86699  1.0000
  S   S190      1.0  0.99924  0.36128  0.82720  1.0000
  H   H860      1.0  0.04392  0.15685  0.78580  1.0000
  S   S191      1.0  0.11696  0.35150  0.97985  1.0000
  H   H861      1.0  0.06464  0.11372  0.78310  1.0000
  H   H862      1.0  0.08978  0.15535  0.78120  1.0000
  H   H863      1.0  0.08723  0.54433  0.06745  1.0000
  S   S192      1.0  0.23224  0.90626  0.09561  1.0000
  C   C718      1.0  0.14927  0.55621  0.12130  1.0000
  Fe  Fe96      1.0  0.13203  0.76260  0.08507  1.0000
  S   S193      1.0  0.13394  0.77635  0.09457  1.0000
  S   S194      1.0  0.13737  0.74222  0.09275  1.0000
  Fe  Fe97      1.0  0.11971  0.78242  0.06639  1.0000
  S   S195      1.0  0.12021  0.79780  0.07429  1.0000
  S   S196      1.0  0.11008  0.78449  0.05141  1.0000
  Fe  Fe98      1.0  0.13939  0.78755  0.07568  1.0000
  S   S197      1.0  0.15406  0.79877  0.06811  1.0000
  Fe  Fe99      1.0  0.11470  0.78546  0.09237  1.0000
  S   S198      1.0  0.09953  0.79020  0.10807  1.0000
  S   S199      1.0  0.13934  0.77292  0.06627  1.0000
  S   S200      1.0  0.11240  0.77096  0.08439  1.0000
  Fe  Fe100     1.0  0.14298  0.85633  0.98311  1.0000
  S   S201      1.0  0.14632  0.86440  0.99721  1.0000
  Fe  Fe101     1.0  0.12820  0.83914  0.00220  1.0000
  S   S202      1.0  0.12988  0.84581  0.01783  1.0000
  S   S203      1.0  0.11746  0.82534  0.00319  1.0000
  Fe  Fe102     1.0  0.12650  0.86444  0.00572  1.0000
  S   S204      1.0  0.11390  0.88018  0.01337  1.0000
  Fe  Fe103     1.0  0.14950  0.84509  0.00815  1.0000
  S   S205      1.0  0.16254  0.83601  0.02077  1.0000
  S   S206      1.0  0.12285  0.85791  0.99093  1.0000
  H   H864      1.0  0.10154  0.50462  0.11144  1.0000
  Fe  Fe104     1.0  0.08302  0.88180  0.08347  1.0000
  S   S207      1.0  0.09213  0.86240  0.08217  1.0000
  S   S208      1.0  0.09395  0.89661  0.07684  1.0000
  Fe  Fe105     1.0  0.05717  0.87605  0.09333  1.0000
  S   S209      1.0  0.06453  0.85617  0.09276  1.0000
  S   S210      1.0  0.03692  0.88389  0.10008  1.0000
  Fe  Fe106     1.0  0.07968  0.85775  0.10040  1.0000
  S   S211      1.0  0.08482  0.84400  0.11682  1.0000
  Fe  Fe107     1.0  0.07601  0.86311  0.07461  1.0000
  S   S212      1.0  0.07805  0.85514  0.05848  1.0000
  S   S213      1.0  0.07162  0.87717  0.10236  1.0000
  S   S214      1.0  0.06764  0.88292  0.07452  1.0000
  Fe  Fe108     1.0  0.18794  0.86543  0.08679  1.0000
  S   S215      1.0  0.18935  0.85006  0.07758  1.0000
  S   S216      1.0  0.20322  0.86613  0.09568  1.0000
  Fe  Fe109     1.0  0.16113  0.87599  0.08454  1.0000
  S   S217      1.0  0.16025  0.86192  0.07512  1.0000
  S   S218      1.0  0.14557  0.89166  0.08904  1.0000
  Fe  Fe110     1.0  0.17043  0.84851  0.08880  1.0000
  S   S219      1.0  0.16433  0.83083  0.09898  1.0000
  Fe  Fe111     1.0  0.17901  0.86448  0.06450  1.0000
  S   S220      1.0  0.18431  0.86635  0.04406  1.0000
  S   S221      1.0  0.16983  0.86246  0.09921  1.0000
  S   S222      1.0  0.17912  0.87993  0.07268  1.0000
  H   H865      1.0  0.17500  0.79745  0.01596  1.0000
  S   S223      1.0  0.12795  0.51529  0.07082  1.0000
  C   C719      1.0  0.08363  0.54636  0.08603  1.0000
  S   S224      1.0  0.01585  0.61906  0.12169  1.0000
  Fe  Fe112     1.0  0.01670  0.63149  0.14947  1.0000
  S   S225      1.0  0.03237  0.61814  0.14120  1.0000
  H   H866      1.0  0.15819  0.90880  0.11869  1.0000
  Fe  Fe113     1.0  0.02858  0.62987  0.12335  1.0000
  S   S226      1.0  0.04578  0.63392  0.10999  1.0000
  Fe  Fe114     1.0  0.01815  0.60874  0.14055  1.0000
  S   S227      1.0  0.01972  0.58832  0.14569  1.0000
  S   S228      1.0  0.01350  0.64388  0.13153  1.0000
  H   H867      1.0  0.08907  0.61904  0.13458  1.0000
  H   H868      1.0  0.23322  0.88044  0.10853  1.0000
  C   C720      1.0  0.14850  0.78272  0.03137  1.0000
  Fe  Fe115     1.0  0.10436  0.57242  0.13519  1.0000
  S   S229      1.0  0.11756  0.57787  0.11768  1.0000
  S   S230      1.0  0.10699  0.57110  0.15395  1.0000
  Fe  Fe116     1.0  0.08770  0.56655  0.12236  1.0000
  S   S231      1.0  0.09939  0.57158  0.10373  1.0000
  S   S232      1.0  0.07183  0.55776  0.12506  1.0000
  Fe  Fe117     1.0  0.11531  0.56131  0.11255  1.0000
  S   S233      1.0  0.13145  0.54642  0.10673  1.0000
  Fe  Fe118     1.0  0.10051  0.58761  0.11059  1.0000
  S   S234      1.0  0.09704  0.60703  0.09976  1.0000
  S   S235      1.0  0.10346  0.55514  0.13072  1.0000
  S   S236      1.0  0.08744  0.58335  0.12853  1.0000
  Fe  Fe119     1.0  0.10192  0.66607  0.11463  1.0000
  S   S237      1.0  0.08453  0.67061  0.12844  1.0000
  S   S238      1.0  0.11253  0.64644  0.11783  1.0000
  Fe  Fe120     1.0  0.10040  0.69256  0.10051  1.0000
  S   S239      1.0  0.08268  0.69896  0.11294  1.0000
  S   S240      1.0  0.10724  0.70747  0.08505  1.0000
  Fe  Fe121     1.0  0.09160  0.68691  0.12806  1.0000
  S   S241      1.0  0.08989  0.69578  0.14355  1.0000
  Fe  Fe122     1.0  0.07724  0.68218  0.11208  1.0000
  S   S242      1.0  0.05769  0.68343  0.11156  1.0000
  S   S243      1.0  0.10977  0.68145  0.11577  1.0000
  S   S244      1.0  0.09414  0.67664  0.09814  1.0000
  H   H869      1.0  0.15827  0.54165  0.13969  1.0000
  C   C721      1.0  0.10118  0.61792  0.10503  1.0000
  C   C722      1.0  0.10912  0.61426  0.11313  1.0000
  C   C723      1.0  0.11258  0.62311  0.11694  1.0000
  C   C724      1.0  0.10791  0.63564  0.11289  1.0000
  C   C725      1.0  0.09978  0.63930  0.10498  1.0000
  C   C726      1.0  0.09651  0.63045  0.10097  1.0000
  H   H870      1.0  0.11278  0.60464  0.11629  1.0000
  H   H871      1.0  0.11889  0.62023  0.12303  1.0000
  H   H872      1.0  0.09619  0.64894  0.10174  1.0000
  H   H873      1.0  0.09039  0.63335  0.09468  1.0000
  H   H874      1.0  0.17508  0.80773  0.02512  1.0000
  C   C727      1.0  0.09613  0.52837  0.07882  1.0000
  H   H875      1.0  0.16243  0.91641  0.10295  1.0000
  H   H876      1.0  0.15280  0.90576  0.10687  1.0000
  C   C728      1.0  0.13446  0.55282  0.14009  1.0000
  C   C729      1.0  0.16911  0.80443  0.02122  1.0000
  H   H877      1.0  0.19242  0.83396  0.03082  1.0000
  C   C730      1.0  0.07418  0.81403  0.03618  1.0000
  H   H878      1.0  0.21340  0.79486  0.06905  1.0000
  N   N49       1.0  0.15931  0.79934  0.03087  1.0000
  H   H879      1.0  0.03572  0.68540  0.12987  1.0000
  C   C731      1.0  0.10596  0.59598  0.14866  1.0000
  C   C732      1.0  0.10578  0.58516  0.15766  1.0000
  H   H880      1.0  0.18665  0.88155  0.12354  1.0000
  H   H881      1.0  0.17139  0.78214  0.03667  1.0000
  H   H882      1.0  0.02791  0.59026  0.11338  1.0000
  H   H883      1.0  0.10624  0.59588  0.13932  1.0000
  H   H884      1.0  0.16794  0.89554  0.09104  1.0000
  H   H885      1.0  0.15291  0.55155  0.15028  1.0000
  C   C733      1.0  0.14779  0.80067  0.01485  1.0000
  C   C734      1.0  0.11635  0.68283  0.16076  1.0000
  C   C735      1.0  0.16542  0.79021  0.04030  1.0000
  C   C736      1.0  0.10566  0.74583  0.11697  1.0000
  H   H886      1.0  0.13143  0.78149  0.01228  1.0000
  C   C737      1.0  0.04913  0.64766  0.11039  1.0000
  C   C738      1.0  0.06129  0.64824  0.10948  1.0000
  C   C739      1.0  0.06403  0.65919  0.10988  1.0000
  C   C740      1.0  0.05466  0.66967  0.11075  1.0000
  C   C741      1.0  0.04256  0.66912  0.11140  1.0000
  C   C742      1.0  0.03976  0.65809  0.11143  1.0000
  H   H887      1.0  0.06858  0.64021  0.10855  1.0000
  H   H888      1.0  0.07340  0.65959  0.10932  1.0000
  H   H889      1.0  0.03532  0.67726  0.11182  1.0000
  H   H890      1.0  0.03042  0.65776  0.11182  1.0000
  C   C743      1.0  0.03441  0.57995  0.14033  1.0000
  C   C744      1.0  0.03604  0.56742  0.14091  1.0000
  C   C745      1.0  0.04759  0.56065  0.13628  1.0000
  C   C746      1.0  0.05758  0.56634  0.13121  1.0000
  C   C747      1.0  0.05599  0.57885  0.13072  1.0000
  C   C748      1.0  0.04440  0.58567  0.13521  1.0000
  H   H891      1.0  0.02835  0.56296  0.14486  1.0000
  H   H892      1.0  0.04877  0.55098  0.13665  1.0000
  H   H893      1.0  0.06358  0.58334  0.12657  1.0000
  H   H894      1.0  0.04320  0.59535  0.13456  1.0000
  C   C749      1.0  0.12922  0.52391  0.08069  1.0000
  C   C750      1.0  0.13648  0.51877  0.08942  1.0000
  C   C751      1.0  0.13728  0.52584  0.09719  1.0000
  C   C752      1.0  0.13061  0.53800  0.09648  1.0000
  C   C753      1.0  0.12325  0.54310  0.08783  1.0000
  C   C754      1.0  0.12272  0.53614  0.07985  1.0000
  H   H895      1.0  0.14164  0.50941  0.09008  1.0000
  H   H896      1.0  0.14300  0.52182  0.10383  1.0000
  H   H897      1.0  0.11811  0.55247  0.08716  1.0000
  H   H898      1.0  0.11717  0.54022  0.07306  1.0000
  C   C755      1.0  0.02649  0.87422  0.10334  1.0000
  C   C756      1.0  0.01434  0.87784  0.10957  1.0000
  C   C757      1.0  0.00610  0.86993  0.11283  1.0000
  C   C758      1.0  0.01000  0.85840  0.10982  1.0000
  C   C759      1.0  0.02199  0.85498  0.10325  1.0000
  C   C760      1.0  0.03019  0.86285  0.10001  1.0000
  H   H899      1.0  0.01139  0.88666  0.11213  1.0000
  H   H900      1.0  0.05953  0.56397  0.10083  1.0000
  H   H901      1.0  0.02501  0.84614  0.10074  1.0000
  H   H902      1.0  0.03934  0.86011  0.09487  1.0000
  C   C761      1.0  0.10830  0.89457  0.08053  1.0000
  C   C762      1.0  0.11455  0.88317  0.08619  1.0000
  C   C763      1.0  0.12627  0.88199  0.08842  1.0000
  C   C764      1.0  0.13150  0.89232  0.08542  1.0000
  C   C765      1.0  0.12511  0.90367  0.08001  1.0000
  C   C766      1.0  0.11369  0.90475  0.07739  1.0000
  H   H903      1.0  0.11032  0.87533  0.08889  1.0000
  H   H904      1.0  0.13105  0.87322  0.09284  1.0000
  H   H905      1.0  0.12901  0.91170  0.07777  1.0000
  H   H906      1.0  0.10892  0.91357  0.07307  1.0000
  C   C767      1.0  0.16662  0.84605  0.02717  1.0000
  C   C768      1.0  0.17317  0.85486  0.01973  1.0000
  C   C769      1.0  0.17826  0.86134  0.02501  1.0000
  C   C770      1.0  0.17668  0.85915  0.03774  1.0000
  C   C771      1.0  0.16961  0.85076  0.04518  1.0000
  C   C772      1.0  0.16463  0.84420  0.03990  1.0000
  H   H907      1.0  0.17484  0.85626  0.00989  1.0000
  H   H908      1.0  0.18372  0.86783  0.01921  1.0000
  H   H909      1.0  0.16842  0.84896  0.05497  1.0000
  H   H910      1.0  0.15952  0.83744  0.04566  1.0000
  C   C773      1.0  0.10282  0.87400  0.02525  1.0000
  C   C774      1.0  0.10027  0.86284  0.02533  1.0000
  C   C775      1.0  0.09238  0.85723  0.03543  1.0000
  C   C776      1.0  0.08709  0.86273  0.04549  1.0000
  C   C777      1.0  0.08934  0.87406  0.04523  1.0000
  C   C778      1.0  0.09713  0.87976  0.03507  1.0000
  H   H911      1.0  0.10443  0.85847  0.01765  1.0000
  H   H912      1.0  0.09064  0.84849  0.03553  1.0000
  H   H913      1.0  0.08529  0.87839  0.05293  1.0000
  H   H914      1.0  0.09905  0.88840  0.03503  1.0000
  C   C779      1.0  0.11187  0.79644  0.03852  1.0000
  C   C780      1.0  0.11825  0.80540  0.03774  1.0000
  C   C781      1.0  0.11967  0.81467  0.02708  1.0000
  C   C782      1.0  0.11480  0.81485  0.01720  1.0000
  C   C783      1.0  0.10826  0.80601  0.01814  1.0000
  C   C784      1.0  0.10681  0.79685  0.02876  1.0000
  H   H915      1.0  0.12217  0.80509  0.04528  1.0000
  H   H916      1.0  0.12477  0.82144  0.02639  1.0000
  H   H917      1.0  0.10450  0.80609  0.01056  1.0000
  H   H918      1.0  0.10190  0.78992  0.02933  1.0000
  C   C785      1.0  0.15549  0.80832  0.07690  1.0000
  C   C786      1.0  0.15226  0.80554  0.08967  1.0000
  C   C787      1.0  0.15465  0.81273  0.09641  1.0000
  C   C788      1.0  0.16006  0.82284  0.09041  1.0000
  C   C789      1.0  0.16285  0.82587  0.07764  1.0000
  C   C790      1.0  0.16068  0.81855  0.07093  1.0000
  H   H919      1.0  0.14826  0.79765  0.09437  1.0000
  H   H920      1.0  0.15246  0.81035  0.10630  1.0000
  H   H921      1.0  0.16708  0.83358  0.07295  1.0000
  H   H922      1.0  0.16317  0.82072  0.06109  1.0000
  C   C791      1.0  0.09632  0.80518  0.11027  1.0000
  C   C792      1.0  0.09940  0.81489  0.10068  1.0000
  C   C793      1.0  0.09579  0.82694  0.10255  1.0000
  C   C794      1.0  0.08964  0.82912  0.11417  1.0000
  C   C795      1.0  0.08699  0.81934  0.12381  1.0000
  C   C796      1.0  0.09008  0.80743  0.12180  1.0000
  H   H923      1.0  0.10445  0.81314  0.09185  1.0000
  H   H924      1.0  0.09798  0.83450  0.09512  1.0000
  H   H925      1.0  0.08232  0.82100  0.13281  1.0000
  H   H926      1.0  0.08775  0.79992  0.12923  1.0000
  C   C797      1.0  0.12944  0.73244  0.09010  1.0000
  C   C798      1.0  0.12236  0.73645  0.08119  1.0000
  C   C799      1.0  0.11587  0.72858  0.07952  1.0000
  C   C800      1.0  0.11607  0.71680  0.08701  1.0000
  C   C801      1.0  0.12316  0.71278  0.09591  1.0000
  C   C802      1.0  0.12999  0.72051  0.09731  1.0000
  H   H927      1.0  0.12195  0.74558  0.07551  1.0000
  H   H928      1.0  0.11047  0.73171  0.07255  1.0000
  H   H929      1.0  0.12353  0.70366  0.10160  1.0000
  H   H930      1.0  0.13555  0.71732  0.10413  1.0000
  C   C803      1.0  0.22481  0.89472  0.09527  1.0000
  C   C804      1.0  0.21629  0.89770  0.08771  1.0000
  C   C805      1.0  0.20974  0.88909  0.08755  1.0000
  C   C806      1.0  0.21139  0.87741  0.09520  1.0000
  C   C807      1.0  0.22002  0.87439  0.10266  1.0000
  C   C808      1.0  0.22677  0.88291  0.10262  1.0000
  H   H931      1.0  0.21470  0.90679  0.08197  1.0000
  H   H932      1.0  0.20342  0.89154  0.08151  1.0000
  H   H933      1.0  0.22147  0.86538  0.10856  1.0000
  H   H934      1.0  0.03759  0.56913  0.11065  1.0000
  N   N50       1.0  0.12840  0.86609  0.05323  1.0000
  C   C809      1.0  0.11594  0.87371  0.05652  1.0000
  C   C810      1.0  0.13750  0.87188  0.05515  1.0000
  C   C811      1.0  0.13089  0.86627  0.03997  1.0000
  C   C812      1.0  0.12901  0.85361  0.06109  1.0000
  C   C813      1.0  0.12662  0.85197  0.07400  1.0000
  C   C814      1.0  0.13172  0.84285  0.05635  1.0000
  C   C815      1.0  0.12661  0.84039  0.08169  1.0000
  C   C816      1.0  0.13173  0.83128  0.06414  1.0000
  C   C817      1.0  0.12906  0.83008  0.07677  1.0000
  H   H935      1.0  0.11475  0.88296  0.05036  1.0000
  H   H936      1.0  0.10879  0.86918  0.05611  1.0000
  H   H937      1.0  0.11384  0.87535  0.06590  1.0000
  H   H938      1.0  0.13755  0.88114  0.04911  1.0000
  H   H939      1.0  0.14695  0.86618  0.05326  1.0000
  H   H940      1.0  0.13557  0.87321  0.06466  1.0000
  H   H941      1.0  0.14032  0.86111  0.03670  1.0000
  H   H942      1.0  0.12407  0.86242  0.03783  1.0000
  H   H943      1.0  0.13018  0.87578  0.03431  1.0000
  H   H944      1.0  0.12467  0.85968  0.07827  1.0000
  H   H945      1.0  0.13392  0.84310  0.04666  1.0000
  H   H946      1.0  0.12474  0.83939  0.09153  1.0000
  H   H947      1.0  0.13397  0.82315  0.06040  1.0000
  H   H948      1.0  0.12911  0.82110  0.08278  1.0000
  H   H949      1.0  0.21715  0.80780  0.07172  1.0000
  H   H950      1.0  0.20187  0.82181  0.08280  1.0000
  H   H951      1.0  0.20653  0.82855  0.06256  1.0000
  H   H952      1.0  0.20367  0.84042  0.04236  1.0000
  N   N51       1.0  0.04293  0.85159  0.13332  1.0000
  C   C818      1.0  0.04881  0.84712  0.14402  1.0000
  C   C819      1.0  0.05007  0.85990  0.12379  1.0000
  C   C820      1.0  0.03046  0.85896  0.13721  1.0000
  C   C821      1.0  0.04288  0.84105  0.12845  1.0000
  C   C822      1.0  0.05411  0.83330  0.12409  1.0000
  C   C823      1.0  0.05365  0.68314  0.16555  1.0000
  H   H953      1.0  0.22486  0.86343  0.07376  1.0000
  H   H954      1.0  0.10905  0.53446  0.11042  1.0000
  C   C824      1.0  0.08413  0.52162  0.12133  1.0000
  H   H955      1.0  0.05865  0.84254  0.14152  1.0000
  H   H956      1.0  0.04868  0.85479  0.14814  1.0000
  H   H957      1.0  0.04406  0.84039  0.15121  1.0000
  H   H958      1.0  0.06000  0.85569  0.12159  1.0000
  H   H959      1.0  0.04942  0.86857  0.12655  1.0000
  H   H960      1.0  0.04673  0.86244  0.11518  1.0000
  H   H961      1.0  0.02466  0.85340  0.14469  1.0000
  H   H962      1.0  0.03080  0.86690  0.14067  1.0000
  H   H963      1.0  0.02574  0.86290  0.12940  1.0000
  H   H964      1.0  0.06279  0.83498  0.12423  1.0000
  S   S245      1.0  0.00242  0.62114  0.15044  1.0000
  H   H965      1.0  0.06527  0.68652  0.14768  1.0000
  H   H966      1.0  0.02289  0.84358  0.13070  1.0000
  N   N52       1.0  0.12276  0.64971  0.14763  1.0000
  C   C825      1.0  0.15096  0.80934  0.03664  1.0000
  H   H967      1.0  0.14648  0.81681  0.02992  1.0000
  H   H968      1.0  0.15595  0.81363  0.04076  1.0000
  H   H969      1.0  0.14358  0.80586  0.04410  1.0000
  H   H970      1.0  0.15096  0.77719  0.03978  1.0000
  H   H971      1.0  0.13815  0.76981  0.03134  1.0000
  N   N53       1.0  0.06401  0.60448  0.09446  1.0000
  C   C826      1.0  0.06588  0.60722  0.10546  1.0000
  C   C827      1.0  0.07629  0.60105  0.08655  1.0000
  C   C828      1.0  0.05734  0.61582  0.08740  1.0000
  C   C829      1.0  0.05683  0.59475  0.09838  1.0000
  C   C830      1.0  0.04427  0.59727  0.10438  1.0000
  C   C831      1.0  0.06218  0.58244  0.09717  1.0000
  C   C832      1.0  0.03738  0.58817  0.10850  1.0000
  C   C833      1.0  0.05520  0.57339  0.10139  1.0000
  C   C834      1.0  0.04284  0.57626  0.10700  1.0000
  H   H972      1.0  0.07021  0.61529  0.10310  1.0000
  H   H973      1.0  0.05710  0.60927  0.11215  1.0000
  H   H974      1.0  0.07194  0.59934  0.11031  1.0000
  H   H975      1.0  0.07556  0.59831  0.07836  1.0000
  H   H976      1.0  0.08250  0.59351  0.09159  1.0000
  H   H977      1.0  0.08116  0.60880  0.08326  1.0000
  H   H978      1.0  0.04856  0.61998  0.09293  1.0000
  H   H979      1.0  0.06272  0.62317  0.08410  1.0000
  H   H980      1.0  0.05525  0.61400  0.07935  1.0000
  H   H981      1.0  0.03976  0.60618  0.10637  1.0000
  H   H982      1.0  0.07180  0.57950  0.09334  1.0000
  H   H983      1.0  0.15107  0.54633  0.12107  1.0000
  C   C835      1.0  0.14118  0.77826  0.02653  1.0000
  H   H984      1.0  0.16539  0.81263  0.01466  1.0000
  H   H985      1.0  0.14628  0.57939  0.11490  1.0000
  N   N54       1.0  0.19778  0.80797  0.07597  1.0000
  C   C836      1.0  0.19471  0.81649  0.08439  1.0000
  C   C837      1.0  0.20146  0.82538  0.05793  1.0000
  C   C838      1.0  0.20006  0.83214  0.04627  1.0000
  H   H986      1.0  0.19345  0.81171  0.09420  1.0000
  H   H987      1.0  0.18600  0.82324  0.08332  1.0000
  H   H988      1.0  0.13605  0.54315  0.13923  1.0000
  C   C839      1.0  0.15211  0.79407  0.02561  1.0000
  H   H989      1.0  0.17118  0.79424  0.04376  1.0000
  H   H990      1.0  0.15864  0.78695  0.04856  1.0000
  H   H991      1.0  0.21239  0.79606  0.08444  1.0000
  H   H992      1.0  0.13155  0.55285  0.15001  1.0000
  C   C840      1.0  0.21075  0.80138  0.07528  1.0000
  C   C841      1.0  0.13737  0.78484  0.01580  1.0000
  C   C842      1.0  0.19620  0.81493  0.06356  1.0000
  C   C843      1.0  0.15553  0.55147  0.14037  1.0000
  C   C844      1.0  0.14074  0.79598  0.00992  1.0000
  H   H993      1.0  0.14939  0.80973  0.01039  1.0000
  C   C845      1.0  0.19368  0.82855  0.03976  1.0000
  H   H994      1.0  0.18005  0.80316  0.08192  1.0000
  H   H995      1.0  0.12645  0.55805  0.13602  1.0000
  H   H996      1.0  0.16378  0.55557  0.13636  1.0000
  N   N55       1.0  0.14540  0.55824  0.13400  1.0000
  H   H997      1.0  0.11592  0.75967  0.11425  1.0000
  C   C846      1.0  0.18993  0.79876  0.08143  1.0000
  C   C847      1.0  0.18976  0.81149  0.05663  1.0000
  H   H998      1.0  0.14196  0.56088  0.11603  1.0000
  H   H999      1.0  0.15782  0.55950  0.11629  1.0000
  C   C848      1.0  0.18849  0.81830  0.04494  1.0000
  H   H1000     1.0  0.19083  0.79409  0.09096  1.0000
  H   H1001     1.0  0.12399  0.69104  0.14233  1.0000
  H   H1002     1.0  0.19238  0.79138  0.07622  1.0000
  C   C849      1.0  0.14248  0.57135  0.13463  1.0000
  H   H1003     1.0  0.07712  0.82334  0.08466  1.0000
  H   H1004     1.0  0.09882  0.82152  0.07256  1.0000
  H   H1005     1.0  0.18527  0.80382  0.06017  1.0000
  H   H1006     1.0  0.07189  0.83246  0.07135  1.0000
  H   H1007     1.0  0.09318  0.83075  0.05954  1.0000
  H   H1008     1.0  0.08114  0.63338  0.12682  1.0000
  H   H1009     1.0  0.18314  0.81587  0.03997  1.0000
  C   C850      1.0  0.07445  0.82283  0.07632  1.0000
  C   C851      1.0  0.09532  0.82112  0.06470  1.0000
  H   H1010     1.0  0.06285  0.58641  0.15150  1.0000
  H   H1011     1.0  0.06604  0.81896  0.07928  1.0000
  H   H1012     1.0  0.09583  0.79709  0.07175  1.0000
  H   H1013     1.0  0.10292  0.81599  0.05861  1.0000
  C   C852      1.0  0.12182  0.68270  0.14855  1.0000
  H   H1014     1.0  0.99686  0.87263  0.11794  1.0000
  H   H1015     1.0  0.01266  0.68012  0.15918  1.0000
  H   H1016     1.0  0.17533  0.87761  0.11288  1.0000
  N   N56       1.0  0.08451  0.81533  0.06874  1.0000
  C   C853      1.0  0.08802  0.80313  0.07673  1.0000
  H   H1017     1.0  0.13731  0.80133  0.00186  1.0000
  H   H1018     1.0  0.05224  0.68107  0.13759  1.0000
  H   H1019     1.0  0.09099  0.80386  0.08480  1.0000
  H   H1020     1.0  0.08020  0.79838  0.08040  1.0000
  S   S246      1.0  0.14818  0.83683  0.99328  1.0000
  C   C854      1.0  0.16088  0.90754  0.10910  1.0000
  H   H1021     1.0  0.11245  0.74161  0.11005  1.0000
  C   C855      1.0  0.06570  0.59280  0.15490  1.0000
  H   H1022     1.0  0.06395  0.60688  0.13899  1.0000
  C   C856      1.0  0.08058  0.81469  0.05787  1.0000
  H   H1023     1.0  0.07684  0.83447  0.05069  1.0000
  H   H1024     1.0  0.15991  0.88461  0.11149  1.0000
  C   C857      1.0  0.07702  0.82558  0.04929  1.0000
  C   C858      1.0  0.08054  0.80344  0.05519  1.0000
  H   H1025     1.0  0.08329  0.79463  0.06100  1.0000
  H   H1026     1.0  0.14077  0.60056  0.11687  1.0000
  H   H1027     1.0  0.22864  0.84588  0.09079  1.0000
  C   C859      1.0  0.08587  0.54097  0.09774  1.0000
  C   C860      1.0  0.12099  0.66104  0.15204  1.0000
  H   H1028     1.0  0.19947  0.92117  0.10515  1.0000
  H   H1029     1.0  0.10303  0.52805  0.12605  1.0000
  H   H1030     1.0  0.10315  0.71713  0.13305  1.0000
  C   C861      1.0  0.06634  0.60456  0.14782  1.0000
  H   H1031     1.0  0.05127  0.63195  0.14975  1.0000
  H   H1032     1.0  0.05597  0.62739  0.13533  1.0000
  H   H1033     1.0  0.07795  0.55548  0.08426  1.0000
  C   C862      1.0  0.03228  0.82818  0.12305  1.0000
  H   H1034     1.0  0.02377  0.82635  0.12244  1.0000
  C   C863      1.0  0.13039  0.65007  0.13506  1.0000
  N   N57       1.0  0.03014  0.67401  0.14768  1.0000
  H   H1035     1.0  0.07311  0.73418  0.12569  1.0000
  H   H1036     1.0  0.16499  0.88556  0.12441  1.0000
  C   C864      1.0  0.05863  0.63183  0.14129  1.0000
  C   C865      1.0  0.06877  0.58922  0.16631  1.0000
  C   C866      1.0  0.14347  0.58102  0.12406  1.0000
  H   H1037     1.0  0.05859  0.64146  0.13619  1.0000
  C   C867      1.0  0.07394  0.82522  0.03860  1.0000
  C   C868      1.0  0.07737  0.80318  0.04450  1.0000
  C   C869      1.0  0.19622  0.91274  0.10938  1.0000
  N   N58       1.0  0.17179  0.89738  0.10748  1.0000
  C   C870      1.0  0.16787  0.88578  0.11443  1.0000
  H   H1038     1.0  0.12315  0.63691  0.16510  1.0000
  C   C871      1.0  0.10780  0.75615  0.11936  1.0000
  H   H1039     1.0  0.18199  0.91776  0.09955  1.0000
  H   H1040     1.0  0.07158  0.83367  0.03207  1.0000
  C   C872      1.0  0.07006  0.61312  0.15202  1.0000
  H   H1041     1.0  0.07590  0.61498  0.16786  1.0000
  C   C873      1.0  0.17556  0.89678  0.09440  1.0000
  H   H1042     1.0  0.17841  0.90523  0.08844  1.0000
  H   H1043     1.0  0.07780  0.79445  0.04251  1.0000
  N   N59       1.0  0.07077  0.62547  0.14427  1.0000
  C   C874      1.0  0.10299  0.71958  0.12315  1.0000
  H   H1044     1.0  0.13719  0.56802  0.15457  1.0000
  H   H1045     1.0  0.11214  0.72134  0.11804  1.0000
  H   H1046     1.0  0.07489  0.64264  0.14412  1.0000
  H   H1047     1.0  0.07203  0.81374  0.02777  1.0000
  H   H1048     1.0  0.08091  0.72407  0.13753  1.0000
  H   H1049     1.0  0.10200  0.71131  0.12067  1.0000
  H   H1050     1.0  0.07994  0.71852  0.12513  1.0000
  H   H1051     1.0  0.07732  0.61940  0.12711  1.0000
  C   C875      1.0  0.18212  0.89950  0.11130  1.0000
  C   C876      1.0  0.18623  0.91067  0.10624  1.0000
  H   H1052     1.0  0.18341  0.88893  0.09291  1.0000
  C   C877      1.0  0.13851  0.57479  0.14613  1.0000
  C   C878      1.0  0.07994  0.62427  0.13272  1.0000
  C   C879      1.0  0.09499  0.74112  0.12328  1.0000
  C   C880      1.0  0.08117  0.72670  0.12753  1.0000
  N   N60       1.0  0.09291  0.73024  0.12044  1.0000
  H   H1053     1.0  0.03065  0.61408  0.17147  1.0000
  C   C881      1.0  0.09945  0.76207  0.12814  1.0000
  H   H1054     1.0  0.10109  0.77019  0.12982  1.0000
  H   H1055     1.0  0.04462  0.87347  0.06266  1.0000
  C   C882      1.0  0.18875  0.89049  0.11956  1.0000
  H   H1056     1.0  0.08310  0.70176  0.16702  1.0000
  H   H1057     1.0  0.13958  0.65178  0.13433  1.0000
  C   C883      1.0  0.07444  0.63342  0.15015  1.0000
  H   H1058     1.0  0.09121  0.72468  0.10474  1.0000
  H   H1059     1.0  0.10701  0.61503  0.14464  1.0000
  C   C884      1.0  0.08384  0.66716  0.17179  1.0000
  C   C885      1.0  0.08892  0.75768  0.13459  1.0000
  C   C886      1.0  0.09272  0.73269  0.10728  1.0000
  H   H1060     1.0  0.10152  0.73460  0.10128  1.0000
  C   C887      1.0  0.10642  0.60678  0.15167  1.0000
  C   C888      1.0  0.08667  0.74735  0.13226  1.0000
  C   C889      1.0  0.19871  0.89269  0.12265  1.0000
  H   H1061     1.0  0.10451  0.64690  0.15691  1.0000
  C   C890      1.0  0.10560  0.59618  0.17279  1.0000
  C   C891      1.0  0.20242  0.90378  0.11759  1.0000
  H   H1062     1.0  0.08539  0.74076  0.10478  1.0000
  H   H1063     1.0  0.07834  0.74446  0.13757  1.0000
  C   C892      1.0  0.07304  0.60918  0.16376  1.0000
  C   C893      1.0  0.08641  0.68671  0.15821  1.0000
  C   C894      1.0  0.10065  0.53211  0.11694  1.0000
  H   H1064     1.0  0.06317  0.81759  0.11611  1.0000
  H   H1065     1.0  0.08243  0.76241  0.14134  1.0000
  C   C895      1.0  0.03191  0.83815  0.12782  1.0000
  H   H1066     1.0  0.08413  0.65754  0.17305  1.0000
  H   H1067     1.0  0.99900  0.60144  0.13796  1.0000
  H   H1068     1.0  0.01938  0.66402  0.16350  1.0000
  H   H1069     1.0  0.20384  0.88559  0.12872  1.0000
  S   S247      1.0  0.02043  0.64013  0.16305  1.0000
  C   C896      1.0  0.08332  0.69210  0.16833  1.0000
  C   C897      1.0  0.01817  0.67186  0.15563  1.0000
  H   H1070     1.0  0.07726  0.53039  0.12199  1.0000
  H   H1071     1.0  0.21042  0.90528  0.11968  1.0000
  C   C898      1.0  0.09353  0.52914  0.10030  1.0000
  H   H1072     1.0  0.01253  0.66934  0.15066  1.0000
  H   H1073     1.0  0.03914  0.65498  0.15092  1.0000
  C   C899      1.0  0.11060  0.64784  0.14764  1.0000
  H   H1074     1.0  0.08909  0.67004  0.15215  1.0000
  C   C900      1.0  0.07237  0.59740  0.17075  1.0000
  C   C901      1.0  0.08665  0.67424  0.15993  1.0000
  H   H1075     1.0  0.11144  0.63935  0.14445  1.0000
  H   H1076     1.0  0.02110  0.68200  0.13248  1.0000
  C   C902      1.0  0.03676  0.66266  0.14323  1.0000
  C   C903      1.0  0.10629  0.60687  0.16373  1.0000
  C   C904      1.0  0.10548  0.58533  0.16973  1.0000
  C   C905      1.0  0.02739  0.68401  0.13708  1.0000
  H   H1077     1.0  0.06775  0.63490  0.15881  1.0000
  H   H1078     1.0  0.13384  0.60584  0.13722  1.0000
  H   H1079     1.0  0.02307  0.69289  0.13994  1.0000
  S   S248      1.0  0.00040  0.84778  0.11446  1.0000
  H   H1080     1.0  0.03111  0.65962  0.13868  1.0000
  H   H1081     1.0  0.99712  0.86267  0.09163  1.0000
  C   C906      1.0  0.03799  0.67725  0.15396  1.0000
  C   C907      1.0  0.03511  0.67657  0.16680  1.0000
  H   H1082     1.0  0.10579  0.65562  0.14145  1.0000
  C   C908      1.0  0.04349  0.82077  0.11884  1.0000
  H   H1083     1.0  0.08375  0.62939  0.15220  1.0000
  H   H1084     1.0  0.11388  0.51278  0.10730  1.0000
  H   H1085     1.0  0.12815  0.67266  0.13458  1.0000
  C   C909      1.0  0.08880  0.54008  0.07658  1.0000
  H   H1086     1.0  0.13183  0.64130  0.13214  1.0000
  C   C910      1.0  0.03467  0.61941  0.17503  1.0000
  C   C911      1.0  0.05681  0.68376  0.15301  1.0000
  S   S249      1.0  0.10785  0.62013  0.16722  1.0000
  H   H1087     1.0  0.12582  0.65720  0.12816  1.0000
  H   H1088     1.0  0.03301  0.88846  0.07542  1.0000
  N   N61       1.0  0.09583  0.52367  0.11278  1.0000
  C   C912      1.0  0.10487  0.51177  0.11362  1.0000
  C   C913      1.0  0.13650  0.59631  0.13648  1.0000
  H   H1089     1.0  0.13074  0.63037  0.15233  1.0000
  C   C914      1.0  0.02813  0.88320  0.07271  1.0000
  H   H1090     1.0  0.08160  0.54616  0.10479  1.0000
  Fe  Fe123     1.0  0.13499  0.49469  0.07496  1.0000
  H   H1091     1.0  0.01103  0.89114  0.08260  1.0000
  H   H1092     1.0  0.13778  0.64027  0.15658  1.0000
  C   C915      1.0  0.03470  0.87473  0.06553  1.0000
  C   C916      1.0  0.12891  0.63892  0.15576  1.0000
  C   C917      1.0  0.01539  0.88466  0.07676  1.0000
  H   H1093     1.0  0.07995  0.51565  0.11832  1.0000
  C   C918      1.0  0.12414  0.67200  0.14419  1.0000
  C   C919      1.0  0.11529  0.66155  0.16440  1.0000
  C   C920      1.0  0.03150  0.63223  0.17204  1.0000
  H   H1094     1.0  0.13226  0.58947  0.15589  1.0000
  H   H1095     1.0  0.10454  0.51396  0.09139  1.0000
  H   H1096     1.0  0.11198  0.65382  0.17074  1.0000
  H   H1097     1.0  0.10043  0.52359  0.07139  1.0000
  H   H1098     1.0  0.99484  0.86034  0.07790  1.0000
  C   C921      1.0  0.05440  0.82332  0.11938  1.0000
  H   H1099     1.0  0.03369  0.86125  0.05655  1.0000
  H   H1100     1.0  0.04544  0.66388  0.13648  1.0000
  C   C922      1.0  0.00878  0.87771  0.07355  1.0000
  C   C923      1.0  0.11312  0.67227  0.16868  1.0000
  Fe  Fe124     1.0  0.00076  0.63213  0.13145  1.0000
  H   H1101     1.0  0.01138  0.86382  0.06309  1.0000
  H   H1102     1.0  0.10674  0.50806  0.12297  1.0000
  C   C924      1.0  0.02852  0.86784  0.06215  1.0000
  C   C925      1.0  0.23519  0.85178  0.08693  1.0000
  C   C926      1.0  0.01575  0.86934  0.06600  1.0000
  C   C927      1.0  0.03682  0.63899  0.17677  1.0000
  C   C928      1.0  0.13567  0.58707  0.14700  1.0000
  H   H1103     1.0  0.09395  0.54086  0.11787  1.0000
  H   H1104     1.0  0.08549  0.51720  0.13077  1.0000
  C   C929      1.0  0.09848  0.52292  0.09048  1.0000
  C   C930      1.0  0.14038  0.59330  0.12504  1.0000
  C   C931      1.0  0.04920  0.68074  0.14729  1.0000
  H   H1105     1.0  0.11423  0.69125  0.16398  1.0000
  H   H1106     1.0  0.02698  0.67372  0.17272  1.0000
  H   H1107     1.0  0.05960  0.68540  0.16997  1.0000
  H   H1108     1.0  0.10840  0.67253  0.17804  1.0000
  H   H1109     1.0  0.07462  0.59466  0.17971  1.0000
  H   H1110     1.0  0.03443  0.64889  0.17460  1.0000
  N   N62       1.0  0.99528  0.87904  0.07759  1.0000
  H   H1111     1.0  0.10531  0.57699  0.17671  1.0000
  H   H1112     1.0  0.12701  0.88735  0.98827  1.0000
  C   C932      1.0  0.23309  0.86169  0.07729  1.0000
  H   H1113     1.0  0.06834  0.58008  0.17175  1.0000
  C   C933      1.0  0.04290  0.67945  0.17244  1.0000
  H   H1114     1.0  0.04372  0.81308  0.11512  1.0000
  H   H1115     1.0  0.10720  0.88500  0.99065  1.0000
  C   C934      1.0  0.08033  0.68509  0.18015  1.0000
  H   H1116     1.0  0.11116  0.90582  0.98984  1.0000
  H   H1117     1.0  0.23863  0.87768  0.06566  1.0000
  C   C935      1.0  0.24106  0.86979  0.07270  1.0000
  H   H1118     1.0  0.99532  0.58143  0.14998  1.0000
  Fe  Fe125     1.0  0.13122  0.54066  0.34288  1.0000
  S   S250      1.0  0.14823  0.52964  0.33321  1.0000
  S   S251      1.0  0.11658  0.55248  0.33325  1.0000
  Fe  Fe126     1.0  0.14495  0.51465  0.34992  1.0000
  Fe  Fe127     1.0  0.15803  0.53648  0.34353  1.0000
  S   S252      1.0  0.17438  0.54515  0.33324  1.0000
  S   S253      1.0  0.12726  0.52552  0.35893  1.0000
  S   S254      1.0  0.14109  0.54891  0.35166  1.0000
  Fe  Fe128     1.0  0.21117  0.58621  0.34674  1.0000
  S   S255      1.0  0.19794  0.60286  0.33951  1.0000
  S   S256      1.0  0.20286  0.56953  0.35693  1.0000
  H   H1119     1.0  0.14302  0.61164  0.34450  1.0000
  S   S257      1.0  0.22036  0.61789  0.33178  1.0000
  Fe  Fe129     1.0  0.20591  0.61296  0.34831  1.0000
  S   S258      1.0  0.19322  0.62770  0.35770  1.0000
  Fe  Fe130     1.0  0.21347  0.60617  0.32369  1.0000
  S   S259      1.0  0.21058  0.61255  0.30434  1.0000
  S   S260      1.0  0.21811  0.59609  0.35692  1.0000
  H   H1120     1.0  0.10811  0.67280  0.20498  1.0000
  Fe  Fe131     1.0  0.14473  0.62606  0.29091  1.0000
  S   S261      1.0  0.12479  0.63425  0.29769  1.0000
  S   S262      1.0  0.15975  0.63622  0.28795  1.0000
  Fe  Fe132     1.0  0.13913  0.60243  0.29006  1.0000
  S   S263      1.0  0.11894  0.60866  0.29694  1.0000
  S   S264      1.0  0.14604  0.58324  0.28709  1.0000
  Fe  Fe133     1.0  0.12125  0.62620  0.28348  1.0000
  S   S265      1.0  0.10744  0.63499  0.27108  1.0000
  Fe  Fe134     1.0  0.12456  0.61572  0.31041  1.0000
  S   S266      1.0  0.11745  0.60914  0.33086  1.0000
  S   S267      1.0  0.14126  0.61952  0.27581  1.0000
  S   S268      1.0  0.14468  0.60817  0.30424  1.0000
  H   H1121     1.0  0.19780  0.60350  0.37279  1.0000
  H   H1122     1.0  0.09966  0.68050  0.22493  1.0000
  S   S269      1.0  0.09003  0.60886  0.20142  1.0000
  H   H1123     1.0  0.09211  0.67607  0.20441  1.0000
  S   S270      1.0  0.12079  0.63451  0.37178  1.0000
  S   S271      1.0  0.07265  0.63105  0.21466  1.0000
  Fe  Fe135     1.0  0.09216  0.62026  0.21344  1.0000
  S   S272      1.0  0.10255  0.61168  0.22903  1.0000
  Fe  Fe136     1.0  0.07130  0.62104  0.20098  1.0000
  S   S273      1.0  0.05651  0.61254  0.19936  1.0000
  C   C936      1.0  0.10620  0.55920  0.36733  1.0000
  H   H1124     1.0  0.07776  0.68935  0.18794  1.0000
  H   H1125     1.0  0.08854  0.65018  0.21989  1.0000
  H   H1126     1.0  0.14025  0.50206  0.37150  1.0000
  H   H1127     1.0  0.08364  0.65463  0.23438  1.0000
  Fe  Fe137     1.0  0.09641  0.62325  0.18555  1.0000
  Fe  Fe138     1.0  0.08078  0.64381  0.19794  1.0000
  C   C937      1.0  0.10629  0.62848  0.25930  1.0000
  C   C938      1.0  0.11472  0.61808  0.25608  1.0000
  C   C939      1.0  0.11348  0.61312  0.24675  1.0000
  C   C940      1.0  0.10385  0.61851  0.24049  1.0000
  C   C941      1.0  0.09541  0.62889  0.24373  1.0000
  C   C942      1.0  0.09666  0.63388  0.25303  1.0000
  H   H1128     1.0  0.12228  0.61395  0.26067  1.0000
  H   H1129     1.0  0.12010  0.60515  0.24425  1.0000
  H   H1130     1.0  0.08776  0.63283  0.23926  1.0000
  H   H1131     1.0  0.09004  0.64186  0.25552  1.0000
  C   C943      1.0  0.11849  0.61642  0.34202  1.0000
  C   C944      1.0  0.11827  0.60969  0.35408  1.0000
  C   C945      1.0  0.11893  0.61513  0.36325  1.0000
  C   C946      1.0  0.11970  0.62744  0.36049  1.0000
  C   C947      1.0  0.11991  0.63419  0.34844  1.0000
  C   C948      1.0  0.11946  0.62868  0.33919  1.0000
  H   H1132     1.0  0.11781  0.60016  0.35634  1.0000
  H   H1133     1.0  0.11875  0.60982  0.37249  1.0000
  H   H1134     1.0  0.12034  0.64375  0.34624  1.0000
  H   H1135     1.0  0.11958  0.63400  0.32996  1.0000
  C   C949      1.0  0.18539  0.62107  0.37204  1.0000
  H   H1136     1.0  0.14536  0.62387  0.35719  1.0000
  H   H1137     1.0  0.13548  0.63178  0.23658  1.0000
  C   C950      1.0  0.19605  0.61894  0.30058  1.0000
  C   C951      1.0  0.18534  0.61497  0.30758  1.0000
  C   C952      1.0  0.17411  0.61992  0.30366  1.0000
  C   C953      1.0  0.17361  0.62891  0.29284  1.0000
  C   C954      1.0  0.18430  0.63289  0.28602  1.0000
  C   C955      1.0  0.19547  0.62779  0.28974  1.0000
  H   H1138     1.0  0.18582  0.60800  0.31586  1.0000
  H   H1139     1.0  0.16579  0.61706  0.30906  1.0000
  H   H1140     1.0  0.18398  0.63989  0.27771  1.0000
  H   H1141     1.0  0.20371  0.63080  0.28420  1.0000
  C   C956      1.0  0.18234  0.55167  0.34004  1.0000
  C   C957      1.0  0.18181  0.54861  0.35263  1.0000
  C   C958      1.0  0.18832  0.55400  0.35765  1.0000
  C   C959      1.0  0.19519  0.56266  0.35019  1.0000
  C   C960      1.0  0.19563  0.56577  0.33763  1.0000
  C   C961      1.0  0.18932  0.56022  0.33258  1.0000
  H   H1142     1.0  0.17659  0.54194  0.35846  1.0000
  H   H1143     1.0  0.18812  0.55133  0.36734  1.0000
  H   H1144     1.0  0.20096  0.57235  0.33178  1.0000
  H   H1145     1.0  0.18983  0.56266  0.32285  1.0000
  C   C962      1.0  0.12447  0.56088  0.32012  1.0000
  C   C963      1.0  0.12425  0.57306  0.31966  1.0000
  C   C964      1.0  0.13147  0.57958  0.30980  1.0000
  C   C965      1.0  0.13832  0.57426  0.29995  1.0000
  C   C966      1.0  0.13864  0.56201  0.30036  1.0000
  C   C967      1.0  0.13184  0.55523  0.31059  1.0000
  H   H1146     1.0  0.11868  0.57748  0.32699  1.0000
  H   H1147     1.0  0.13175  0.58871  0.30996  1.0000
  H   H1148     1.0  0.14408  0.55780  0.29283  1.0000
  H   H1149     1.0  0.13221  0.54569  0.31109  1.0000
  C   C968      1.0  0.16191  0.61194  0.36181  1.0000
  H   H1150     1.0  0.09779  0.55646  0.37359  1.0000
  H   H1151     1.0  0.08892  0.67274  0.23694  1.0000
  C   C969      1.0  0.15874  0.57631  0.34719  1.0000
  S   S274      1.0  0.14707  0.49466  0.34887  1.0000
  H   H1152     1.0  0.11970  0.56897  0.34726  1.0000
  H   H1153     1.0  0.04456  0.60355  0.18587  1.0000
  H   H1154     1.0  0.16694  0.57746  0.37704  1.0000
  C   C970      1.0  0.09571  0.59347  0.36641  1.0000
  C   C971      1.0  0.09975  0.66889  0.20780  1.0000
  H   H1155     1.0  0.13572  0.55953  0.37618  1.0000
  H   H1156     1.0  0.12222  0.57464  0.35911  1.0000
  N   N63       1.0  0.15816  0.58904  0.33989  1.0000
  C   C972      1.0  0.13547  0.49676  0.31506  1.0000
  H   H1157     1.0  0.10819  0.66436  0.23984  1.0000
  C   C973      1.0  0.17067  0.60128  0.36022  1.0000
  C   C974      1.0  0.16950  0.59398  0.35299  1.0000
  C   C975      1.0  0.15079  0.60823  0.34879  1.0000
  C   C976      1.0  0.08628  0.65811  0.22435  1.0000
  C   C977      1.0  0.09475  0.57466  0.35385  1.0000
  H   H1158     1.0  0.15772  0.57004  0.34193  1.0000
  H   H1159     1.0  0.12159  0.50466  0.34593  1.0000
  C   C978      1.0  0.17455  0.62783  0.37799  1.0000
  C   C979      1.0  0.10292  0.49729  0.37951  1.0000
  S   S275      1.0  0.15651  0.52041  0.35947  1.0000
  H   H1160     1.0  0.10975  0.64336  0.21341  1.0000
  S   S276      1.0  0.07770  0.63485  0.18459  1.0000
  C   C980      1.0  0.14646  0.59288  0.33558  1.0000
  C   C981      1.0  0.16837  0.58907  0.32898  1.0000
  H   H1161     1.0  0.17675  0.58597  0.35180  1.0000
  C   C982      1.0  0.18946  0.60874  0.37719  1.0000
  H   H1162     1.0  0.12735  0.62882  0.22022  1.0000
  C   C983      1.0  0.09913  0.58056  0.37050  1.0000
  C   C984      1.0  0.09227  0.67534  0.22686  1.0000
  S   S277      1.0  0.07679  0.66408  0.19680  1.0000
  H   H1163     1.0  0.11413  0.58478  0.34775  1.0000
  H   H1164     1.0  0.14576  0.58663  0.33012  1.0000
  N   N64       1.0  0.18016  0.56356  0.29628  1.0000
  C   C985      1.0  0.17700  0.56379  0.28467  1.0000
  C   C986      1.0  0.18713  0.55097  0.30050  1.0000
  C   C987      1.0  0.16868  0.56576  0.30562  1.0000
  C   C988      1.0  0.18699  0.57328  0.29436  1.0000
  C   C989      1.0  0.19893  0.57079  0.29680  1.0000
  C   C990      1.0  0.18164  0.58576  0.29000  1.0000
  C   C991      1.0  0.20511  0.58022  0.29478  1.0000
  C   C992      1.0  0.18796  0.59508  0.28791  1.0000
  C   C993      1.0  0.19971  0.59230  0.29021  1.0000
  H   H1165     1.0  0.18541  0.56231  0.27737  1.0000
  H   H1166     1.0  0.17178  0.55663  0.28581  1.0000
  H   H1167     1.0  0.17110  0.57265  0.28118  1.0000
  H   H1168     1.0  0.19574  0.54853  0.29373  1.0000
  H   H1169     1.0  0.18165  0.54393  0.30202  1.0000
  H   H1170     1.0  0.18949  0.54991  0.30944  1.0000
  H   H1171     1.0  0.16252  0.57470  0.30284  1.0000
  H   H1172     1.0  0.16328  0.55857  0.30749  1.0000
  H   H1173     1.0  0.17070  0.56574  0.31441  1.0000
  H   H1174     1.0  0.20371  0.56165  0.30031  1.0000
  H   H1175     1.0  0.17251  0.58842  0.28810  1.0000
  H   H1176     1.0  0.21418  0.57820  0.29675  1.0000
  H   H1177     1.0  0.18376  0.60455  0.28446  1.0000
  H   H1178     1.0  0.20465  0.59953  0.28851  1.0000
  H   H1179     1.0  0.11365  0.55665  0.37250  1.0000
  H   H1180     1.0  0.09630  0.59764  0.35680  1.0000
  H   H1181     1.0  0.07798  0.66434  0.22129  1.0000
  H   H1182     1.0  0.16808  0.58290  0.32329  1.0000
  Fe  Fe139     1.0  0.13888  0.53265  0.36693  1.0000
  H   H1183     1.0  0.16796  0.59842  0.32312  1.0000
  H   H1184     1.0  0.08438  0.68184  0.22325  1.0000
  H   H1185     1.0  0.09770  0.56824  0.34749  1.0000
  H   H1186     1.0  0.13839  0.59296  0.34336  1.0000
  H   H1187     1.0  0.17751  0.58607  0.33144  1.0000
  C   C994      1.0  0.12232  0.64853  0.23878  1.0000
  N   N65       1.0  0.10874  0.58298  0.27894  1.0000
  C   C995      1.0  0.12046  0.58715  0.27386  1.0000
  C   C996      1.0  0.10711  0.57910  0.29246  1.0000
  C   C997      1.0  0.10975  0.57196  0.27422  1.0000
  C   C998      1.0  0.09856  0.59321  0.27551  1.0000
  C   C999      1.0  0.09267  0.59370  0.26607  1.0000
  C   C1000     1.0  0.09472  0.60344  0.28116  1.0000
  C   C1001     1.0  0.08320  0.60357  0.26293  1.0000
  C   C1002     1.0  0.08520  0.61322  0.27800  1.0000
  C   C1003     1.0  0.07939  0.61325  0.26896  1.0000
  H   H1188     1.0  0.12064  0.59498  0.27756  1.0000
  H   H1189     1.0  0.12844  0.57972  0.27601  1.0000
  H   H1190     1.0  0.12201  0.59026  0.26374  1.0000
  H   H1191     1.0  0.10852  0.58603  0.29664  1.0000
  H   H1192     1.0  0.11391  0.57063  0.29528  1.0000
  H   H1193     1.0  0.09777  0.57727  0.29679  1.0000
  H   H1194     1.0  0.11258  0.57370  0.26406  1.0000
  H   H1195     1.0  0.11689  0.56412  0.27761  1.0000
  H   H1196     1.0  0.10089  0.56888  0.27711  1.0000
  H   H1197     1.0  0.09538  0.58675  0.26072  1.0000
  H   H1198     1.0  0.09927  0.60419  0.28779  1.0000
  H   H1199     1.0  0.07909  0.60392  0.25545  1.0000
  H   H1200     1.0  0.08270  0.62109  0.28221  1.0000
  H   H1201     1.0  0.07229  0.62102  0.26626  1.0000
  C   C1004     1.0  0.04765  0.62022  0.18815  1.0000
  H   H1202     1.0  0.13023  0.50513  0.31800  1.0000
  C   C1005     1.0  0.11322  0.64531  0.22025  1.0000
  H   H1203     1.0  0.16277  0.61757  0.36744  1.0000
  C   C1006     1.0  0.04500  0.63303  0.18464  1.0000
  C   C1007     1.0  0.15934  0.59707  0.34728  1.0000
  C   C1008     1.0  0.10739  0.65571  0.22548  1.0000
  N   N66       1.0  0.10378  0.57250  0.36157  1.0000
  S   S278      1.0  0.22660  0.58881  0.33023  1.0000
  H   H1204     1.0  0.14551  0.60219  0.32955  1.0000
  C   C1009     1.0  0.12335  0.63691  0.22409  1.0000
  H   H1205     1.0  0.15138  0.57597  0.35565  1.0000
  Fe  Fe140     1.0  0.23229  0.60041  0.33982  1.0000
  H   H1206     1.0  0.12556  0.64944  0.24635  1.0000
  N   N67       1.0  0.09663  0.66442  0.22126  1.0000
  C   C1010     1.0  0.15208  0.61547  0.35603  1.0000
  C   C1011     1.0  0.12790  0.63853  0.23332  1.0000
  H   H1207     1.0  0.10931  0.55341  0.36036  1.0000
  H   H1208     1.0  0.10135  0.66150  0.20277  1.0000
  C   C1012     1.0  0.12972  0.48979  0.31115  1.0000
  C   C1013     1.0  0.11221  0.65703  0.23497  1.0000
  H   H1209     1.0  0.16764  0.57226  0.34999  1.0000
  H   H1210     1.0  0.17851  0.59871  0.36450  1.0000
  S   S279      1.0  0.10027  0.63365  0.19731  1.0000
  N   N68       1.0  0.17511  0.64399  0.32668  1.0000
  C   C1014     1.0  0.18404  0.65007  0.32849  1.0000
  C   C1015     1.0  0.17956  0.63054  0.32999  1.0000
  C   C1016     1.0  0.17503  0.64729  0.31343  1.0000
  C   C1017     1.0  0.16293  0.64754  0.33460  1.0000
  C   C1018     1.0  0.15212  0.65322  0.32993  1.0000
  C   C1019     1.0  0.16159  0.64509  0.34749  1.0000
  C   C1020     1.0  0.14076  0.65627  0.33774  1.0000
  C   C1021     1.0  0.15017  0.64811  0.35520  1.0000
  C   C1022     1.0  0.13978  0.65371  0.35033  1.0000
  H   H1211     1.0  0.19324  0.64782  0.32243  1.0000
  H   H1212     1.0  0.18080  0.66022  0.32659  1.0000
  H   H1213     1.0  0.18562  0.64713  0.33796  1.0000
  H   H1214     1.0  0.17301  0.62559  0.32899  1.0000
  H   H1215     1.0  0.18075  0.62737  0.33958  1.0000
  H   H1216     1.0  0.18869  0.62749  0.32416  1.0000
  H   H1217     1.0  0.17216  0.65737  0.31016  1.0000
  H   H1218     1.0  0.18431  0.64435  0.30776  1.0000
  H   H1219     1.0  0.16882  0.64270  0.31130  1.0000
  H   H1220     1.0  0.15215  0.65536  0.32029  1.0000
  H   H1221     1.0  0.16938  0.64070  0.35171  1.0000
  H   H1222     1.0  0.13259  0.66053  0.33402  1.0000
  H   H1223     1.0  0.14930  0.64597  0.36503  1.0000
  H   H1224     1.0  0.13090  0.65590  0.35637  1.0000
  H   H1225     1.0  0.08988  0.61121  0.37115  1.0000
  H   H1226     1.0  0.04877  0.63835  0.18846  1.0000
  C   C1023     1.0  0.14777  0.49272  0.31579  1.0000
  H   H1227     1.0  0.23993  0.62125  0.35062  1.0000
  C   C1024     1.0  0.11546  0.57537  0.35359  1.0000
  H   H1228     1.0  0.17141  0.63742  0.37409  1.0000
  C   C1025     1.0  0.12407  0.49517  0.34515  1.0000
  H   H1229     1.0  0.08559  0.57341  0.35959  1.0000
  H   H1230     1.0  0.09357  0.58401  0.34792  1.0000
  H   H1231     1.0  0.15202  0.49793  0.31930  1.0000
  H   H1232     1.0  0.10637  0.49520  0.34233  1.0000
  C   C1026     1.0  0.04254  0.61345  0.18321  1.0000
  C   C1027     1.0  0.09205  0.60136  0.37455  1.0000
  H   H1233     1.0  0.18517  0.56559  0.38037  1.0000
  H   H1234     1.0  0.12004  0.49324  0.31132  1.0000
  C   C1028     1.0  0.13583  0.48828  0.34625  1.0000
  H   H1235     1.0  0.10565  0.59613  0.18207  1.0000
  H   H1236     1.0  0.24229  0.67960  0.37615  1.0000
  C   C1029     1.0  0.11545  0.48977  0.34308  1.0000
  H   H1237     1.0  0.24395  0.65978  0.37287  1.0000
  C   C1030     1.0  0.08058  0.67261  0.18190  1.0000
  H   H1238     1.0  0.09488  0.50468  0.38035  1.0000
  H   H1239     1.0  0.04063  0.67874  0.18225  1.0000
  H   H1240     1.0  0.09503  0.48781  0.37101  1.0000
  C   C1031     1.0  0.10294  0.48778  0.37432  1.0000
  H   H1241     1.0  0.14699  0.50025  0.38422  1.0000
  C   C1032     1.0  0.11180  0.62194  0.55254  1.0000
  H   H1242     1.0  0.16131  0.58831  0.38675  1.0000
  Fe  Fe141     1.0  0.12082  0.59834  0.40704  1.0000
  S   S280      1.0  0.10815  0.61698  0.40603  1.0000
  S   S281      1.0  0.11482  0.58042  0.41088  1.0000
  Fe  Fe142     1.0  0.14286  0.60864  0.40454  1.0000
  S   S282      1.0  0.13251  0.62815  0.40250  1.0000
  S   S283      1.0  0.16238  0.60182  0.40620  1.0000
  Fe  Fe143     1.0  0.11845  0.62069  0.41829  1.0000
  S   S284      1.0  0.11114  0.62680  0.43663  1.0000
  H   H1243     1.0  0.16947  0.57262  0.41691  1.0000
  S   S285      1.0  0.12948  0.60134  0.42073  1.0000
  C   C1033     1.0  0.15867  0.97358  0.57824  1.0000
  Fe  Fe144     1.0  0.12207  0.66328  0.48091  1.0000
  S   S286      1.0  0.12397  0.64510  0.49407  1.0000
  S   S287      1.0  0.12328  0.66454  0.46062  1.0000
  Fe  Fe145     1.0  0.11672  0.67766  0.50155  1.0000
  S   S288      1.0  0.11772  0.66038  0.51599  1.0000
  S   S289      1.0  0.11018  0.69560  0.50826  1.0000
  Fe  Fe146     1.0  0.13427  0.65299  0.50275  1.0000
  S   S290      1.0  0.15025  0.64107  0.51067  1.0000
  Fe  Fe147     1.0  0.10735  0.65426  0.50596  1.0000
  S   S291      1.0  0.09277  0.64372  0.51616  1.0000
  S   S292      1.0  0.13404  0.67061  0.48860  1.0000
  S   S293      1.0  0.10468  0.67210  0.49250  1.0000
  Fe  Fe148     1.0  0.11697  0.74743  0.56764  1.0000
  Fe  Fe149     1.0  0.12519  0.72493  0.55528  1.0000
  H   H1244     1.0  0.24036  0.65211  0.57286  1.0000
  S   S294      1.0  0.13553  0.71521  0.53963  1.0000
  C   C1034     1.0  0.08832  0.87378  0.57190  1.0000
  C   C1035     1.0  0.16746  0.62200  0.38867  1.0000
  S   S295      1.0  0.10836  0.74019  0.55642  1.0000
  S   S296      1.0  0.13465  0.73334  0.56467  1.0000
  H   H1245     1.0  0.13143  0.50787  0.38479  1.0000
  S   S297      1.0  0.05792  0.67012  0.55761  1.0000
  S   S298      1.0  0.08231  0.72498  0.57863  1.0000
  H   H1246     1.0  0.18034  0.67520  0.56890  1.0000
  C   C1036     1.0  0.14949  0.95371  0.57689  1.0000
  C   C1037     1.0  0.08792  0.69567  0.53861  1.0000
  H   H1247     1.0  0.15890  0.62712  0.39305  1.0000
  S   S299      1.0  0.15227  0.66093  0.55545  1.0000
  H   H1248     1.0  0.22166  0.64779  0.57720  1.0000
  H   H1249     1.0  0.16201  0.60406  0.53344  1.0000
  H   H1250     1.0  0.11321  0.55572  0.41942  1.0000
  C   C1038     1.0  0.12214  0.68470  0.55607  1.0000
  S   S300      1.0  0.20075  0.62304  0.58032  1.0000
  H   H1251     1.0  0.09442  0.87711  0.57557  1.0000
  H   H1252     1.0  0.10581  0.79287  0.56992  1.0000
  S   S301      1.0  0.13532  0.60400  0.39097  1.0000
  H   H1253     1.0  0.03007  0.64610  0.57494  1.0000
  H   H1254     1.0  0.18575  0.59342  0.39179  1.0000
  C   C1039     1.0  0.11744  0.70069  0.51709  1.0000
  C   C1040     1.0  0.11072  0.71016  0.52321  1.0000
  C   C1041     1.0  0.11600  0.71444  0.53040  1.0000
  C   C1042     1.0  0.12833  0.70974  0.53106  1.0000
  C   C1043     1.0  0.13519  0.70049  0.52467  1.0000
  C   C1044     1.0  0.12971  0.69580  0.51794  1.0000
  H   H1255     1.0  0.10132  0.71421  0.52240  1.0000
  H   H1256     1.0  0.11062  0.72163  0.53516  1.0000
  H   H1257     1.0  0.14475  0.69682  0.52503  1.0000
  H   H1258     1.0  0.13508  0.68865  0.51314  1.0000
  C   C1045     1.0  0.15156  0.64678  0.52269  1.0000
  C   C1046     1.0  0.14583  0.65883  0.52374  1.0000
  C   C1047     1.0  0.14626  0.66312  0.53375  1.0000
  C   C1048     1.0  0.15227  0.65534  0.54285  1.0000
  C   C1049     1.0  0.15812  0.64332  0.54174  1.0000
  C   C1050     1.0  0.15791  0.63911  0.53158  1.0000
  H   H1259     1.0  0.14121  0.66493  0.51674  1.0000
  H   H1260     1.0  0.14195  0.67250  0.53441  1.0000
  H   H1261     1.0  0.16295  0.63731  0.54859  1.0000
  H   H1262     1.0  0.16259  0.62989  0.53066  1.0000
  C   C1051     1.0  0.08316  0.65107  0.52768  1.0000
  C   C1052     1.0  0.08223  0.66357  0.52667  1.0000
  C   C1053     1.0  0.07417  0.66950  0.53572  1.0000
  C   C1054     1.0  0.06750  0.66282  0.54604  1.0000
  C   C1055     1.0  0.06872  0.65024  0.54722  1.0000
  C   C1056     1.0  0.07638  0.64441  0.53793  1.0000
  H   H1263     1.0  0.08752  0.66874  0.51880  1.0000
  H   H1264     1.0  0.07323  0.67921  0.53484  1.0000
  H   H1265     1.0  0.06358  0.64505  0.55519  1.0000
  H   H1266     1.0  0.07715  0.63472  0.53874  1.0000
  S   S302      1.0  0.08247  0.65425  0.57760  1.0000
  C   C1057     1.0  0.11601  0.63677  0.44277  1.0000
  C   C1058     1.0  0.11604  0.63387  0.45533  1.0000
  C   C1059     1.0  0.11881  0.64198  0.46080  1.0000
  C   C1060     1.0  0.12114  0.65335  0.45389  1.0000
  C   C1061     1.0  0.12137  0.65615  0.44128  1.0000
  C   C1062     1.0  0.11893  0.64788  0.43573  1.0000
  H   H1267     1.0  0.11383  0.62529  0.46088  1.0000
  H   H1268     1.0  0.11896  0.63952  0.47042  1.0000
  H   H1269     1.0  0.12321  0.66489  0.43581  1.0000
  H   H1270     1.0  0.11881  0.65034  0.42609  1.0000
  Fe  Fe150     1.0  0.15931  0.64718  0.57115  1.0000
  C   C1063     1.0  0.13638  0.61749  0.55849  1.0000
  H   H1271     1.0  0.12873  0.57794  0.38575  1.0000
  H   H1272     1.0  0.12694  0.95317  0.57284  1.0000
  H   H1273     1.0  0.01252  0.67635  0.56078  1.0000
  H   H1274     1.0  0.12597  0.68658  0.54608  1.0000
  H   H1275     1.0  0.10104  0.67899  0.53945  1.0000
  C   C1064     1.0  0.12841  0.54730  0.39253  1.0000
  H   H1276     1.0  0.15365  0.56484  0.41532  1.0000
  C   C1065     1.0  0.12703  0.56910  0.39105  1.0000
  C   C1066     1.0  0.12064  0.56802  0.40332  1.0000
  C   C1067     1.0  0.15475  0.60765  0.54049  1.0000
  H   H1277     1.0  0.12231  0.66113  0.55891  1.0000
  H   H1278     1.0  0.07262  0.86056  0.57348  1.0000
  C   C1068     1.0  0.12215  0.54638  0.40471  1.0000
  H   H1279     1.0  0.18174  0.68142  0.54690  1.0000
  H   H1280     1.0  0.14650  0.61739  0.42293  1.0000
  H   H1281     1.0  0.14583  0.98502  0.56740  1.0000
  H   H1282     1.0  0.12022  0.53766  0.41014  1.0000
  C   C1069     1.0  0.16672  0.62438  0.42310  1.0000
  H   H1283     1.0  0.09426  0.58041  0.40104  1.0000
  C   C1070     1.0  0.05792  0.91331  0.58037  1.0000
  C   C1071     1.0  0.10137  0.68848  0.55336  1.0000
  H   H1284     1.0  0.08872  0.87854  0.56216  1.0000
  H   H1285     1.0  0.16902  0.68057  0.54131  1.0000
  H   H1286     1.0  0.15334  0.55749  0.39312  1.0000
  H   H1287     1.0  0.16909  0.61841  0.41638  1.0000
  H   H1288     1.0  0.07547  0.71313  0.53915  1.0000
  C   C1072     1.0  0.09592  0.69956  0.55752  1.0000
  H   H1289     1.0  0.18991  0.57175  0.41917  1.0000
  H   H1290     1.0  0.09785  0.67348  0.57495  1.0000
  C   C1073     1.0  0.09718  0.68684  0.54361  1.0000
  C   C1074     1.0  0.06842  0.87035  0.57381  1.0000
  H   H1291     1.0  0.15577  0.71117  0.56642  1.0000
  H   H1292     1.0  0.13768  0.96839  0.56612  1.0000
  C   C1075     1.0  0.11820  0.55664  0.41000  1.0000
  C   C1076     1.0  0.08256  0.70628  0.54314  1.0000
  H   H1293     1.0  0.09887  0.70165  0.56463  1.0000
  H   H1294     1.0  0.10576  0.68399  0.57673  1.0000
  H   H1295     1.0  0.16497  0.54993  0.40182  1.0000
  H   H1296     1.0  0.15184  0.64567  0.43077  1.0000
  Fe  Fe151     1.0  0.06306  0.65917  0.57518  1.0000
  N   N69       1.0  0.16290  0.56952  0.39641  1.0000
  C   C1077     1.0  0.15680  0.60571  0.55219  1.0000
  H   H1297     1.0  0.11290  0.61222  0.55213  1.0000
  C   C1078     1.0  0.17148  0.60955  0.39357  1.0000
  H   H1298     1.0  0.06780  0.87557  0.56436  1.0000
  H   H1299     1.0  0.10272  0.62710  0.55043  1.0000
  C   C1079     1.0  0.18261  0.60302  0.38801  1.0000
  C   C1080     1.0  0.14764  0.61061  0.56117  1.0000
  H   H1300     1.0  0.08260  0.71663  0.55593  1.0000
  H   H1301     1.0  0.16556  0.60052  0.55429  1.0000
  H   H1302     1.0  0.17533  0.62398  0.42586  1.0000
  N   N70       1.0  0.12206  0.62728  0.54402  1.0000
  C   C1081     1.0  0.12080  0.62833  0.53139  1.0000
  C   C1082     1.0  0.12067  0.63984  0.54570  1.0000
  C   C1083     1.0  0.13397  0.61970  0.54666  1.0000
  C   C1084     1.0  0.14356  0.61461  0.53767  1.0000
  C   C1085     1.0  0.08392  0.76336  0.57337  1.0000
  H   H1303     1.0  0.12161  0.61920  0.52952  1.0000
  H   H1304     1.0  0.11170  0.63395  0.52975  1.0000
  H   H1305     1.0  0.12780  0.63293  0.52445  1.0000
  H   H1306     1.0  0.11115  0.62212  0.56219  1.0000
  H   H1307     1.0  0.12845  0.64400  0.53972  1.0000
  H   H1308     1.0  0.11199  0.64596  0.54341  1.0000
  H   H1309     1.0  0.12050  0.63993  0.55528  1.0000
  H   H1310     1.0  0.14280  0.61614  0.52830  1.0000
  H   H1311     1.0  0.12963  0.62119  0.56575  1.0000
  N   N71       1.0  0.08332  0.65905  0.47638  1.0000
  C   C1086     1.0  0.07281  0.65366  0.47716  1.0000
  C   C1087     1.0  0.08900  0.66270  0.46321  1.0000
  C   C1088     1.0  0.09262  0.64944  0.48221  1.0000
  C   C1089     1.0  0.07905  0.66935  0.48281  1.0000
  C   C1090     1.0  0.08062  0.68149  0.47698  1.0000
  C   C1091     1.0  0.07323  0.66736  0.49541  1.0000
  C   C1092     1.0  0.07670  0.69091  0.48345  1.0000
  C   C1093     1.0  0.06924  0.67688  0.50174  1.0000
  C   C1094     1.0  0.07106  0.68861  0.49580  1.0000
  H   H1312     1.0  0.06531  0.66077  0.47348  1.0000
  H   H1313     1.0  0.07558  0.64628  0.47188  1.0000
  H   H1314     1.0  0.06889  0.64940  0.48672  1.0000
  H   H1315     1.0  0.08240  0.66962  0.45811  1.0000
  H   H1316     1.0  0.09229  0.65473  0.45866  1.0000
  H   H1317     1.0  0.09722  0.66651  0.46196  1.0000
  H   H1318     1.0  0.08901  0.64572  0.49201  1.0000
  H   H1319     1.0  0.09596  0.64147  0.47769  1.0000
  H   H1320     1.0  0.10072  0.65312  0.48171  1.0000
  H   H1321     1.0  0.08513  0.68391  0.46751  1.0000
  H   H1322     1.0  0.07199  0.65834  0.50057  1.0000
  H   H1323     1.0  0.07829  0.70002  0.47893  1.0000
  H   H1324     1.0  0.06498  0.67507  0.51139  1.0000
  H   H1325     1.0  0.06826  0.69588  0.50083  1.0000
  C   C1095     1.0  0.16111  0.60713  0.43842  1.0000
  C   C1096     1.0  0.15561  0.62236  0.45568  1.0000
  C   C1097     1.0  0.15114  0.64790  0.44847  1.0000
  C   C1098     1.0  0.15374  0.62956  0.46420  1.0000
  C   C1099     1.0  0.15154  0.64229  0.46059  1.0000
  H   H1326     1.0  0.16980  0.60489  0.44171  1.0000
  H   H1327     1.0  0.16283  0.60199  0.43108  1.0000
  H   H1328     1.0  0.15388  0.60338  0.44586  1.0000
  H   H1329     1.0  0.13810  0.61985  0.43776  1.0000
  H   H1330     1.0  0.15715  0.61258  0.45914  1.0000
  H   H1331     1.0  0.14900  0.65784  0.44582  1.0000
  H   H1332     1.0  0.15385  0.62529  0.47371  1.0000
  H   H1333     1.0  0.14983  0.64787  0.46726  1.0000
  C   C1100     1.0  0.17699  0.57065  0.40939  1.0000
  C   C1101     1.0  0.15280  0.64083  0.43992  1.0000
  C   C1102     1.0  0.16260  0.55763  0.39412  1.0000
  C   C1103     1.0  0.15530  0.62782  0.44320  1.0000
  H   H1334     1.0  0.16370  0.63382  0.41791  1.0000
  N   N72       1.0  0.15717  0.62055  0.43390  1.0000
  C   C1104     1.0  0.11500  0.66778  0.55447  1.0000
  N   N73       1.0  0.11116  0.67938  0.55892  1.0000
  C   C1105     1.0  0.15268  0.57210  0.40694  1.0000
  C   C1106     1.0  0.11323  0.49734  0.38357  1.0000
  S   S303      1.0  0.11395  0.76811  0.56626  1.0000
  H   H1335     1.0  0.08520  0.69444  0.53088  1.0000
  C   C1107     1.0  0.10689  0.67621  0.57241  1.0000
  C   C1108     1.0  0.08660  0.70825  0.55253  1.0000
  H   H1336     1.0  0.11908  0.66939  0.54447  1.0000
  C   C1109     1.0  0.14550  0.62269  0.42993  1.0000
  H   H1337     1.0  0.14215  0.63249  0.42587  1.0000
  C   C1110     1.0  0.07608  0.89829  0.57411  1.0000
  Fe  Fe152     1.0  0.12332  0.62282  0.39040  1.0000
  N   N74       1.0  0.16427  0.69197  0.55457  1.0000
  C   C1111     1.0  0.15131  0.69073  0.55803  1.0000
  C   C1112     1.0  0.16545  0.70298  0.54456  1.0000
  C   C1113     1.0  0.17183  0.68114  0.54956  1.0000
  C   C1114     1.0  0.16783  0.69319  0.56542  1.0000
  C   C1115     1.0  0.07023  0.91045  0.57461  1.0000
  C   C1116     1.0  0.18579  0.56683  0.38903  1.0000
  H   H1338     1.0  0.14496  0.69897  0.56104  1.0000
  H   H1339     1.0  0.14826  0.68955  0.55020  1.0000
  H   H1340     1.0  0.14999  0.68265  0.56564  1.0000
  H   H1341     1.0  0.15888  0.71141  0.54687  1.0000
  H   H1342     1.0  0.16328  0.70201  0.53614  1.0000
  H   H1343     1.0  0.17488  0.70473  0.54219  1.0000
  H   H1344     1.0  0.17063  0.67239  0.55619  1.0000
  C   C1117     1.0  0.01841  0.67653  0.56684  1.0000
  H   H1345     1.0  0.14357  0.57257  0.40513  1.0000
  C   C1118     1.0  0.11740  0.77552  0.57615  1.0000
  Fe  Fe153     1.0  0.10151  0.72805  0.57420  1.0000
  H   H1346     1.0  0.02725  0.67868  0.56093  1.0000
  H   H1347     1.0  0.07525  0.91776  0.57056  1.0000
  N   N75       1.0  0.02046  0.66469  0.57574  1.0000
  H   H1348     1.0  0.10709  0.66332  0.55639  1.0000
  H   H1349     1.0  0.15105  0.58049  0.38415  1.0000
  H   H1350     1.0  0.03691  0.65746  0.56345  1.0000
  C   C1119     1.0  0.18874  0.57023  0.41080  1.0000
  C   C1120     1.0  0.14504  0.96597  0.57096  1.0000
  C   C1121     1.0  0.13086  0.55872  0.38561  1.0000
  H   H1351     1.0  0.15210  0.58112  0.40893  1.0000
  C   C1122     1.0  0.17517  0.56898  0.39839  1.0000
  H   H1352     1.0  0.08129  0.75808  0.56814  1.0000
  S   S304      1.0  0.16792  0.62717  0.57257  1.0000
  H   H1353     1.0  0.13179  0.93846  0.56914  1.0000
  H   H1354     1.0  0.12007  0.69354  0.55897  1.0000
  H   H1355     1.0  0.14930  0.60918  0.57024  1.0000
  C   C1123     1.0  0.16045  0.57935  0.38561  1.0000
  N   N76       1.0  0.14463  0.94319  0.57668  1.0000
  H   H1356     1.0  0.02314  0.65435  0.56199  1.0000
  H   H1357     1.0  0.08893  0.60277  0.39327  1.0000
  H   H1358     1.0  0.12952  0.67838  0.56057  1.0000
  C   C1124     1.0  0.19895  0.56817  0.40138  1.0000
  H   H1359     1.0  0.11348  0.66851  0.57683  1.0000
  C   C1125     1.0  0.17596  0.68370  0.57183  1.0000
  C   C1126     1.0  0.16247  0.70381  0.57040  1.0000
  H   H1360     1.0  0.08551  0.77228  0.56726  1.0000
  H   H1361     1.0  0.15133  0.92587  0.57104  1.0000
  H   H1362     1.0  0.11270  0.50483  0.38767  1.0000
  H   H1363     1.0  0.08562  0.89676  0.56949  1.0000
  H   H1364     1.0  0.16917  0.55555  0.38563  1.0000
  C   C1127     1.0  0.06968  0.88858  0.57951  1.0000
  C   C1128     1.0  0.09457  0.58402  0.39134  1.0000
  H   H1365     1.0  0.15966  0.93764  0.56237  1.0000
  S   S305      1.0  0.11776  0.71242  0.57253  1.0000
  H   H1366     1.0  0.13889  0.95068  0.55949  1.0000
  C   C1129     1.0  0.14965  0.97569  0.57162  1.0000
  C   C1130     1.0  0.13520  0.94657  0.56917  1.0000
  C   C1131     1.0  0.15477  0.93372  0.57168  1.0000
  H   H1367     1.0  0.09253  0.86388  0.57211  1.0000
  H   H1368     1.0  0.20801  0.56803  0.40242  1.0000
  C   C1132     1.0  0.13846  0.50007  0.38164  1.0000
  H   H1369     1.0  0.16185  0.98123  0.57911  1.0000
  C   C1133     1.0  0.09153  0.59664  0.38699  1.0000
  C   C1134     1.0  0.19747  0.56648  0.39051  1.0000
  H   H1370     1.0  0.20539  0.56505  0.38308  1.0000
  H   H1371     1.0  0.10103  0.56641  0.38729  1.0000
  C   C1135     1.0  0.11206  0.78801  0.57593  1.0000
  S   S306      1.0  0.13295  0.53371  0.38678  1.0000
  N   N77       1.0  0.07553  0.87557  0.57923  1.0000
  H   H1372     1.0  0.24068  0.67498  0.39249  1.0000
  H   H1373     1.0  0.06751  0.70858  0.57851  1.0000
  H   H1374     1.0  0.05890  0.87046  0.57914  1.0000
  H   H1375     1.0  0.06279  0.77964  0.57454  1.0000
  H   H1376     1.0  0.00981  0.64470  0.57788  1.0000
  H   H1377     1.0  0.12385  0.49379  0.40339  1.0000
  H   H1378     1.0  0.05342  0.92276  0.58059  1.0000
  C   C1136     1.0  0.02791  0.65520  0.56874  1.0000
  C   C1137     1.0  0.09843  0.57604  0.38327  1.0000
  H   H1379     1.0  0.03708  0.66740  0.57858  1.0000
  S   S307      1.0  0.17275  0.65055  0.57999  1.0000
  H   H1380     1.0  0.01387  0.68436  0.57141  1.0000
  H   H1381     1.0  0.09295  0.75809  0.57531  1.0000
  H   H1382     1.0  0.16167  0.92972  0.57750  1.0000
  H   H1383     1.0  0.24063  0.65431  0.38913  1.0000
  H   H1384     1.0  0.06009  0.76469  0.57659  1.0000
  C   C1138     1.0  0.12401  0.48793  0.38231  1.0000
  N   N78       1.0  0.13476  0.48810  0.38683  1.0000
  C   C1139     1.0  0.16517  0.70493  0.58100  1.0000
  H   H1385     1.0  0.22627  0.61799  0.58090  1.0000
  C   C1140     1.0  0.06258  0.77069  0.58116  1.0000
  C   C1141     1.0  0.24449  0.56428  0.61056  1.0000
  S   S308      1.0  0.22795  0.61534  0.62353  1.0000
  C   C1142     1.0  0.10801  0.98520  0.62320  1.0000
  C   C1143     1.0  0.07112  0.78432  0.59312  1.0000
  S   S309      1.0  0.13063  0.88455  0.75686  1.0000
  H   H1386     1.0  0.06158  0.89470  0.65254  1.0000
  H   H1387     1.0  0.13861  0.69420  0.58464  1.0000
  H   H1388     1.0  0.22508  0.58133  0.60132  1.0000
  H   H1389     1.0  0.99527  0.93494  0.60735  1.0000
  Fe  Fe154     1.0  0.09508  0.85399  0.69643  1.0000
  S   S310      1.0  0.07896  0.86164  0.71020  1.0000
  S   S311      1.0  0.09753  0.83532  0.69256  1.0000
  Fe  Fe155     1.0  0.10233  0.87830  0.68617  1.0000
  S   S312      1.0  0.08660  0.88796  0.69860  1.0000
  S   S313      1.0  0.11576  0.88751  0.67133  1.0000
  Fe  Fe156     1.0  0.09196  0.87160  0.71324  1.0000
  S   S314      1.0  0.09161  0.87561  0.73172  1.0000
  Fe  Fe157     1.0  0.07531  0.87728  0.69433  1.0000
  S   S315      1.0  0.05676  0.88638  0.68929  1.0000
  S   S316      1.0  0.10837  0.86243  0.70080  1.0000
  S   S317      1.0  0.09071  0.86913  0.68066  1.0000
  Fe  Fe158     1.0  0.02139  0.90024  0.61806  1.0000
  S   S318      1.0  0.02142  0.92034  0.61104  1.0000
  Fe  Fe159     1.0  0.03003  0.87504  0.61229  1.0000
  S   S319      1.0  0.01921  0.86628  0.62999  1.0000
  S   S320      1.0  0.04211  0.86308  0.59965  1.0000
  Fe  Fe160     1.0  0.02646  0.87777  0.63815  1.0000
  S   S321      1.0  0.03773  0.86777  0.65264  1.0000
  S   S322      1.0  0.01451  0.89055  0.60777  1.0000
  S   S323      1.0  0.03811  0.88560  0.62044  1.0000
  Fe  Fe161     1.0  0.11808  0.82609  0.62685  1.0000
  S   S324      1.0  0.12691  0.82846  0.60685  1.0000
  S   S325      1.0  0.12839  0.82791  0.63995  1.0000
  Fe  Fe162     1.0  0.09414  0.82443  0.62253  1.0000
  S   S326      1.0  0.10064  0.82716  0.60221  1.0000
  S   S327      1.0  0.07516  0.82224  0.63202  1.0000
  Fe  Fe163     1.0  0.11764  0.81358  0.60673  1.0000
  S   S328      1.0  0.12772  0.79602  0.59976  1.0000
  Fe  Fe164     1.0  0.10916  0.84170  0.60431  1.0000
  C   C1144     1.0  0.11106  0.87291  0.59659  1.0000
  S   S329      1.0  0.11043  0.81017  0.62715  1.0000
  S   S330      1.0  0.10092  0.84006  0.62425  1.0000
  Fe  Fe165     1.0  0.11042  0.92252  0.60451  1.0000
  S   S331      1.0  0.09109  0.92250  0.61504  1.0000
  C   C1145     1.0  0.00051  0.67001  0.59059  1.0000
  Fe  Fe166     1.0  0.10680  0.95070  0.59923  1.0000
  S   S332      1.0  0.08700  0.95274  0.60907  1.0000
  H   H1390     1.0  0.11062  0.80393  0.58303  1.0000
  Fe  Fe167     1.0  0.09395  0.93679  0.62306  1.0000
  S   S333      1.0  0.08752  0.93663  0.64298  1.0000
  Fe  Fe168     1.0  0.08598  0.93833  0.60002  1.0000
  H   H1391     1.0  0.01218  0.59613  0.62529  1.0000
  S   S334      1.0  0.11379  0.93557  0.61396  1.0000
  H   H1392     1.0  0.02360  0.67325  0.58875  1.0000
  H   H1393     1.0  0.05845  0.95055  0.61945  1.0000
  C   C1146     1.0  0.24075  0.64247  0.60293  1.0000
  H   H1394     1.0  0.09898  0.62794  0.62037  1.0000
  H   H1395     1.0  0.07602  0.83300  0.68410  1.0000
  H   H1396     1.0  0.11300  0.98658  0.65609  1.0000
  C   C1147     1.0  0.10692  0.63096  0.62075  1.0000
  S   S335      1.0  0.07121  0.64037  0.60574  1.0000
  H   H1397     1.0  0.06644  0.86852  0.59771  1.0000
  C   C1148     1.0  0.07834  0.77274  0.59092  1.0000
  H   H1398     1.0  0.09519  0.91849  0.71090  1.0000
  C   C1149     1.0  0.05271  0.83100  0.66281  1.0000
  S   S336      1.0  0.03515  0.64206  0.61342  1.0000
  C   C1150     1.0  0.06672  0.81744  0.67490  1.0000
  N   N79       1.0  0.05653  0.91443  0.64985  1.0000
  H   H1399     1.0  0.12502  0.89066  0.69790  1.0000
  H   H1400     1.0  0.09511  0.90232  0.71687  1.0000
  H   H1401     1.0  0.17464  0.69612  0.59565  1.0000
  H   H1402     1.0  0.02427  0.61937  0.58903  1.0000
  C   C1151     1.0  0.11503  0.89379  0.70142  1.0000
  S   S337      1.0  0.00992  0.89333  0.63637  1.0000
  Fe  Fe169     1.0  0.00399  0.88256  0.62611  1.0000
  C   C1152     1.0  0.02520  0.63538  0.60930  1.0000
  H   H1403     1.0  0.10317  0.91022  0.72833  1.0000
  H   H1404     1.0  0.00297  0.67819  0.59107  1.0000
  C   C1153     1.0  0.00951  0.62329  0.60425  1.0000
  C   C1154     1.0  0.00563  0.62909  0.61415  1.0000
  C   C1155     1.0  0.01347  0.63502  0.61671  1.0000
  H   H1405     1.0  0.13690  0.90165  0.70148  1.0000
  H   H1406     1.0  0.01047  0.63921  0.62457  1.0000
  C   C1156     1.0  0.11021  0.62622  0.58843  1.0000
  H   H1407     1.0  0.03746  0.95252  0.61692  1.0000
  C   C1157     1.0  0.08958  0.76860  0.59497  1.0000
  H   H1408     1.0  0.03947  0.84601  0.67602  1.0000
  H   H1409     1.0  0.16239  0.94289  0.58845  1.0000
  H   H1410     1.0  0.06249  0.78832  0.59031  1.0000
  C   C1158     1.0  0.12307  0.78827  0.59099  1.0000
  C   C1159     1.0  0.15008  0.67237  0.60742  1.0000
  C   C1160     1.0  0.12607  0.84986  0.76211  1.0000
  H   H1411     1.0  0.09112  0.85079  0.76985  1.0000
  H   H1412     1.0  0.04812  0.90140  0.64652  1.0000
  C   C1161     1.0  0.14401  0.69239  0.61244  1.0000
  C   C1162     1.0  0.14876  0.67980  0.61552  1.0000
  C   C1163     1.0  0.12145  0.87054  0.60151  1.0000
  H   H1413     1.0  0.14318  0.69813  0.61870  1.0000
  H   H1414     1.0  0.15150  0.67584  0.62419  1.0000
  H   H1415     1.0  0.11351  0.92447  0.69458  1.0000
  C   C1164     1.0  0.03445  0.93631  0.63064  1.0000
  C   C1165     1.0  0.11180  0.97131  0.64217  1.0000
  H   H1416     1.0  0.09334  0.90940  0.70163  1.0000
  H   H1417     1.0  0.13606  0.64172  0.61983  1.0000
  H   H1418     1.0  0.10954  0.91581  0.68603  1.0000
  C   C1166     1.0  0.21112  0.92590  0.77233  1.0000
  C   C1167     1.0  0.09830  0.90925  0.70866  1.0000
  H   H1419     1.0  0.02575  0.58514  0.60952  1.0000
  H   H1420     1.0  0.08272  0.74766  0.59502  1.0000
  C   C1168     1.0  0.99695  0.82495  0.61512  1.0000
  S   S338      1.0  0.13480  0.71350  0.59787  1.0000
  H   H1421     1.0  0.10308  0.90408  0.59373  1.0000
  Fe  Fe170     1.0  0.18009  0.63018  0.58326  1.0000
  S   S339      1.0  0.08450  0.66876  0.60279  1.0000
  C   C1169     1.0  0.22107  0.61854  0.59006  1.0000
  C   C1170     1.0  0.10449  0.88507  0.59380  1.0000
  C   C1171     1.0  0.10823  0.89477  0.59593  1.0000
  C   C1172     1.0  0.04834  0.91453  0.66210  1.0000
  C   C1173     1.0  0.02792  0.66565  0.58385  1.0000
  H   H1422     1.0  0.23382  0.66952  0.58314  1.0000
  H   H1423     1.0  0.14857  0.90199  0.71598  1.0000
  C   C1174     1.0  0.20001  0.93288  0.76950  1.0000
  H   H1424     1.0  0.03384  0.85828  0.69128  1.0000
  C   C1175     1.0  0.06899  0.91448  0.65097  1.0000
  C   C1176     1.0  0.03535  0.92551  0.60613  1.0000
  C   C1177     1.0  0.03536  0.93694  0.59814  1.0000
  C   C1178     1.0  0.04609  0.94154  0.59380  1.0000
  C   C1179     1.0  0.05692  0.93498  0.59766  1.0000
  C   C1180     1.0  0.05694  0.92363  0.60595  1.0000
  C   C1181     1.0  0.04618  0.91880  0.61007  1.0000
  C   C1182     1.0  0.10589  0.61619  0.58796  1.0000
  H   H1425     1.0  0.13571  0.85001  0.75914  1.0000
  H   H1426     1.0  0.06526  0.91854  0.60899  1.0000
  H   H1427     1.0  0.04621  0.91004  0.61639  1.0000
  C   C1183     1.0  0.05130  0.85150  0.60850  1.0000
  C   C1184     1.0  0.05072  0.85218  0.62046  1.0000
  C   C1185     1.0  0.05789  0.84304  0.62771  1.0000
  C   C1186     1.0  0.06579  0.83320  0.62301  1.0000
  C   C1187     1.0  0.06674  0.83263  0.61090  1.0000
  C   C1188     1.0  0.05942  0.84178  0.60364  1.0000
  H   H1428     1.0  0.04482  0.85978  0.62421  1.0000
  H   H1429     1.0  0.05749  0.84378  0.63686  1.0000
  H   H1430     1.0  0.07303  0.82509  0.60719  1.0000
  H   H1431     1.0  0.06001  0.84130  0.59434  1.0000
  C   C1189     1.0  0.05191  0.88195  0.67822  1.0000
  C   C1190     1.0  0.05966  0.87340  0.67154  1.0000
  C   C1191     1.0  0.05541  0.86976  0.66312  1.0000
  C   C1192     1.0  0.04342  0.87466  0.66120  1.0000
  C   C1193     1.0  0.03580  0.88358  0.66752  1.0000
  C   C1194     1.0  0.04002  0.88714  0.67606  1.0000
  H   H1432     1.0  0.06873  0.86919  0.67324  1.0000
  H   H1433     1.0  0.06124  0.86272  0.65848  1.0000
  H   H1434     1.0  0.02645  0.88722  0.66635  1.0000
  H   H1435     1.0  0.03392  0.89370  0.68126  1.0000
  C   C1195     1.0  0.10799  0.90124  0.66356  1.0000
  C   C1196     1.0  0.11150  0.90462  0.65086  1.0000
  C   C1197     1.0  0.10506  0.91540  0.64451  1.0000
  C   C1198     1.0  0.09545  0.92308  0.65090  1.0000
  C   C1199     1.0  0.09199  0.91975  0.66362  1.0000
  C   C1200     1.0  0.09816  0.90874  0.66993  1.0000
  H   H1436     1.0  0.11906  0.89880  0.64590  1.0000
  H   H1437     1.0  0.10762  0.91773  0.63469  1.0000
  H   H1438     1.0  0.08448  0.92562  0.66857  1.0000
  H   H1439     1.0  0.09545  0.90622  0.67972  1.0000
  C   C1201     1.0  0.10595  0.83361  0.67779  1.0000
  C   C1202     1.0  0.10312  0.82590  0.67198  1.0000
  C   C1203     1.0  0.10960  0.82454  0.66014  1.0000
  C   C1204     1.0  0.11941  0.83037  0.65431  1.0000
  C   C1205     1.0  0.12242  0.83788  0.66021  1.0000
  C   C1206     1.0  0.11555  0.83970  0.67181  1.0000
  H   H1440     1.0  0.09597  0.82088  0.67669  1.0000
  H   H1441     1.0  0.10735  0.81857  0.65574  1.0000
  H   H1442     1.0  0.13005  0.84235  0.65579  1.0000
  H   H1443     1.0  0.11789  0.84556  0.67627  1.0000
  C   C1207     1.0  0.11954  0.88206  0.75017  1.0000
  C   C1208     1.0  0.10692  0.88455  0.75516  1.0000
  C   C1209     1.0  0.09856  0.88259  0.74934  1.0000
  C   C1210     1.0  0.10266  0.87812  0.73847  1.0000
  C   C1211     1.0  0.11530  0.87554  0.73356  1.0000
  C   C1212     1.0  0.12364  0.87756  0.73934  1.0000
  H   H1444     1.0  0.10357  0.88803  0.76346  1.0000
  H   H1445     1.0  0.08883  0.88452  0.75332  1.0000
  H   H1446     1.0  0.11872  0.87170  0.72549  1.0000
  H   H1447     1.0  0.13337  0.87557  0.73540  1.0000
  S   S340      1.0  0.13641  0.90918  0.77235  1.0000
  S   S341      1.0  0.07024  0.94103  0.59094  1.0000
  C   C1213     1.0  0.04295  0.85246  0.68981  1.0000
  C   C1214     1.0  0.10134  0.96592  0.62961  1.0000
  H   H1448     1.0  0.22654  0.56094  0.61098  1.0000
  H   H1449     1.0  0.06975  0.84551  0.69928  1.0000
  C   C1215     1.0  0.07288  0.83460  0.65955  1.0000
  C   C1216     1.0  0.13870  0.97404  0.60612  1.0000
  C   C1217     1.0  0.13078  0.96841  0.60321  1.0000
  C   C1218     1.0  0.12320  0.97514  0.59505  1.0000
  H   H1450     1.0  0.14479  0.96865  0.61213  1.0000
  H   H1451     1.0  0.13077  0.95882  0.60705  1.0000
  C   C1219     1.0  0.22057  0.61771  0.61132  1.0000
  C   C1220     1.0  0.22723  0.61708  0.59943  1.0000
  H   H1452     1.0  0.04921  0.84054  0.65805  1.0000
  C   C1221     1.0  0.13264  0.90674  0.72974  1.0000
  C   C1222     1.0  0.20153  0.62164  0.60428  1.0000
  C   C1223     1.0  0.20771  0.62001  0.61368  1.0000
  H   H1453     1.0  0.99999  0.83815  0.62334  1.0000
  C   C1224     1.0  0.05817  0.93407  0.63357  1.0000
  H   H1454     1.0  0.19162  0.62351  0.60623  1.0000
  H   H1455     1.0  0.20246  0.62057  0.62283  1.0000
  C   C1225     1.0  0.07579  0.86850  0.59190  1.0000
  N   N80       1.0  0.15450  0.79953  0.62290  1.0000
  C   C1226     1.0  0.15542  0.81217  0.61607  1.0000
  C   C1227     1.0  0.14139  0.79878  0.62578  1.0000
  C   C1228     1.0  0.15815  0.79734  0.63473  1.0000
  C   C1229     1.0  0.16266  0.79071  0.61549  1.0000
  C   C1230     1.0  0.17559  0.78951  0.61283  1.0000
  C   C1231     1.0  0.15811  0.78354  0.61024  1.0000
  C   C1232     1.0  0.18347  0.78148  0.60559  1.0000
  C   C1233     1.0  0.16606  0.77560  0.60296  1.0000
  C   C1234     1.0  0.17870  0.77454  0.60067  1.0000
  H   H1456     1.0  0.15302  0.81406  0.60698  1.0000
  H   H1457     1.0  0.14908  0.81917  0.62111  1.0000
  H   H1458     1.0  0.16482  0.81380  0.61443  1.0000
  H   H1459     1.0  0.13762  0.80143  0.61737  1.0000
  H   H1460     1.0  0.13554  0.80513  0.63177  1.0000
  H   H1461     1.0  0.14005  0.78940  0.63064  1.0000
  H   H1462     1.0  0.16737  0.79915  0.63360  1.0000
  H   H1463     1.0  0.15170  0.80351  0.64068  1.0000
  H   H1464     1.0  0.15819  0.78771  0.63986  1.0000
  H   H1465     1.0  0.17970  0.79493  0.61618  1.0000
  H   H1466     1.0  0.14842  0.78400  0.61144  1.0000
  H   H1467     1.0  0.19331  0.78074  0.60366  1.0000
  H   H1468     1.0  0.11853  0.87182  0.77996  1.0000
  H   H1469     1.0  0.18480  0.76841  0.59496  1.0000
  H   H1470     1.0  0.13681  0.98199  0.62835  1.0000
  C   C1235     1.0  0.13890  0.93772  0.58931  1.0000
  H   H1471     1.0  0.23315  0.66686  0.59922  1.0000
  C   C1236     1.0  0.22772  0.58291  0.60920  1.0000
  C   C1237     1.0  0.11474  0.79432  0.58341  1.0000
  S   S342      1.0  0.10659  0.86110  0.59293  1.0000
  H   H1472     1.0  0.11543  0.96866  0.65035  1.0000
  H   H1473     1.0  0.02538  0.93701  0.62920  1.0000
  C   C1238     1.0  0.09081  0.70308  0.59315  1.0000
  C   C1239     1.0  0.21651  0.64984  0.58590  1.0000
  H   H1474     1.0  0.13069  0.59348  0.59356  1.0000
  H   H1475     1.0  0.04601  0.95027  0.58736  1.0000
  S   S343      1.0  0.16720  0.62597  0.60130  1.0000
  H   H1476     1.0  0.07104  0.61379  0.60623  1.0000
  H   H1477     1.0  0.23715  0.64598  0.61148  1.0000
  H   H1478     1.0  0.09698  0.95951  0.62798  1.0000
  H   H1479     1.0  0.04876  0.85837  0.70295  1.0000
  H   H1480     1.0  0.11017  0.59669  0.58920  1.0000
  H   H1481     1.0  0.11533  0.91076  0.74206  1.0000
  C   C1240     1.0  0.06318  0.84542  0.69422  1.0000
  H   H1482     1.0  0.99623  0.91459  0.61873  1.0000
  H   H1483     1.0  0.04195  0.90627  0.59070  1.0000
  C   C1241     1.0  0.04637  0.84533  0.68097  1.0000
  Fe  Fe171     1.0  0.15918  0.64613  0.59737  1.0000
  C   C1242     1.0  0.05308  0.94390  0.62512  1.0000
  H   H1484     1.0  0.08056  0.83487  0.66341  1.0000
  H   H1485     1.0  0.06738  0.93380  0.63418  1.0000
  H   H1486     1.0  0.09776  0.68578  0.60415  1.0000
  H   H1487     1.0  0.13790  0.90660  0.73623  1.0000
  H   H1488     1.0  0.03396  0.91971  0.64400  1.0000
  C   C1243     1.0  0.22219  0.65122  0.59474  1.0000
  H   H1489     1.0  0.08918  0.79229  0.60717  1.0000
  C   C1244     1.0  0.99637  0.91881  0.59450  1.0000
  C   C1245     1.0  0.05134  0.85254  0.69638  1.0000
  H   H1490     1.0  0.07584  0.91405  0.64220  1.0000
  H   H1491     1.0  0.11208  0.88682  0.70962  1.0000
  C   C1246     1.0  0.07374  0.75299  0.59286  1.0000
  C   C1247     1.0  0.11875  0.89243  0.60061  1.0000
  H   H1492     1.0  0.12482  0.91261  0.68802  1.0000
  C   C1248     1.0  0.13183  0.90384  0.71017  1.0000
  C   C1249     1.0  0.06094  0.60547  0.59336  1.0000
  H   H1493     1.0  0.06922  0.81135  0.66825  1.0000
  Fe  Fe172     1.0  0.05277  0.64631  0.60056  1.0000
  H   H1494     1.0  0.13460  0.93009  0.58959  1.0000
  N   N81       1.0  0.05880  0.60233  0.60693  1.0000
  C   C1250     1.0  0.06161  0.61230  0.61078  1.0000
  C   C1251     1.0  0.06760  0.59084  0.61069  1.0000
  H   H1495     1.0  0.05381  0.61340  0.59018  1.0000
  C   C1252     1.0  0.04609  0.60052  0.61231  1.0000
  C   C1253     1.0  0.04141  0.59247  0.60835  1.0000
  C   C1254     1.0  0.03811  0.60640  0.62169  1.0000
  C   C1255     1.0  0.02933  0.59091  0.61302  1.0000
  C   C1256     1.0  0.02610  0.60461  0.62642  1.0000
  C   C1257     1.0  0.02167  0.59703  0.62199  1.0000
  H   H1496     1.0  0.06123  0.61019  0.62077  1.0000
  H   H1497     1.0  0.05510  0.62116  0.60840  1.0000
  H   H1498     1.0  0.06626  0.58814  0.62083  1.0000
  H   H1499     1.0  0.07730  0.59189  0.60689  1.0000
  H   H1500     1.0  0.06652  0.58306  0.60749  1.0000
  H   H1501     1.0  0.06095  0.59775  0.58944  1.0000
  H   H1502     1.0  0.10445  0.63532  0.58717  1.0000
  Fe  Fe173     1.0  0.13123  0.89134  0.77354  1.0000
  H   H1503     1.0  0.04699  0.58743  0.60149  1.0000
  H   H1504     1.0  0.02002  0.60956  0.63323  1.0000
  C   C1258     1.0  0.00850  0.66197  0.58311  1.0000
  H   H1505     1.0  0.19979  0.64906  0.58160  1.0000
  C   C1259     1.0  0.24271  0.64582  0.58139  1.0000
  N   N82       1.0  0.11518  0.66008  0.62273  1.0000
  C   C1260     1.0  0.12269  0.66054  0.63107  1.0000
  C   C1261     1.0  0.11981  0.66688  0.61030  1.0000
  C   C1262     1.0  0.10243  0.66653  0.62724  1.0000
  C   C1263     1.0  0.11606  0.64726  0.62209  1.0000
  C   C1264     1.0  0.10573  0.64297  0.62184  1.0000
  S   S344      1.0  0.15570  0.65659  0.61190  1.0000
  H   H1506     1.0  0.13268  0.65765  0.62754  1.0000
  H   H1507     1.0  0.12149  0.67003  0.63228  1.0000
  H   H1508     1.0  0.12026  0.65457  0.64023  1.0000
  H   H1509     1.0  0.12945  0.66255  0.60658  1.0000
  H   H1510     1.0  0.11966  0.67656  0.61021  1.0000
  H   H1511     1.0  0.11422  0.66698  0.60383  1.0000
  H   H1512     1.0  0.06946  0.80008  0.60045  1.0000
  H   H1513     1.0  0.07248  0.90652  0.65794  1.0000
  H   H1514     1.0  0.09645  0.66804  0.62073  1.0000
  H   H1515     1.0  0.09667  0.64879  0.62220  1.0000
  C   C1265     1.0  0.14652  0.67753  0.59619  1.0000
  H   H1516     1.0  0.05614  0.82543  0.65563  1.0000
  H   H1517     1.0  0.04482  0.82745  0.66933  1.0000
  H   H1518     1.0  0.04677  0.92353  0.66461  1.0000
  H   H1519     1.0  0.19943  0.93679  0.76003  1.0000
  C   C1266     1.0  0.06670  0.83828  0.68541  1.0000
  S   S345      1.0  0.10525  0.93755  0.58875  1.0000
  C   C1267     1.0  0.11879  0.90623  0.71319  1.0000
  H   H1520     1.0  0.13767  0.62084  0.61824  1.0000
  H   H1521     1.0  0.11931  0.61371  0.61867  1.0000
  S   S346      1.0  0.12389  0.90448  0.60303  1.0000
  H   H1522     1.0  0.05233  0.90738  0.66937  1.0000
  C   C1268     1.0  0.03949  0.92638  0.63903  1.0000
  H   H1523     1.0  0.05188  0.88493  0.59025  1.0000
  C   C1269     1.0  0.19645  0.65279  0.59944  1.0000
  H   H1524     1.0  0.06855  0.68641  0.58761  1.0000
  N   N83       1.0  0.07462  0.76517  0.58470  1.0000
  C   C1270     1.0  0.08227  0.70958  0.58594  1.0000
  C   C1271     1.0  0.05730  0.90285  0.64628  1.0000
  H   H1525     1.0  0.10207  0.77226  0.60366  1.0000
  C   C1272     1.0  0.08608  0.78684  0.60283  1.0000
  H   H1526     1.0  0.06717  0.75392  0.60169  1.0000
  C   C1273     1.0  0.20818  0.62088  0.59242  1.0000
  C   C1274     1.0  0.18960  0.93480  0.77881  1.0000
  C   C1275     1.0  0.09331  0.77552  0.60089  1.0000
  C   C1276     1.0  0.21430  0.65382  0.60586  1.0000
  S   S347      1.0  0.16923  0.90285  0.77894  1.0000
  C   C1277     1.0  0.14030  0.69760  0.60135  1.0000
  Fe  Fe174     1.0  0.07836  0.63586  0.58723  1.0000
  H   H1527     1.0  0.09820  0.66131  0.63622  1.0000
  H   H1528     1.0  0.23897  0.57662  0.62837  1.0000
  H   H1529     1.0  0.12969  0.75981  0.58425  1.0000
  H   H1530     1.0  0.02942  0.65706  0.59089  1.0000
  H   H1531     1.0  0.07003  0.60796  0.58908  1.0000
  H   H1532     1.0  0.16232  0.77036  0.59895  1.0000
  H   H1533     1.0  0.24116  0.63660  0.58190  1.0000
  S   S348      1.0  0.09135  0.61797  0.58493  1.0000
  H   H1534     1.0  0.24075  0.59133  0.61885  1.0000
  S   S349      1.0  0.11400  0.96825  0.59000  1.0000
  N   N84       1.0  0.09785  0.87203  0.64140  1.0000
  C   C1278     1.0  0.09769  0.88153  0.64786  1.0000
  C   C1279     1.0  0.09558  0.86087  0.65084  1.0000
  C   C1280     1.0  0.11030  0.86888  0.63377  1.0000
  C   C1281     1.0  0.08874  0.87679  0.63349  1.0000
  C   C1282     1.0  0.07924  0.87075  0.63439  1.0000
  C   C1283     1.0  0.08935  0.88770  0.62436  1.0000
  C   C1284     1.0  0.07074  0.87557  0.62684  1.0000
  C   C1285     1.0  0.08087  0.89239  0.61678  1.0000
  C   C1286     1.0  0.07155  0.88637  0.61804  1.0000
  H   H1535     1.0  0.10437  0.87818  0.65400  1.0000
  H   H1536     1.0  0.10032  0.88991  0.64148  1.0000
  H   H1537     1.0  0.08843  0.88432  0.65357  1.0000
  H   H1538     1.0  0.08631  0.86251  0.65689  1.0000
  H   H1539     1.0  0.10224  0.85791  0.65694  1.0000
  H   H1540     1.0  0.09669  0.85294  0.64667  1.0000
  H   H1541     1.0  0.11334  0.87712  0.62746  1.0000
  H   H1542     1.0  0.11735  0.86446  0.63943  1.0000
  H   H1543     1.0  0.11063  0.86240  0.62809  1.0000
  H   H1544     1.0  0.07827  0.86219  0.64074  1.0000
  H   H1545     1.0  0.09660  0.89256  0.62280  1.0000
  H   H1546     1.0  0.06353  0.87081  0.62776  1.0000
  H   H1547     1.0  0.08172  0.90060  0.60970  1.0000
  H   H1548     1.0  0.06506  0.89001  0.61208  1.0000
  S   S350      1.0  0.10869  0.73627  0.58542  1.0000
  C   C1287     1.0  0.07500  0.79122  0.59897  1.0000
  C   C1288     1.0  0.04123  0.94504  0.62370  1.0000
  S   S351      1.0  0.14401  0.60962  0.59596  1.0000
  H   H1549     1.0  0.21783  0.65525  0.61293  1.0000
  N   N85       1.0  0.24097  0.57777  0.60916  1.0000
  C   C1289     1.0  0.09116  0.69066  0.59857  1.0000
  H   H1550     1.0  0.06983  0.84387  0.65409  1.0000
  C   C1290     1.0  0.02119  0.62383  0.59670  1.0000
  H   H1551     1.0  0.08079  0.87235  0.59640  1.0000
  C   C1291     1.0  0.05845  0.83805  0.67844  1.0000
  C   C1292     1.0  0.14142  0.69016  0.59324  1.0000
  C   C1293     1.0  0.05149  0.92499  0.64081  1.0000
  C   C1294     1.0  0.12206  0.62443  0.59054  1.0000
  H   H1552     1.0  0.13965  0.86064  0.77145  1.0000
  H   H1553     1.0  0.10209  0.67587  0.62835  1.0000
  C   C1295     1.0  0.12764  0.63896  0.62059  1.0000
  C   C1296     1.0  0.11932  0.85105  0.77408  1.0000
  H   H1554     1.0  0.13267  0.97716  0.64462  1.0000
  H   H1555     1.0  0.10534  0.95445  0.64649  1.0000
  C   C1297     1.0  0.13895  0.98651  0.60116  1.0000
  S   S352      1.0  0.00021  0.61506  0.60121  1.0000
  H   H1556     1.0  0.06894  0.92284  0.65397  1.0000
  C   C1298     1.0  0.23605  0.55702  0.61135  1.0000
  C   C1299     1.0  0.02893  0.62997  0.59913  1.0000
  Fe  Fe175     1.0  0.15429  0.62487  0.59046  1.0000
  H   H1557     1.0  0.13358  0.87841  0.60686  1.0000
  C   C1300     1.0  0.11299  0.90876  0.72496  1.0000
  H   H1558     1.0  0.12669  0.86125  0.60354  1.0000
  S   S353      1.0  0.14496  0.64469  0.58843  1.0000
  H   H1559     1.0  0.07684  0.82838  0.65301  1.0000
  S   S354      1.0  0.05486  0.66580  0.59262  1.0000
  H   H1560     1.0  0.18669  0.65296  0.60140  1.0000
  H   H1561     1.0  0.08046  0.85870  0.59217  1.0000
  H   H1562     1.0  0.05506  0.77202  0.58930  1.0000
  H   H1563     1.0  0.09643  0.88705  0.59004  1.0000
  C   C1301     1.0  0.12033  0.84889  0.75336  1.0000
  C   C1302     1.0  0.23762  0.66305  0.59089  1.0000
  C   C1303     1.0  0.12538  0.88029  0.60331  1.0000
  C   C1304     1.0  0.08321  0.68456  0.59654  1.0000
  C   C1305     1.0  0.11508  0.91516  0.69276  1.0000
  H   H1564     1.0  0.09883  0.97894  0.61294  1.0000
  N   N86       1.0  0.11184  0.90613  0.70425  1.0000
  H   H1565     1.0  0.11044  0.89361  0.69426  1.0000
  C   C1306     1.0  0.12870  0.62697  0.61956  1.0000
  C   C1307     1.0  0.12944  0.61258  0.59250  1.0000
  H   H1566     1.0  0.22179  0.57904  0.61789  1.0000
  Fe  Fe176     1.0  0.07404  0.65926  0.59583  1.0000
  C   C1308     1.0  0.11340  0.60446  0.58963  1.0000
  H   H1567     1.0  0.03924  0.91274  0.66264  1.0000
  H   H1568     1.0  0.03787  0.63028  0.59333  1.0000
  C   C1309     1.0  0.11836  0.62294  0.61976  1.0000
  N   N87       1.0  0.06251  0.83046  0.66908  1.0000
  H   H1569     1.0  0.22533  0.59301  0.60844  1.0000
  H   H1570     1.0  0.07504  0.81598  0.67860  1.0000
  H   H1571     1.0  0.05942  0.81415  0.68260  1.0000
  C   C1310     1.0  0.23976  0.54428  0.61265  1.0000
  H   H1572     1.0  0.14558  0.93384  0.59538  1.0000
  C   C1311     1.0  0.11987  0.90913  0.73300  1.0000
  C   C1312     1.0  0.13862  0.90406  0.71836  1.0000
  H   H1573     1.0  0.10330  0.84903  0.74916  1.0000
  H   H1574     1.0  0.17004  0.96018  0.58951  1.0000
  H   H1575     1.0  0.06284  0.90279  0.63684  1.0000
  H   H1576     1.0  0.02706  0.94221  0.59509  1.0000
  C   C1313     1.0  0.10609  0.96310  0.64005  1.0000
  C   C1314     1.0  0.20166  0.65444  0.60818  1.0000
  H   H1577     1.0  0.19588  0.65602  0.61690  1.0000
  H   H1578     1.0  0.04070  0.61278  0.62528  1.0000
  H   H1579     1.0  0.13489  0.77099  0.59700  1.0000
  C   C1315     1.0  0.07468  0.69104  0.58928  1.0000
  C   C1316     1.0  0.12504  0.60264  0.59206  1.0000
  H   H1580     1.0  0.23878  0.63320  0.60491  1.0000
  N   N88       1.0  0.23556  0.65060  0.59246  1.0000
  H   H1581     1.0  0.14757  0.67179  0.58989  1.0000
  H   H1582     1.0  0.99733  0.90923  0.59375  1.0000
  C   C1317     1.0  0.17842  0.68483  0.58256  1.0000
  H   H1583     1.0  0.23711  0.61537  0.59743  1.0000
  H   H1584     1.0  0.12556  0.84832  0.74419  1.0000
  C   C1318     1.0  0.10659  0.85111  0.77669  1.0000
  H   H1585     1.0  0.23318  0.53891  0.61325  1.0000
  S   S355      1.0  0.05973  0.64018  0.58283  1.0000
  Fe  Fe177     1.0  0.12576  0.72187  0.58192  1.0000
  C   C1319     1.0  0.05725  0.89182  0.58564  1.0000
  H   H1586     1.0  0.09708  0.70767  0.59467  1.0000
  C   C1320     1.0  0.07408  0.70360  0.58415  1.0000
  H   H1587     1.0  0.21916  0.92435  0.76509  1.0000
  H   H1588     1.0  0.13163  0.94479  0.59349  1.0000
  C   C1321     1.0  0.12840  0.77577  0.59122  1.0000
  H   H1589     1.0  0.09575  0.76009  0.59334  1.0000
  C   C1322     1.0  0.10778  0.84926  0.75615  1.0000
  H   H1590     1.0  0.18434  0.67735  0.58750  1.0000
  C   C1323     1.0  0.13822  0.85269  0.77921  1.0000
  H   H1591     1.0  0.00570  0.81878  0.61607  1.0000
  C   C1324     1.0  0.16322  0.96170  0.58415  1.0000
  H   H1592     1.0  0.18125  0.94045  0.77615  1.0000
  C   C1325     1.0  0.20384  0.65065  0.58828  1.0000
  H   H1593     1.0  0.14380  0.84411  0.77632  1.0000
  C   C1326     1.0  0.10230  0.97693  0.62121  1.0000
  C   C1327     1.0  0.10092  0.85034  0.76780  1.0000
  H   H1594     1.0  0.00530  0.91931  0.59603  1.0000
  H   H1595     1.0  0.16067  0.71301  0.58479  1.0000
  C   C1328     1.0  0.17301  0.69540  0.58715  1.0000
  C   C1329     1.0  0.05147  0.90401  0.58598  1.0000
  C   C1330     1.0  0.12547  0.76939  0.58399  1.0000
  C   C1331     1.0  0.13184  0.98523  0.63690  1.0000
  H   H1596     1.0  0.99672  0.62875  0.62006  1.0000
  H   H1597     1.0  0.07069  0.74712  0.58859  1.0000
  C   C1332     1.0  0.11287  0.98267  0.63385  1.0000
  C   C1333     1.0  0.24373  0.58126  0.61933  1.0000
  C   C1334     1.0  0.15874  0.95189  0.58350  1.0000
  C   C1335     1.0  0.00439  0.65147  0.58309  1.0000
  H   H1598     1.0  0.12532  0.63214  0.59101  1.0000
  H   H1599     1.0  0.99517  0.92484  0.58547  1.0000
  Fe  Fe178     1.0  0.14076  0.96973  0.81482  1.0000
  S   S356      1.0  0.15277  0.98164  0.81582  1.0000
  N   N89       1.0  0.16702  0.88314  0.84865  1.0000
  Fe  Fe179     1.0  0.12378  0.97296  0.83917  1.0000
  C   C1336     1.0  0.13495  0.83351  0.96946  1.0000
  S   S357      1.0  0.10592  0.97110  0.85248  1.0000
  Fe  Fe180     1.0  0.15101  0.97141  0.83536  1.0000
  S   S358      1.0  0.16626  0.96348  0.84559  1.0000
  C   C1337     1.0  0.12456  0.93207  0.90528  1.0000
  S   S359      1.0  0.14032  0.95857  0.83386  1.0000
  H   H1600     1.0  0.10932  0.83750  0.94831  1.0000
  C   C1338     1.0  0.15444  0.94479  0.87881  1.0000
  Fe  Fe181     1.0  0.21591  0.91260  0.82430  1.0000
  S   S360      1.0  0.20127  0.90205  0.83417  1.0000
  S   S361      1.0  0.21201  0.93254  0.81520  1.0000
  Fe  Fe182     1.0  0.21364  0.89276  0.84735  1.0000
  S   S362      1.0  0.20674  0.88646  0.86740  1.0000
  Fe  Fe183     1.0  0.21246  0.88780  0.82355  1.0000
  H   H1601     1.0  0.14163  0.93689  0.86614  1.0000
  S   S363      1.0  0.22707  0.90496  0.83871  1.0000
  C   C1339     1.0  0.23426  0.85406  0.87322  1.0000
  Fe  Fe184     1.0  0.13339  0.88218  0.80033  1.0000
  S   S364      1.0  0.13880  0.89886  0.80126  1.0000
  S   S365      1.0  0.13148  0.86592  0.81597  1.0000
  N   N90       1.0  0.12496  0.83334  0.96378  1.0000
  S   S366      1.0  0.11750  0.89235  0.79142  1.0000
  Fe  Fe185     1.0  0.12967  0.88058  0.87912  1.0000
  S   S367      1.0  0.12908  0.90014  0.86935  1.0000
  S   S368      1.0  0.13451  0.86448  0.87008  1.0000
  Fe  Fe186     1.0  0.12191  0.88649  0.90451  1.0000
  S   S369      1.0  0.12051  0.90663  0.89689  1.0000
  S   S370      1.0  0.11547  0.87965  0.92484  1.0000
  Fe  Fe187     1.0  0.11168  0.90425  0.88310  1.0000
  S   S371      1.0  0.09534  0.91834  0.87797  1.0000
  Fe  Fe188     1.0  0.13802  0.90101  0.88387  1.0000
  S   S372      1.0  0.15129  0.91337  0.87828  1.0000
  S   S373      1.0  0.11132  0.88454  0.89178  1.0000
  S   S374      1.0  0.14037  0.88092  0.89256  1.0000
  S   S375      1.0  0.15041  0.86253  0.96280  1.0000
  C   C1340     1.0  0.12543  0.87516  0.93511  1.0000
  C   C1341     1.0  0.12046  0.87203  0.94766  1.0000
  C   C1342     1.0  0.12804  0.86833  0.95617  1.0000
  C   C1343     1.0  0.14067  0.86759  0.95224  1.0000
  C   C1344     1.0  0.14567  0.87084  0.93968  1.0000
  C   C1345     1.0  0.13807  0.87466  0.93111  1.0000
  H   H1602     1.0  0.11068  0.87253  0.95079  1.0000
  H   H1603     1.0  0.12410  0.86602  0.96576  1.0000
  H   H1604     1.0  0.15545  0.87034  0.93655  1.0000
  H   H1605     1.0  0.14198  0.87709  0.92145  1.0000
  C   C1346     1.0  0.13303  0.86618  0.83061  1.0000
  C   C1347     1.0  0.13302  0.85533  0.83954  1.0000
  C   C1348     1.0  0.13359  0.85506  0.85148  1.0000
  C   C1349     1.0  0.13387  0.86569  0.85478  1.0000
  C   C1350     1.0  0.13394  0.87665  0.84588  1.0000
  C   C1351     1.0  0.13372  0.87683  0.83373  1.0000
  H   H1606     1.0  0.13254  0.84706  0.83724  1.0000
  H   H1607     1.0  0.13363  0.84656  0.85825  1.0000
  H   H1608     1.0  0.13420  0.88491  0.84833  1.0000
  H   H1609     1.0  0.13377  0.88523  0.82689  1.0000
  C   C1352     1.0  0.19149  0.89415  0.87118  1.0000
  C   C1353     1.0  0.18771  0.90616  0.86494  1.0000
  C   C1354     1.0  0.17535  0.91211  0.86742  1.0000
  C   C1355     1.0  0.16674  0.90596  0.87598  1.0000
  C   C1356     1.0  0.17050  0.89397  0.88228  1.0000
  C   C1357     1.0  0.18293  0.88809  0.87997  1.0000
  H   H1610     1.0  0.19434  0.91086  0.85822  1.0000
  H   H1611     1.0  0.17243  0.92137  0.86251  1.0000
  H   H1612     1.0  0.16388  0.88925  0.88900  1.0000
  H   H1613     1.0  0.18588  0.87878  0.88478  1.0000
  Fe  Fe189     1.0  0.23670  0.89070  0.82763  1.0000
  C   C1358     1.0  0.19573  0.89423  0.79845  1.0000
  H   H1614     1.0  0.16138  0.88814  0.82538  1.0000
  H   H1615     1.0  0.20369  0.89753  0.79815  1.0000
  H   H1616     1.0  0.13211  0.81462  0.96198  1.0000
  C   C1359     1.0  0.17905  0.95492  0.83718  1.0000
  C   C1360     1.0  0.18335  0.95950  0.82477  1.0000
  C   C1361     1.0  0.19378  0.95276  0.81818  1.0000
  C   C1362     1.0  0.19957  0.94119  0.82384  1.0000
  C   C1363     1.0  0.19519  0.93651  0.83622  1.0000
  C   C1364     1.0  0.18507  0.94348  0.84295  1.0000
  H   H1617     1.0  0.17883  0.96839  0.82031  1.0000
  H   H1618     1.0  0.19723  0.95645  0.80864  1.0000
  H   H1619     1.0  0.19969  0.92761  0.84065  1.0000
  H   H1620     1.0  0.18181  0.93994  0.85257  1.0000
  C   C1365     1.0  0.10323  0.95625  0.85896  1.0000
  C   C1366     1.0  0.09155  0.95495  0.86591  1.0000
  C   C1367     1.0  0.08919  0.94327  0.87161  1.0000
  C   C1368     1.0  0.09863  0.93285  0.87081  1.0000
  C   C1369     1.0  0.11039  0.93413  0.86401  1.0000
  C   C1370     1.0  0.11258  0.94580  0.85777  1.0000
  H   H1621     1.0  0.08426  0.96299  0.86683  1.0000
  H   H1622     1.0  0.08008  0.94233  0.87680  1.0000
  H   H1623     1.0  0.11774  0.92614  0.86334  1.0000
  H   H1624     1.0  0.12150  0.94667  0.85213  1.0000
  H   H1625     1.0  0.13928  0.96630  0.88267  1.0000
  C   C1371     1.0  0.11182  0.90802  0.97975  1.0000
  H   H1626     1.0  0.23270  0.87221  0.86197  1.0000
  C   C1372     1.0  0.16075  0.89474  0.84161  1.0000
  C   C1373     1.0  0.13971  0.94322  0.79077  1.0000
  H   H1627     1.0  0.14332  0.93255  0.89825  1.0000
  H   H1628     1.0  0.10138  0.87846  0.87159  1.0000
  H   H1629     1.0  0.09745  0.89360  0.98057  1.0000
  C   C1374     1.0  0.13252  0.93521  0.79087  1.0000
  H   H1630     1.0  0.14617  0.84059  0.94767  1.0000
  C   C1375     1.0  0.17512  0.94485  0.80115  1.0000
  H   H1631     1.0  0.13491  0.89595  0.97484  1.0000
  H   H1632     1.0  0.17523  0.87306  0.83430  1.0000
  C   C1376     1.0  0.11740  0.94267  0.80762  1.0000
  H   H1633     1.0  0.13554  0.92943  0.78427  1.0000
  S   S376      1.0  0.22633  0.89913  0.81247  1.0000
  H   H1634     1.0  0.16733  0.94684  0.80891  1.0000
  H   H1635     1.0  0.17874  0.89223  0.85308  1.0000
  C   C1377     1.0  0.18040  0.92470  0.81341  1.0000
  H   H1636     1.0  0.22471  0.85575  0.87797  1.0000
  C   C1378     1.0  0.12128  0.93500  0.79918  1.0000
  H   H1637     1.0  0.16764  0.88167  0.79901  1.0000
  H   H1638     1.0  0.09702  0.90660  0.96265  1.0000
  H   H1639     1.0  0.23894  0.92408  0.81313  1.0000
  H   H1640     1.0  0.14378  0.82751  0.96599  1.0000
  C   C1379     1.0  0.10708  0.88872  0.98079  1.0000
  H   H1641     1.0  0.10260  0.91318  0.97813  1.0000
  C   C1380     1.0  0.18994  0.92953  0.79129  1.0000
  H   H1642     1.0  0.23847  0.83551  0.88323  1.0000
  H   H1643     1.0  0.11198  0.83800  0.98000  1.0000
  N   N91       1.0  0.12499  0.85228  0.78356  1.0000
  C   C1381     1.0  0.12391  0.84179  0.79414  1.0000
  H   H1644     1.0  0.13281  0.83009  0.97954  1.0000
  C   C1382     1.0  0.11680  0.90010  0.96137  1.0000
  H   H1645     1.0  0.09793  0.91044  0.94074  1.0000
  H   H1646     1.0  0.11783  0.90674  0.92625  1.0000
  S   S377      1.0  0.12325  0.98306  0.81992  1.0000
  N   N92       1.0  0.11603  0.89676  0.97475  1.0000
  C   C1383     1.0  0.12365  0.82046  0.96643  1.0000
  H   H1647     1.0  0.17209  0.95052  0.79267  1.0000
  S   S378      1.0  0.13437  0.98485  0.84246  1.0000
  C   C1384     1.0  0.10636  0.90735  0.94412  1.0000
  C   C1385     1.0  0.11758  0.90543  0.93590  1.0000
  H   H1648     1.0  0.13642  0.84297  0.96782  1.0000
  H   H1649     1.0  0.22883  0.93805  0.82564  1.0000
  H   H1650     1.0  0.18081  0.87127  0.81404  1.0000
  C   C1386     1.0  0.15691  0.90557  0.84633  1.0000
  C   C1387     1.0  0.15063  0.91653  0.84009  1.0000
  C   C1388     1.0  0.15244  0.90685  0.82361  1.0000
  C   C1389     1.0  0.14830  0.91715  0.82879  1.0000
  H   H1651     1.0  0.11830  0.91432  0.97548  1.0000
  H   H1652     1.0  0.16361  0.87128  0.86659  1.0000
  H   H1653     1.0  0.15870  0.90564  0.85494  1.0000
  H   H1654     1.0  0.14760  0.92458  0.84407  1.0000
  H   H1655     1.0  0.15098  0.90745  0.81464  1.0000
  H   H1656     1.0  0.14342  0.92566  0.82395  1.0000
  H   H1657     1.0  0.10446  0.87113  0.83661  1.0000
  H   H1658     1.0  0.15963  0.88712  0.86674  1.0000
  C   C1390     1.0  0.18282  0.87943  0.80744  1.0000
  H   H1659     1.0  0.10913  0.88080  0.97637  1.0000
  H   H1660     1.0  0.12648  0.92514  0.91328  1.0000
  H   H1661     1.0  0.17175  0.92621  0.82041  1.0000
  H   H1662     1.0  0.11909  0.92000  0.82484  1.0000
  C   C1391     1.0  0.19281  0.88409  0.80745  1.0000
  H   H1663     1.0  0.18332  0.91464  0.81382  1.0000
  H   H1664     1.0  0.15980  0.93018  0.80518  1.0000
  H   H1665     1.0  0.18422  0.87604  0.85457  1.0000
  C   C1392     1.0  0.17928  0.88440  0.84904  1.0000
  C   C1393     1.0  0.15982  0.88048  0.86136  1.0000
  H   H1666     1.0  0.15702  0.93467  0.87972  1.0000
  C   C1394     1.0  0.11341  0.84068  0.96986  1.0000
  H   H1667     1.0  0.10252  0.86400  0.85897  1.0000
  S   S379      1.0  0.22404  0.87786  0.83739  1.0000
  H   H1668     1.0  0.14733  0.96717  0.86697  1.0000
  H   H1669     1.0  0.11884  0.90586  0.82185  1.0000
  H   H1670     1.0  0.11584  0.81963  0.96308  1.0000
  H   H1671     1.0  0.16649  0.93256  0.78940  1.0000
  H   H1672     1.0  0.12193  0.95614  0.81444  1.0000
  H   H1673     1.0  0.21580  0.93878  0.84582  1.0000
  C   C1395     1.0  0.16878  0.87232  0.84336  1.0000
  C   C1396     1.0  0.11257  0.93613  0.90347  1.0000
  H   H1674     1.0  0.17061  0.91787  0.79886  1.0000
  H   H1675     1.0  0.10885  0.86377  0.79256  1.0000
  C   C1397     1.0  0.15852  0.89576  0.82990  1.0000
  H   H1676     1.0  0.16167  0.94853  0.87131  1.0000
  H   H1677     1.0  0.22056  0.91559  0.78670  1.0000
  H   H1678     1.0  0.15508  0.94701  0.88730  1.0000
  H   H1679     1.0  0.10206  0.89971  0.86246  1.0000
  H   H1680     1.0  0.11269  0.84624  0.92637  1.0000
  C   C1398     1.0  0.13983  0.96348  0.87409  1.0000
  C   C1399     1.0  0.13421  0.93651  0.89655  1.0000
  C   C1400     1.0  0.12730  0.83820  0.95039  1.0000
  C   C1401     1.0  0.13865  0.84131  0.94351  1.0000
  C   C1402     1.0  0.11811  0.83981  0.94378  1.0000
  C   C1403     1.0  0.14049  0.84593  0.93088  1.0000
  C   C1404     1.0  0.11998  0.84464  0.93118  1.0000
  C   C1405     1.0  0.13114  0.84773  0.92476  1.0000
  N   N93       1.0  0.14201  0.94993  0.87607  1.0000
  H   H1681     1.0  0.11736  0.95598  0.87627  1.0000
  C   C1406     1.0  0.11968  0.94943  0.88433  1.0000
  H   H1682     1.0  0.10561  0.89230  0.82675  1.0000
  H   H1683     1.0  0.13119  0.96821  0.87088  1.0000
  H   H1684     1.0  0.12471  0.90580  0.83467  1.0000
  C   C1407     1.0  0.13203  0.94537  0.88578  1.0000
  H   H1685     1.0  0.10512  0.83953  0.96763  1.0000
  N   N94       1.0  0.17876  0.93162  0.80098  1.0000
  C   C1408     1.0  0.22548  0.93450  0.84499  1.0000
  H   H1686     1.0  0.12846  0.83293  0.79130  1.0000
  H   H1687     1.0  0.14907  0.84857  0.92586  1.0000
  C   C1409     1.0  0.20151  0.92275  0.79386  1.0000
  H   H1688     1.0  0.13244  0.85178  0.91505  1.0000
  N   N95       1.0  0.10504  0.91102  0.83732  1.0000
  C   C1410     1.0  0.09574  0.91685  0.82967  1.0000
  C   C1411     1.0  0.10351  0.91905  0.84587  1.0000
  C   C1412     1.0  0.11747  0.91064  0.82935  1.0000
  C   C1413     1.0  0.10371  0.89834  0.84354  1.0000
  C   C1414     1.0  0.10423  0.88978  0.83660  1.0000
  C   C1415     1.0  0.10247  0.89395  0.85639  1.0000
  C   C1416     1.0  0.10358  0.87760  0.84217  1.0000
  C   C1417     1.0  0.10195  0.88172  0.86183  1.0000
  C   C1418     1.0  0.10254  0.87356  0.85474  1.0000
  H   H1689     1.0  0.08628  0.91669  0.83524  1.0000
  H   H1690     1.0  0.09621  0.92656  0.82524  1.0000
  H   H1691     1.0  0.09712  0.91229  0.82200  1.0000
  H   H1692     1.0  0.09433  0.91969  0.85222  1.0000
  H   H1693     1.0  0.10429  0.92859  0.84097  1.0000
  H   H1694     1.0  0.11069  0.91565  0.85140  1.0000
  H   H1695     1.0  0.15019  0.88065  0.86138  1.0000
  H   H1696     1.0  0.13417  0.95232  0.86055  1.0000
  S   S380      1.0  0.20163  0.87692  0.81865  1.0000
  H   H1697     1.0  0.18513  0.88587  0.83967  1.0000
  C   C1419     1.0  0.12813  0.89867  0.95269  1.0000
  C   C1420     1.0  0.14207  0.94667  0.86457  1.0000
  C   C1421     1.0  0.17542  0.88523  0.79884  1.0000
  S   S381      1.0  0.14564  0.96017  0.79918  1.0000
  C   C1422     1.0  0.13602  0.95066  0.79935  1.0000
  H   H1698     1.0  0.15990  0.87105  0.84244  1.0000
  C   C1423     1.0  0.10594  0.90492  0.95666  1.0000
  H   H1699     1.0  0.15049  0.94802  0.85748  1.0000
  C   C1424     1.0  0.12488  0.95032  0.80786  1.0000
  H   H1700     1.0  0.10867  0.94265  0.81400  1.0000
  Fe  Fe190     1.0  0.12405  0.90909  0.79099  1.0000
  H   H1701     1.0  0.17294  0.86367  0.84916  1.0000
  C   C1425     1.0  0.12844  0.90137  0.94015  1.0000
  C   C1426     1.0  0.24266  0.92362  0.85438  1.0000
  S   S382      1.0  0.11221  0.92503  0.79916  1.0000
  C   C1427     1.0  0.21189  0.92094  0.78449  1.0000
  H   H1702     1.0  0.11419  0.84140  0.79856  1.0000
  H   H1703     1.0  0.13690  0.89505  0.95531  1.0000
  H   H1704     1.0  0.10519  0.93235  0.91004  1.0000
  H   H1705     1.0  0.18729  0.92770  0.81636  1.0000
  H   H1706     1.0  0.20278  0.91862  0.80306  1.0000
  C   C1428     1.0  0.11014  0.94477  0.89300  1.0000
  H   H1707     1.0  0.13715  0.89971  0.93372  1.0000
  H   H1708     1.0  0.18290  0.94823  0.80200  1.0000
  C   C1429     1.0  0.16852  0.92788  0.79850  1.0000
  H   H1709     1.0  0.10086  0.85197  0.78557  1.0000
  H   H1710     1.0  0.12824  0.84241  0.80139  1.0000
  H   H1711     1.0  0.10087  0.94767  0.89141  1.0000
  C   C1430     1.0  0.17834  0.89538  0.78983  1.0000
  H   H1712     1.0  0.11351  0.85060  0.96715  1.0000
  C   C1431     1.0  0.23877  0.86335  0.86417  1.0000
  H   H1713     1.0  0.13173  0.88163  0.97450  1.0000
  C   C1432     1.0  0.24204  0.84270  0.87614  1.0000
  H   H1714     1.0  0.12195  0.81647  0.97646  1.0000
  C   C1433     1.0  0.18864  0.89973  0.78952  1.0000
  C   C1434     1.0  0.11855  0.86378  0.78781  1.0000
  C   C1435     1.0  0.12795  0.89014  0.97817  1.0000
  H   H1715     1.0  0.12302  0.86536  0.79444  1.0000
  C   C1436     1.0  0.23306  0.93405  0.83344  1.0000
  H   H1716     1.0  0.14214  0.85379  0.78652  1.0000
  H   H1717     1.0  0.22431  0.92938  0.86441  1.0000
  H   H1718     1.0  0.14810  0.94371  0.78393  1.0000
  Fe  Fe191     1.0  0.15082  0.89778  0.78285  1.0000
  C   C1437     1.0  0.23026  0.92922  0.85545  1.0000
  S   S383      1.0  0.14679  0.87998  0.78268  1.0000
  H   H1719     1.0  0.24351  0.94426  0.80990  1.0000
  H   H1720     1.0  0.19109  0.90739  0.78238  1.0000
  H   H1721     1.0  0.49129  0.41383  0.11958  1.0000
  S   S384      1.0  0.48156  0.38078  0.12843  1.0000
  N   N96       1.0  0.44998  0.06482  0.14156  1.0000
  Fe  Fe192     1.0  0.48438  0.10722  0.11095  1.0000
  S   S385      1.0  0.47410  0.11178  0.09591  1.0000
  Fe  Fe193     1.0  0.46138  0.10447  0.13086  1.0000
  S   S386      1.0  0.44905  0.10909  0.11761  1.0000
  S   S387      1.0  0.45471  0.09705  0.15088  1.0000
  Fe  Fe194     1.0  0.46413  0.09692  0.10704  1.0000
  S   S388      1.0  0.46128  0.08291  0.09841  1.0000
  Fe  Fe195     1.0  0.45991  0.12358  0.10764  1.0000
  S   S389      1.0  0.45004  0.14169  0.09846  1.0000
  S   S390      1.0  0.47575  0.09112  0.12103  1.0000
  S   S391      1.0  0.47084  0.12023  0.12199  1.0000
  H   H1722     1.0  0.45742  0.06024  0.12378  1.0000
  H   H1723     1.0  0.45306  0.34270  0.12057  1.0000
  H   H1724     1.0  0.45834  0.37537  0.12978  1.0000
  Fe  Fe196     1.0  0.37855  0.05100  0.11008  1.0000
  S   S392      1.0  0.38391  0.05048  0.12755  1.0000
  S   S393      1.0  0.37782  0.03288  0.10596  1.0000
  Fe  Fe197     1.0  0.37988  0.07821  0.10059  1.0000
  S   S394      1.0  0.38526  0.07969  0.11706  1.0000
  S   S395      1.0  0.37835  0.09430  0.08458  1.0000
  Fe  Fe198     1.0  0.39781  0.06147  0.11587  1.0000
  S   S396      1.0  0.41635  0.05719  0.12072  1.0000
  Fe  Fe199     1.0  0.37102  0.06876  0.12743  1.0000
  S   S397      1.0  0.35906  0.07547  0.14406  1.0000
  S   S398      1.0  0.39370  0.06065  0.09836  1.0000
  S   S399      1.0  0.36438  0.06869  0.11094  1.0000
  Fe  Fe200     1.0  0.38347  0.16136  0.12002  1.0000
  S   S400      1.0  0.38638  0.17100  0.10028  1.0000
  S   S401      1.0  0.39771  0.15551  0.13132  1.0000
  Fe  Fe201     1.0  0.35727  0.16094  0.12173  1.0000
  S   S402      1.0  0.35778  0.17064  0.10218  1.0000
  S   S403      1.0  0.34027  0.15511  0.13382  1.0000
  Fe  Fe202     1.0  0.37611  0.15785  0.09855  1.0000
  S   S404      1.0  0.38195  0.14844  0.08270  1.0000
  Fe  Fe203     1.0  0.36794  0.18281  0.10587  1.0000
  S   S405      1.0  0.36329  0.20332  0.09888  1.0000
  S   S406      1.0  0.37483  0.14725  0.11780  1.0000
  S   S407      1.0  0.36577  0.17412  0.12585  1.0000
  H   H1725     1.0  0.48310  0.34744  0.13548  1.0000
  H   H1726     1.0  0.36444  0.13080  0.16435  1.0000
  S   S408      1.0  0.33929  0.00732  0.09665  1.0000
  H   H1727     1.0  0.34248  0.13938  0.08288  1.0000
  H   H1728     1.0  0.35478  0.99926  0.06616  1.0000
  H   H1729     1.0  0.39207  0.34625  0.09200  1.0000
  Fe  Fe204     1.0  0.38917  0.34217  0.00877  1.0000
  S   S409      1.0  0.37583  0.35203  0.02268  1.0000
  S   S410      1.0  0.40025  0.32316  0.01423  1.0000
  S   S411      1.0  0.37150  0.37561  0.99976  1.0000
  Fe  Fe205     1.0  0.38464  0.36790  0.01245  1.0000
  S   S412      1.0  0.38735  0.37933  0.02400  1.0000
  Fe  Fe206     1.0  0.36399  0.35878  0.00882  1.0000
  S   S413      1.0  0.34384  0.35997  0.01182  1.0000
  S   S414      1.0  0.39887  0.35766  0.99928  1.0000
  S   S415      1.0  0.37645  0.34731  0.99587  1.0000
  Fe  Fe207     1.0  0.39421  0.25763  0.09190  1.0000
  S   S416      1.0  0.39992  0.26709  0.10330  1.0000
  S   S417      1.0  0.39954  0.23680  0.09643  1.0000
  Fe  Fe208     1.0  0.38315  0.28202  0.07678  1.0000
  S   S418      1.0  0.38774  0.29331  0.08714  1.0000
  S   S419      1.0  0.37228  0.29246  0.06239  1.0000
  Fe  Fe209     1.0  0.40584  0.28002  0.08580  1.0000
  S   S420      1.0  0.42407  0.28562  0.08083  1.0000
  Fe  Fe210     1.0  0.38131  0.27948  0.10368  1.0000
  S   S421      1.0  0.37051  0.28410  0.12168  1.0000
  S   S422      1.0  0.40181  0.26959  0.07413  1.0000
  S   S423      1.0  0.37506  0.26922  0.09357  1.0000
  Fe  Fe211     1.0  0.31146  0.36682  0.08781  1.0000
  S   S424      1.0  0.30921  0.34734  0.09357  1.0000
  S   S425      1.0  0.29544  0.38316  0.08783  1.0000
  Fe  Fe212     1.0  0.33944  0.35958  0.08025  1.0000
  S   S426      1.0  0.33945  0.33958  0.08467  1.0000
  S   S427      1.0  0.35783  0.36438  0.07104  1.0000
  Fe  Fe213     1.0  0.32304  0.34495  0.07633  1.0000
  S   S428      1.0  0.31980  0.33470  0.06418  1.0000
  Fe  Fe214     1.0  0.32577  0.34353  0.10159  1.0000
  S   S429      1.0  0.32720  0.33096  0.11990  1.0000
  S   S430      1.0  0.32437  0.36462  0.06994  1.0000
  S   S431      1.0  0.32677  0.36339  0.09777  1.0000
  Fe  Fe215     1.0  0.44044  0.36760  0.08730  1.0000
  S   S432      1.0  0.44595  0.35123  0.07859  1.0000
  S   S433      1.0  0.45695  0.37494  0.08763  1.0000
  Fe  Fe216     1.0  0.41309  0.36770  0.09084  1.0000
  S   S434      1.0  0.41691  0.35123  0.08279  1.0000
  S   S435      1.0  0.39302  0.37533  0.09816  1.0000
  Fe  Fe217     1.0  0.43153  0.34361  0.09357  1.0000
  S   S436      1.0  0.43573  0.32392  0.10362  1.0000
  Fe  Fe218     1.0  0.43079  0.36033  0.06846  1.0000
  S   S437      1.0  0.43330  0.35839  0.04907  1.0000
  S   S438      1.0  0.42676  0.35930  0.10305  1.0000
  S   S439      1.0  0.42623  0.37748  0.07576  1.0000
  C   C1438     1.0  0.36712  0.36838  0.07842  1.0000
  C   C1439     1.0  0.37960  0.36761  0.07297  1.0000
  C   C1440     1.0  0.38749  0.37016  0.07878  1.0000
  C   C1441     1.0  0.38295  0.37369  0.09000  1.0000
  C   C1442     1.0  0.37030  0.37528  0.09506  1.0000
  C   C1443     1.0  0.36241  0.37238  0.08942  1.0000
  H   H1730     1.0  0.38329  0.36483  0.06432  1.0000
  H   H1731     1.0  0.39711  0.36938  0.07456  1.0000
  H   H1732     1.0  0.36671  0.37854  0.10347  1.0000
  H   H1733     1.0  0.35271  0.37339  0.09347  1.0000
  C   C1444     1.0  0.42645  0.29619  0.08787  1.0000
  C   C1445     1.0  0.41914  0.30807  0.08714  1.0000
  C   C1446     1.0  0.42227  0.31678  0.09147  1.0000
  C   C1447     1.0  0.43225  0.31348  0.09719  1.0000
  C   C1448     1.0  0.43920  0.30147  0.09837  1.0000
  C   C1449     1.0  0.43651  0.29297  0.09344  1.0000
  H   H1734     1.0  0.41116  0.31059  0.08316  1.0000
  H   H1735     1.0  0.41681  0.32598  0.09060  1.0000
  H   H1736     1.0  0.44690  0.29881  0.10280  1.0000
  H   H1737     1.0  0.44225  0.28384  0.09395  1.0000
  C   C1450     1.0  0.35802  0.29663  0.12091  1.0000
  C   C1451     1.0  0.35506  0.30316  0.10972  1.0000
  C   C1452     1.0  0.34555  0.31366  0.10930  1.0000
  C   C1453     1.0  0.33895  0.31764  0.12004  1.0000
  C   C1454     1.0  0.34175  0.31088  0.13125  1.0000
  C   C1455     1.0  0.35130  0.30045  0.13167  1.0000
  H   H1738     1.0  0.36008  0.30010  0.10139  1.0000
  H   H1739     1.0  0.34304  0.31832  0.10074  1.0000
  H   H1740     1.0  0.33651  0.31371  0.13963  1.0000
  H   H1741     1.0  0.35349  0.29532  0.14037  1.0000
  C   C1456     1.0  0.39241  0.31446  0.02743  1.0000
  C   C1457     1.0  0.39900  0.30409  0.03421  1.0000
  C   C1458     1.0  0.39292  0.29731  0.04501  1.0000
  C   C1459     1.0  0.38017  0.30068  0.04886  1.0000
  C   C1460     1.0  0.37354  0.31084  0.04187  1.0000
  C   C1461     1.0  0.37966  0.31781  0.03127  1.0000
  H   H1742     1.0  0.40884  0.30136  0.03117  1.0000
  H   H1743     1.0  0.39808  0.28940  0.05028  1.0000
  H   H1744     1.0  0.36368  0.31348  0.04476  1.0000
  H   H1745     1.0  0.37448  0.32569  0.02601  1.0000
  C   C1462     1.0  0.40016  0.37349  0.03091  1.0000
  C   C1463     1.0  0.40005  0.37700  0.04158  1.0000
  C   C1464     1.0  0.41018  0.37244  0.04722  1.0000
  C   C1465     1.0  0.42056  0.36453  0.04209  1.0000
  C   C1466     1.0  0.42074  0.36117  0.03132  1.0000
  C   C1467     1.0  0.41051  0.36550  0.02583  1.0000
  H   H1746     1.0  0.39211  0.38322  0.04554  1.0000
  H   H1747     1.0  0.41007  0.37523  0.05540  1.0000
  H   H1748     1.0  0.42880  0.35514  0.02726  1.0000
  H   H1749     1.0  0.41074  0.36285  0.01754  1.0000
  C   C1468     1.0  0.33856  0.35123  0.02614  1.0000
  C   C1469     1.0  0.32919  0.34510  0.02769  1.0000
  C   C1470     1.0  0.32408  0.33907  0.03938  1.0000
  C   C1471     1.0  0.32805  0.33959  0.04951  1.0000
  C   C1472     1.0  0.33774  0.34530  0.04792  1.0000
  C   C1473     1.0  0.34310  0.35099  0.03620  1.0000
  H   H1750     1.0  0.32580  0.34515  0.01987  1.0000
  H   H1751     1.0  0.31667  0.33454  0.04061  1.0000
  H   H1752     1.0  0.34094  0.34556  0.05574  1.0000
  H   H1753     1.0  0.35040  0.35559  0.03502  1.0000
  C   C1474     1.0  0.26102  0.38211  0.07590  1.0000
  C   C1475     1.0  0.26093  0.39150  0.08138  1.0000
  C   C1476     1.0  0.27144  0.39160  0.08524  1.0000
  C   C1477     1.0  0.28202  0.38221  0.08389  1.0000
  C   C1478     1.0  0.28189  0.37255  0.07888  1.0000
  C   C1479     1.0  0.27147  0.37258  0.07483  1.0000
  H   H1754     1.0  0.37888  0.05774  0.15372  1.0000
  H   H1755     1.0  0.27142  0.39906  0.08918  1.0000
  H   H1756     1.0  0.28989  0.36517  0.07796  1.0000
  H   H1757     1.0  0.27143  0.36520  0.07083  1.0000
  C   C1480     1.0  0.37319  0.21256  0.09883  1.0000
  C   C1481     1.0  0.38398  0.20751  0.10325  1.0000
  C   C1482     1.0  0.39178  0.21512  0.10283  1.0000
  C   C1483     1.0  0.38892  0.22778  0.09789  1.0000
  C   C1484     1.0  0.37804  0.23283  0.09365  1.0000
  C   C1485     1.0  0.37021  0.22524  0.09413  1.0000
  H   H1758     1.0  0.38635  0.19775  0.10685  1.0000
  H   H1759     1.0  0.40020  0.21120  0.10609  1.0000
  H   H1760     1.0  0.37578  0.24255  0.08978  1.0000
  H   H1761     1.0  0.36187  0.22918  0.09070  1.0000
  C   C1486     1.0  0.36661  0.02587  0.10413  1.0000
  C   C1487     1.0  0.37013  0.01357  0.10288  1.0000
  C   C1488     1.0  0.36186  0.00771  0.10084  1.0000
  C   C1489     1.0  0.34991  0.01411  0.09988  1.0000
  C   C1490     1.0  0.34638  0.02643  0.10108  1.0000
  C   C1491     1.0  0.35462  0.03226  0.10326  1.0000
  H   H1762     1.0  0.37937  0.00853  0.10346  1.0000
  H   H1763     1.0  0.36477  0.99825  0.09998  1.0000
  H   H1764     1.0  0.33718  0.03150  0.10037  1.0000
  H   H1765     1.0  0.35175  0.04172  0.10412  1.0000
  C   C1492     1.0  0.37896  0.10924  0.08494  1.0000
  C   C1493     1.0  0.37886  0.11266  0.09566  1.0000
  C   C1494     1.0  0.37955  0.12475  0.09527  1.0000
  C   C1495     1.0  0.38061  0.13331  0.08409  1.0000
  C   C1496     1.0  0.38085  0.12977  0.07344  1.0000
  C   C1497     1.0  0.37986  0.11788  0.07389  1.0000
  H   H1766     1.0  0.37825  0.10602  0.10422  1.0000
  H   H1767     1.0  0.37946  0.12737  0.10353  1.0000
  H   H1768     1.0  0.38171  0.13630  0.06478  1.0000
  H   H1769     1.0  0.37997  0.11534  0.06556  1.0000
  C   C1498     1.0  0.32859  0.29133  0.11595  1.0000
  C   C1499     1.0  0.35957  0.39363  0.04581  1.0000
  C   C1500     1.0  0.33209  0.14722  0.15827  1.0000
  C   C1501     1.0  0.34232  0.14739  0.14858  1.0000
  C   C1502     1.0  0.35402  0.14144  0.15079  1.0000
  C   C1503     1.0  0.35543  0.13538  0.16271  1.0000
  H   H1770     1.0  0.30927  0.41107  0.04053  1.0000
  H   H1771     1.0  0.32303  0.15180  0.15661  1.0000
  H   H1772     1.0  0.36195  0.14151  0.14334  1.0000
  H   H1773     1.0  0.25863  0.39644  0.03800  1.0000
  C   C1504     1.0  0.33306  0.10269  0.15637  1.0000
  H   H1774     1.0  0.44744  0.07211  0.16289  1.0000
  C   C1505     1.0  0.36521  0.08617  0.15927  1.0000
  C   C1506     1.0  0.36782  0.07591  0.15409  1.0000
  H   H1775     1.0  0.36466  0.09897  0.13481  1.0000
  C   C1507     1.0  0.43467  0.06196  0.17531  1.0000
  H   H1776     1.0  0.36935  0.09418  0.17197  1.0000
  H   H1777     1.0  0.35825  0.09407  0.15665  1.0000
  C   C1508     1.0  0.40889  0.12049  0.14454  1.0000
  C   C1509     1.0  0.37686  0.06574  0.15760  1.0000
  C   C1510     1.0  0.44137  0.10601  0.15807  1.0000
  C   C1511     1.0  0.37057  0.15728  0.15975  1.0000
  C   C1512     1.0  0.32657  0.30004  0.07410  1.0000
  H   H1778     1.0  0.39917  0.31586  0.99301  1.0000
  H   H1779     1.0  0.39625  0.34204  0.13945  1.0000
  C   C1513     1.0  0.43815  0.11870  0.15375  1.0000
  H   H1780     1.0  0.31579  0.30291  0.12752  1.0000
  H   H1781     1.0  0.40785  0.13054  0.14101  1.0000
  C   C1514     1.0  0.44240  0.06063  0.15373  1.0000
  C   C1515     1.0  0.36110  0.19590  0.14319  1.0000
  C   C1516     1.0  0.43557  0.14525  0.10773  1.0000
  C   C1517     1.0  0.42517  0.14831  0.10273  1.0000
  C   C1518     1.0  0.41351  0.15105  0.11011  1.0000
  C   C1519     1.0  0.41225  0.15134  0.12231  1.0000
  C   C1520     1.0  0.42265  0.14819  0.12735  1.0000
  C   C1521     1.0  0.43433  0.14491  0.12010  1.0000
  H   H1782     1.0  0.42613  0.14836  0.09320  1.0000
  H   H1783     1.0  0.40553  0.15281  0.10633  1.0000
  H   H1784     1.0  0.42169  0.14829  0.13684  1.0000
  H   H1785     1.0  0.44240  0.14242  0.12398  1.0000
  C   C1522     1.0  0.44789  0.07696  0.10330  1.0000
  C   C1523     1.0  0.44849  0.06555  0.10102  1.0000
  C   C1524     1.0  0.43842  0.05989  0.10571  1.0000
  C   C1525     1.0  0.42752  0.06576  0.11241  1.0000
  C   C1526     1.0  0.42668  0.07748  0.11418  1.0000
  C   C1527     1.0  0.43686  0.08309  0.10963  1.0000
  H   H1786     1.0  0.45698  0.06079  0.09608  1.0000
  H   H1787     1.0  0.43925  0.05074  0.10452  1.0000
  H   H1788     1.0  0.41836  0.08202  0.11942  1.0000
  H   H1789     1.0  0.43625  0.09202  0.11122  1.0000
  H   H1790     1.0  0.39321  0.03135  0.07817  1.0000
  C   C1528     1.0  0.47497  0.37897  0.11698  1.0000
  C   C1529     1.0  0.48108  0.38023  0.10470  1.0000
  C   C1530     1.0  0.47549  0.37876  0.09594  1.0000
  C   C1531     1.0  0.46371  0.37607  0.09929  1.0000
  C   C1532     1.0  0.45759  0.37483  0.11157  1.0000
  C   C1533     1.0  0.46319  0.37630  0.12033  1.0000
  H   H1791     1.0  0.42101  0.04294  0.16851  1.0000
  H   H1792     1.0  0.48029  0.37983  0.08647  1.0000
  H   H1793     1.0  0.44847  0.37296  0.11430  1.0000
  H   H1794     1.0  0.40746  0.29683  0.10863  1.0000
  H   H1795     1.0  0.39985  0.33165  0.10885  1.0000
  H   H1796     1.0  0.37661  0.30358  0.12830  1.0000
  H   H1797     1.0  0.37918  0.31583  0.13327  1.0000
  H   H1798     1.0  0.39298  0.29245  0.11431  1.0000
  N   N97       1.0  0.48161  0.42032  0.10473  1.0000
  C   C1534     1.0  0.42705  0.04910  0.16722  1.0000
  H   H1799     1.0  0.44223  0.05816  0.13028  1.0000
  C   C1535     1.0  0.38370  0.30693  0.13054  1.0000
  H   H1800     1.0  0.42408  0.07731  0.07314  1.0000
  H   H1801     1.0  0.37797  0.34157  0.08214  1.0000
  C   C1536     1.0  0.38997  0.31757  0.10970  1.0000
  H   H1802     1.0  0.46710  0.32231  0.12314  1.0000
  C   C1537     1.0  0.39969  0.29622  0.11665  1.0000
  H   H1803     1.0  0.39100  0.19571  0.12972  1.0000
  C   C1538     1.0  0.37430  0.17781  0.15344  1.0000
  C   C1539     1.0  0.42809  0.08375  0.07569  1.0000
  H   H1804     1.0  0.48576  0.41699  0.08062  1.0000
  C   C1540     1.0  0.41547  0.11379  0.08661  1.0000
  H   H1805     1.0  0.40619  0.11425  0.11865  1.0000
  H   H1806     1.0  0.43252  0.07834  0.08345  1.0000
  H   H1807     1.0  0.36679  0.02563  0.04310  1.0000
  C   C1541     1.0  0.38119  0.33500  0.08983  1.0000
  H   H1808     1.0  0.43635  0.09050  0.17184  1.0000
  C   C1542     1.0  0.41301  0.10096  0.06840  1.0000
  C   C1543     1.0  0.38774  0.34272  0.13682  1.0000
  N   N98       1.0  0.41262  0.32506  0.05038  1.0000
  C   C1544     1.0  0.41701  0.32876  0.03698  1.0000
  C   C1545     1.0  0.41828  0.33100  0.05662  1.0000
  C   C1546     1.0  0.41715  0.31158  0.05388  1.0000
  C   C1547     1.0  0.39908  0.32903  0.05356  1.0000
  C   C1548     1.0  0.39341  0.34164  0.05067  1.0000
  C   C1549     1.0  0.39116  0.32069  0.05941  1.0000
  C   C1550     1.0  0.38066  0.34562  0.05316  1.0000
  C   C1551     1.0  0.37839  0.32479  0.06195  1.0000
  C   C1552     1.0  0.37315  0.33722  0.05877  1.0000
  H   H1809     1.0  0.41277  0.32463  0.03199  1.0000
  H   H1810     1.0  0.41468  0.33883  0.03358  1.0000
  H   H1811     1.0  0.42716  0.32588  0.03418  1.0000
  H   H1812     1.0  0.41634  0.34113  0.05357  1.0000
  H   H1813     1.0  0.42847  0.32799  0.05479  1.0000
  H   H1814     1.0  0.41479  0.32890  0.06668  1.0000
  H   H1815     1.0  0.41373  0.30655  0.04904  1.0000
  H   H1816     1.0  0.42736  0.30892  0.05163  1.0000
  H   H1817     1.0  0.41432  0.30804  0.06384  1.0000
  H   H1818     1.0  0.39880  0.34855  0.04631  1.0000
  H   H1819     1.0  0.39456  0.31093  0.06189  1.0000
  H   H1820     1.0  0.37659  0.35529  0.05064  1.0000
  H   H1821     1.0  0.37253  0.31822  0.06615  1.0000
  H   H1822     1.0  0.36325  0.34037  0.06060  1.0000
  H   H1823     1.0  0.32711  0.06754  0.17014  1.0000
  H   H1824     1.0  0.31963  0.39282  0.07464  1.0000
  C   C1553     1.0  0.36683  0.03110  0.07073  1.0000
  H   H1825     1.0  0.38652  0.00584  0.06154  1.0000
  N   N99       1.0  0.36208  0.01568  0.06159  1.0000
  C   C1554     1.0  0.36632  0.01611  0.04829  1.0000
  H   H1826     1.0  0.35156  0.40886  0.02597  1.0000
  H   H1827     1.0  0.36065  0.16055  0.15950  1.0000
  H   H1828     1.0  0.35422  0.18226  0.15776  1.0000
  H   H1829     1.0  0.40835  0.33240  0.98650  1.0000
  H   H1830     1.0  0.33230  0.10559  0.14687  1.0000
  C   C1555     1.0  0.42714  0.05383  0.17699  1.0000
  N   N100      1.0  0.42429  0.18674  0.09098  1.0000
  C   C1556     1.0  0.41707  0.18155  0.10301  1.0000
  C   C1557     1.0  0.43067  0.17670  0.08437  1.0000
  C   C1558     1.0  0.43387  0.19158  0.09334  1.0000
  C   C1559     1.0  0.41591  0.19615  0.08382  1.0000
  C   C1560     1.0  0.40643  0.19286  0.08059  1.0000
  C   C1561     1.0  0.41654  0.20875  0.08024  1.0000
  C   C1562     1.0  0.39792  0.20165  0.07451  1.0000
  C   C1563     1.0  0.40807  0.21744  0.07400  1.0000
  C   C1564     1.0  0.39871  0.21393  0.07127  1.0000
  H   H1831     1.0  0.42304  0.17448  0.10876  1.0000
  H   H1832     1.0  0.41195  0.18884  0.10818  1.0000
  H   H1833     1.0  0.41017  0.17699  0.10211  1.0000
  H   H1834     1.0  0.42424  0.17161  0.08339  1.0000
  H   H1835     1.0  0.43747  0.16970  0.08924  1.0000
  H   H1836     1.0  0.43570  0.18032  0.07502  1.0000
  H   H1837     1.0  0.42974  0.19875  0.09887  1.0000
  H   H1838     1.0  0.44012  0.18424  0.09858  1.0000
  H   H1839     1.0  0.43975  0.19552  0.08464  1.0000
  H   H1840     1.0  0.40532  0.18350  0.08304  1.0000
  H   H1841     1.0  0.42320  0.21228  0.08246  1.0000
  H   H1842     1.0  0.39042  0.19900  0.07264  1.0000
  H   H1843     1.0  0.40839  0.22708  0.07183  1.0000
  H   H1844     1.0  0.39185  0.22079  0.06693  1.0000
  N   N101      1.0  0.37550  0.16628  0.16289  1.0000
  H   H1845     1.0  0.47925  0.31819  0.11065  1.0000
  C   C1565     1.0  0.43450  0.05245  0.15572  1.0000
  C   C1566     1.0  0.33521  0.08617  0.17461  1.0000
  H   H1846     1.0  0.47295  0.40927  0.07237  1.0000
  C   C1567     1.0  0.34921  0.02279  0.06375  1.0000
  H   H1847     1.0  0.37152  0.14838  0.16649  1.0000
  C   C1568     1.0  0.49396  0.35130  0.11734  1.0000
  H   H1848     1.0  0.49012  0.38231  0.10193  1.0000
  C   C1569     1.0  0.36841  0.16860  0.17506  1.0000
  H   H1849     1.0  0.41554  0.07733  0.16406  1.0000
  H   H1850     1.0  0.45492  0.04741  0.13619  1.0000
  H   H1851     1.0  0.33030  0.40541  0.02947  1.0000
  C   C1570     1.0  0.46310  0.41213  0.10624  1.0000
  C   C1571     1.0  0.44211  0.06542  0.16384  1.0000
  C   C1572     1.0  0.37056  0.02035  0.06584  1.0000
  H   H1852     1.0  0.45487  0.35322  0.10609  1.0000
  C   C1573     1.0  0.38458  0.18192  0.14504  1.0000
  H   H1853     1.0  0.36007  0.00194  0.07814  1.0000
  H   H1854     1.0  0.37971  0.31044  0.00422  1.0000
  C   C1574     1.0  0.47749  0.41464  0.08672  1.0000
  H   H1855     1.0  0.46677  0.05539  0.14763  1.0000
  H   H1856     1.0  0.46897  0.33884  0.12967  1.0000
  H   H1857     1.0  0.35753  0.03642  0.07187  1.0000
  N   N102      1.0  0.29774  0.37309  0.04171  1.0000
  C   C1575     1.0  0.29339  0.36145  0.04692  1.0000
  C   C1576     1.0  0.30263  0.37410  0.02837  1.0000
  C   C1577     1.0  0.30809  0.37229  0.04731  1.0000
  C   C1578     1.0  0.28742  0.38361  0.04392  1.0000
  C   C1579     1.0  0.28737  0.39183  0.05108  1.0000
  C   C1580     1.0  0.27687  0.38575  0.03902  1.0000
  C   C1581     1.0  0.27735  0.40150  0.05318  1.0000
  C   C1582     1.0  0.26686  0.39538  0.04127  1.0000
  C   C1583     1.0  0.26708  0.40321  0.04837  1.0000
  H   H1858     1.0  0.28593  0.36094  0.04288  1.0000
  H   H1859     1.0  0.30091  0.35333  0.04549  1.0000
  H   H1860     1.0  0.28982  0.36028  0.05696  1.0000
  H   H1861     1.0  0.29583  0.37329  0.02364  1.0000
  H   H1862     1.0  0.31088  0.36673  0.02639  1.0000
  H   H1863     1.0  0.30538  0.38304  0.02403  1.0000
  H   H1864     1.0  0.30509  0.37091  0.05743  1.0000
  H   H1865     1.0  0.31573  0.36435  0.04547  1.0000
  H   H1866     1.0  0.31205  0.38063  0.04371  1.0000
  H   H1867     1.0  0.29469  0.39068  0.05565  1.0000
  H   H1868     1.0  0.27610  0.37974  0.03374  1.0000
  H   H1869     1.0  0.27724  0.40728  0.05915  1.0000
  C   C1584     1.0  0.48473  0.41123  0.11576  1.0000
  C   C1585     1.0  0.33061  0.29920  0.09379  1.0000
  C   C1586     1.0  0.45940  0.40682  0.08902  1.0000
  H   H1870     1.0  0.34367  0.06490  0.16559  1.0000
  C   C1587     1.0  0.34522  0.13557  0.17246  1.0000
  C   C1588     1.0  0.38301  0.06573  0.16649  1.0000
  C   C1589     1.0  0.37506  0.03509  0.07486  1.0000
  H   H1871     1.0  0.46592  0.43065  0.11536  1.0000
  Fe  Fe219     1.0  0.38481  0.36376  0.98746  1.0000
  H   H1872     1.0  0.30377  0.40489  0.06314  1.0000
  C   C1590     1.0  0.39048  0.12093  0.13863  1.0000
  H   H1873     1.0  0.36371  0.39621  0.02225  1.0000
  C   C1591     1.0  0.43613  0.10155  0.08270  1.0000
  C   C1592     1.0  0.36196  0.00277  0.06809  1.0000
  C   C1593     1.0  0.32219  0.39568  0.06476  1.0000
  C   C1594     1.0  0.47101  0.33728  0.09343  1.0000
  C   C1595     1.0  0.39351  0.32907  0.10518  1.0000
  C   C1596     1.0  0.38916  0.33759  0.09538  1.0000
  H   H1874     1.0  0.38652  0.30013  0.13863  1.0000
  H   H1875     1.0  0.35588  0.09369  0.12031  1.0000
  N   N103      1.0  0.41860  0.09449  0.07911  1.0000
  H   H1876     1.0  0.46437  0.33326  0.09121  1.0000
  H   H1877     1.0  0.47172  0.43896  0.10038  1.0000
  C   C1597     1.0  0.47416  0.41568  0.09917  1.0000
  N   N104      1.0  0.39428  0.30830  0.12010  1.0000
  H   H1878     1.0  0.40323  0.28911  0.12420  1.0000
  C   C1598     1.0  0.36003  0.10618  0.12848  1.0000
  H   H1879     1.0  0.43535  0.08658  0.06769  1.0000
  N   N105      1.0  0.33626  0.29825  0.08095  1.0000
  C   C1599     1.0  0.35517  0.10324  0.12020  1.0000
  H   H1880     1.0  0.42502  0.13543  0.15661  1.0000
  H   H1881     1.0  0.43484  0.07819  0.13532  1.0000
  H   H1882     1.0  0.35115  0.30660  0.07974  1.0000
  N   N106      1.0  0.46875  0.33662  0.10677  1.0000
  H   H1883     1.0  0.35200  0.20119  0.14219  1.0000
  C   C1600     1.0  0.38044  0.31579  0.99491  1.0000
  H   H1884     1.0  0.32586  0.12839  0.10837  1.0000
  S   S440      1.0  0.24892  0.38270  0.06900  1.0000
  H   H1885     1.0  0.38983  0.05775  0.16936  1.0000
  C   C1601     1.0  0.37153  0.08626  0.16796  1.0000
  H   H1886     1.0  0.40578  0.11582  0.08668  1.0000
  H   H1887     1.0  0.48032  0.33206  0.08993  1.0000
  C   C1602     1.0  0.32851  0.40259  0.03930  1.0000
  H   H1888     1.0  0.44317  0.08382  0.14266  1.0000
  C   C1603     1.0  0.48725  0.34652  0.10150  1.0000
  H   H1889     1.0  0.34889  0.39669  0.02054  1.0000
  C   C1604     1.0  0.38839  0.16056  0.16409  1.0000
  H   H1890     1.0  0.40046  0.01287  0.06926  1.0000
  H   H1891     1.0  0.36005  0.01279  0.04476  1.0000
  H   H1892     1.0  0.46293  0.07165  0.14709  1.0000
  C   C1605     1.0  0.40375  0.31154  0.12437  1.0000
  C   C1606     1.0  0.38156  0.31541  0.10405  1.0000
  H   H1893     1.0  0.40710  0.30421  0.13189  1.0000
  H   H1894     1.0  0.41984  0.10492  0.06061  1.0000
  H   H1895     1.0  0.40928  0.09473  0.06524  1.0000
  H   H1896     1.0  0.34124  0.12414  0.09019  1.0000
  H   H1897     1.0  0.35576  0.12848  0.08699  1.0000
  H   H1898     1.0  0.47660  0.41002  0.12332  1.0000
  H   H1899     1.0  0.34547  0.02278  0.07364  1.0000
  C   C1607     1.0  0.31320  0.40244  0.05825  1.0000
  C   C1608     1.0  0.45589  0.40773  0.10122  1.0000
  C   C1609     1.0  0.38307  0.19277  0.13612  1.0000
  H   H1900     1.0  0.43375  0.04864  0.14851  1.0000
  C   C1610     1.0  0.37730  0.32396  0.09424  1.0000
  H   H1901     1.0  0.40013  0.32008  0.12795  1.0000
  H   H1902     1.0  0.37827  0.30701  0.10717  1.0000
  C   C1611     1.0  0.34567  0.13154  0.09011  1.0000
  H   H1903     1.0  0.35258  0.13696  0.12084  1.0000
  H   H1904     1.0  0.41196  0.31275  0.11689  1.0000
  H   H1905     1.0  0.40495  0.08336  0.08656  1.0000
  H   H1906     1.0  0.41361  0.13035  0.09268  1.0000
  H   H1907     1.0  0.33784  0.31723  0.07535  1.0000
  H   H1908     1.0  0.46994  0.34698  0.08818  1.0000
  H   H1909     1.0  0.37099  0.32197  0.09000  1.0000
  H   H1910     1.0  0.41283  0.08447  0.09739  1.0000
  C   C1612     1.0  0.40903  0.08966  0.08924  1.0000
  C   C1613     1.0  0.42346  0.10315  0.08288  1.0000
  C   C1614     1.0  0.41054  0.09477  0.15219  1.0000
  C   C1615     1.0  0.34351  0.30788  0.07510  1.0000
  H   H1911     1.0  0.34272  0.15109  0.10819  1.0000
  H   H1912     1.0  0.39278  0.16701  0.16610  1.0000
  H   H1913     1.0  0.39409  0.15739  0.15570  1.0000
  C   C1616     1.0  0.41986  0.12218  0.09007  1.0000
  H   H1914     1.0  0.40517  0.10861  0.07051  1.0000
  H   H1915     1.0  0.32423  0.14425  0.10056  1.0000
  H   H1916     1.0  0.33978  0.27850  0.08405  1.0000
  C   C1617     1.0  0.38710  0.02849  0.07440  1.0000
  H   H1917     1.0  0.40128  0.09699  0.09215  1.0000
  H   H1918     1.0  0.34293  0.15374  0.09247  1.0000
  C   C1618     1.0  0.44041  0.10996  0.08624  1.0000
  H   H1919     1.0  0.34843  0.28568  0.06993  1.0000
  H   H1920     1.0  0.44981  0.08132  0.12753  1.0000
  N   N107      1.0  0.34270  0.13492  0.10220  1.0000
  C   C1619     1.0  0.32926  0.13689  0.10694  1.0000
  C   C1620     1.0  0.34645  0.14676  0.10011  1.0000
  H   H1921     1.0  0.44299  0.09380  0.08001  1.0000
  C   C1621     1.0  0.34460  0.28621  0.07970  1.0000
  H   H1922     1.0  0.38922  0.13111  0.13621  1.0000
  H   H1923     1.0  0.36153  0.31741  0.99478  1.0000
  H   H1924     1.0  0.37193  0.04302  0.07902  1.0000
  C   C1622     1.0  0.43232  0.12021  0.08994  1.0000
  C   C1623     1.0  0.33402  0.29001  0.10394  1.0000
  H   H1925     1.0  0.32667  0.13966  0.11593  1.0000
  H   H1926     1.0  0.35663  0.14550  0.09778  1.0000
  H   H1927     1.0  0.34587  0.10965  0.10558  1.0000
  C   C1624     1.0  0.38043  0.07602  0.17161  1.0000
  C   C1625     1.0  0.34876  0.12509  0.11116  1.0000
  H   H1928     1.0  0.34101  0.28183  0.10288  1.0000
  H   H1929     1.0  0.44399  0.12318  0.14581  1.0000
  H   H1930     1.0  0.43580  0.12667  0.09259  1.0000
  H   H1931     1.0  0.36220  0.12067  0.13542  1.0000
  C   C1626     1.0  0.34951  0.11252  0.11171  1.0000
  H   H1932     1.0  0.34763  0.30773  0.06530  1.0000
  H   H1933     1.0  0.40418  0.11927  0.15436  1.0000
  C   C1627     1.0  0.42746  0.12561  0.15987  1.0000
  H   H1934     1.0  0.45011  0.10847  0.08614  1.0000
  C   C1628     1.0  0.35327  0.12773  0.12017  1.0000
  H   H1935     1.0  0.41892  0.11668  0.14378  1.0000
  C   C1629     1.0  0.35886  0.11839  0.12864  1.0000
  H   H1936     1.0  0.40968  0.12737  0.12102  1.0000
  H   H1937     1.0  0.35273  0.28464  0.08372  1.0000
  H   H1938     1.0  0.33057  0.29899  0.06449  1.0000
  H   H1939     1.0  0.42004  0.11275  0.12357  1.0000
  H   H1940     1.0  0.33153  0.28436  0.12354  1.0000
  N   N108      1.0  0.40364  0.11482  0.13767  1.0000
  H   H1941     1.0  0.36923  0.39203  0.04053  1.0000
  C   C1630     1.0  0.41014  0.11738  0.12467  1.0000
  H   H1942     1.0  0.32060  0.30937  0.07339  1.0000
  C   C1631     1.0  0.40483  0.10142  0.14225  1.0000
  C   C1632     1.0  0.31973  0.30175  0.11822  1.0000
  H   H1943     1.0  0.32055  0.29334  0.07856  1.0000
  C   C1633     1.0  0.32166  0.30978  0.09646  1.0000
  H   H1944     1.0  0.41412  0.09911  0.15719  1.0000
  H   H1945     1.0  0.38513  0.11841  0.14812  1.0000
  H   H1946     1.0  0.31891  0.31736  0.08925  1.0000
  C   C1634     1.0  0.31629  0.31097  0.10850  1.0000
  C   C1635     1.0  0.40016  0.09462  0.13675  1.0000
  H   H1947     1.0  0.39556  0.09903  0.12926  1.0000
  H   H1948     1.0  0.38622  0.11844  0.13242  1.0000
  H   H1949     1.0  0.30969  0.31926  0.11031  1.0000
  H   H1950     1.0  0.39389  0.17678  0.14497  1.0000
  C   C1636     1.0  0.47741  0.34182  0.11017  1.0000
  C   C1637     1.0  0.40140  0.08192  0.14079  1.0000
  C   C1638     1.0  0.41162  0.08212  0.15617  1.0000
  H   H1951     1.0  0.46003  0.41251  0.11579  1.0000
  C   C1639     1.0  0.35376  0.39880  0.02650  1.0000
  H   H1952     1.0  0.39783  0.07679  0.13652  1.0000
  H   H1953     1.0  0.34729  0.37718  0.03383  1.0000
  H   H1954     1.0  0.36290  0.37516  0.03509  1.0000
  H   H1955     1.0  0.36149  0.34733  0.10716  1.0000
  H   H1956     1.0  0.33552  0.34260  0.13289  1.0000
  H   H1957     1.0  0.44769  0.40469  0.10688  1.0000
  H   H1958     1.0  0.37023  0.20805  0.12816  1.0000
  H   H1959     1.0  0.39313  0.35358  0.11886  1.0000
  H   H1960     1.0  0.45395  0.40308  0.08525  1.0000
  C   C1640     1.0  0.35314  0.37877  0.03919  1.0000
  C   C1641     1.0  0.40727  0.07568  0.15035  1.0000
  H   H1961     1.0  0.33880  0.36213  0.12129  1.0000
  H   H1962     1.0  0.34686  0.34350  0.11225  1.0000
  C   C1642     1.0  0.34433  0.34081  0.13587  1.0000
  H   H1963     1.0  0.34767  0.33068  0.13786  1.0000
  C   C1643     1.0  0.35560  0.34237  0.11512  1.0000
  H   H1964     1.0  0.44927  0.33971  0.10797  1.0000
  H   H1965     1.0  0.46882  0.06636  0.13337  1.0000
  C   C1644     1.0  0.45116  0.05727  0.13265  1.0000
  H   H1966     1.0  0.37560  0.01023  0.04604  1.0000
  H   H1967     1.0  0.35998  0.33243  0.11652  1.0000
  H   H1968     1.0  0.34188  0.34421  0.14448  1.0000
  N   N109      1.0  0.35346  0.34703  0.12638  1.0000
  C   C1645     1.0  0.34784  0.36032  0.12386  1.0000
  C   C1646     1.0  0.47017  0.41025  0.08179  1.0000
  H   H1969     1.0  0.35109  0.37304  0.04853  1.0000
  H   H1970     1.0  0.35720  0.40306  0.04751  1.0000
  H   H1971     1.0  0.34086  0.38677  0.06411  1.0000
  C   C1647     1.0  0.44421  0.07759  0.13653  1.0000
  H   H1972     1.0  0.35365  0.36559  0.11616  1.0000
  C   C1648     1.0  0.31633  0.40586  0.04555  1.0000
  H   H1973     1.0  0.34635  0.36430  0.13198  1.0000
  H   H1974     1.0  0.35990  0.38701  0.05468  1.0000
  H   H1975     1.0  0.34295  0.01881  0.06091  1.0000
  N   N110      1.0  0.35087  0.39192  0.03936  1.0000
  H   H1976     1.0  0.37988  0.33229  0.15408  1.0000
  C   C1649     1.0  0.36526  0.34510  0.13003  1.0000
  H   H1977     1.0  0.36059  0.33407  0.14861  1.0000
  C   C1650     1.0  0.37021  0.31975  0.98963  1.0000
  C   C1651     1.0  0.38301  0.01404  0.06518  1.0000
  C   C1652     1.0  0.37499  0.35031  0.12187  1.0000
  C   C1653     1.0  0.36740  0.33840  0.14176  1.0000
  H   H1978     1.0  0.37412  0.35547  0.11281  1.0000
  C   C1654     1.0  0.45597  0.34334  0.11056  1.0000
  H   H1979     1.0  0.40809  0.06586  0.15349  1.0000
  C   C1655     1.0  0.33373  0.09036  0.16230  1.0000
  C   C1656     1.0  0.38600  0.34920  0.12525  1.0000
  H   H1980     1.0  0.37079  0.99633  0.06555  1.0000
  C   C1657     1.0  0.46262  0.06449  0.14253  1.0000
  C   C1658     1.0  0.33797  0.39586  0.04570  1.0000
  C   C1659     1.0  0.33436  0.39234  0.05862  1.0000
  C   C1660     1.0  0.37850  0.33726  0.14503  1.0000
  C   C1661     1.0  0.47446  0.43194  0.10839  1.0000
  H   H1981     1.0  0.37549  0.15544  0.15056  1.0000
  C   C1662     1.0  0.43385  0.10028  0.16840  1.0000
  H   H1982     1.0  0.48871  0.34702  0.09183  1.0000
  C   C1663     1.0  0.41976  0.11978  0.17000  1.0000
  C   C1664     1.0  0.39110  0.01803  0.06949  1.0000
  C   C1665     1.0  0.49337  0.42275  0.09642  1.0000
  H   H1983     1.0  0.34843  0.03246  0.05856  1.0000
  C   C1666     1.0  0.39158  0.31900  0.98840  1.0000
  C   C1667     1.0  0.33355  0.14146  0.17019  1.0000
  H   H1984     1.0  0.33344  0.08425  0.15689  1.0000
  C   C1668     1.0  0.47626  0.34213  0.12257  1.0000
  C   C1669     1.0  0.33368  0.11122  0.16250  1.0000
  C   C1670     1.0  0.42299  0.10711  0.17423  1.0000
  H   H1985     1.0  0.33326  0.12075  0.15787  1.0000
  H   H1986     1.0  0.46347  0.31927  0.11045  1.0000
  C   C1671     1.0  0.46971  0.32353  0.11304  1.0000
  C   C1672     1.0  0.36249  0.18507  0.15212  1.0000
  C   C1673     1.0  0.37137  0.19975  0.13522  1.0000
  C   C1674     1.0  0.33575  0.06491  0.17357  1.0000
  H   H1987     1.0  0.33649  0.05522  0.17872  1.0000
  H   H1988     1.0  0.38896  0.15220  0.17158  1.0000
  C   C1675     1.0  0.48437  0.34689  0.12604  1.0000
  H   H1989     1.0  0.49181  0.43003  0.08818  1.0000
  H   H1990     1.0  0.47987  0.43581  0.11245  1.0000
  C   C1676     1.0  0.33491  0.10745  0.17461  1.0000
  S   S441      1.0  0.38107  0.11198  0.17615  1.0000
  H   H1991     1.0  0.35834  0.17127  0.17558  1.0000
  H   H1992     1.0  0.33531  0.11409  0.17941  1.0000
  S   S442      1.0  0.40591  0.12830  0.17703  1.0000
  H   H1993     1.0  0.48899  0.40208  0.11354  1.0000
  H   H1994     1.0  0.25294  0.39890  0.08225  1.0000
  H   H1995     1.0  0.25906  0.41028  0.05059  1.0000
  H   H1996     1.0  0.32560  0.14159  0.17769  1.0000
  H   H1997     1.0  0.35559  0.06871  0.17837  1.0000
  H   H1998     1.0  0.37121  0.17602  0.17736  1.0000
  C   C1677     1.0  0.33568  0.09515  0.18060  1.0000
  H   H1999     1.0  0.36955  0.02321  0.32825  1.0000
  Fe  Fe220     1.0  0.37846  0.10457  0.21140  1.0000
  S   S443      1.0  0.36628  0.09866  0.20300  1.0000
  S   S444      1.0  0.37923  0.09809  0.23137  1.0000
  C   C1678     1.0  0.38566  0.06378  0.34981  1.0000
  H   H2000     1.0  0.42103  0.09623  0.22467  1.0000
  Fe  Fe221     1.0  0.36499  0.11748  0.19084  1.0000
  S   S445      1.0  0.39567  0.09786  0.19839  1.0000
  S   S446      1.0  0.37564  0.12390  0.20049  1.0000
  H   H2001     1.0  0.36486  0.99107  0.33103  1.0000
  C   C1679     1.0  0.33983  0.11044  0.26379  1.0000
  H   H2002     1.0  0.39717  0.00339  0.33767  1.0000
  S   S447      1.0  0.26028  0.12771  0.36399  1.0000
  Fe  Fe222     1.0  0.35530  0.03530  0.35324  1.0000
  S   S448      1.0  0.37047  0.04281  0.33928  1.0000
  S   S449      1.0  0.34472  0.02336  0.35005  1.0000
  H   H2003     1.0  0.32511  0.06284  0.19671  1.0000
  H   H2004     1.0  0.32686  0.08694  0.27435  1.0000
  H   H2005     1.0  0.39295  0.05928  0.35514  1.0000
  H   H2006     1.0  0.33939  0.12907  0.23568  1.0000
  H   H2007     1.0  0.35225  0.09605  0.28135  1.0000
  Fe  Fe223     1.0  0.26870  0.11133  0.35557  1.0000
  S   S450      1.0  0.27507  0.11245  0.33545  1.0000
  C   C1680     1.0  0.39092  0.00989  0.33188  1.0000
  Fe  Fe224     1.0  0.35677  0.12502  0.28874  1.0000
  S   S451      1.0  0.33779  0.12131  0.29385  1.0000
  S   S452      1.0  0.36353  0.13330  0.26880  1.0000
  Fe  Fe225     1.0  0.36031  0.11573  0.31510  1.0000
  S   S453      1.0  0.34175  0.11128  0.32213  1.0000
  S   S454      1.0  0.37252  0.11063  0.32867  1.0000
  Fe  Fe226     1.0  0.34596  0.10377  0.30536  1.0000
  S   S455      1.0  0.34023  0.08640  0.30679  1.0000
  Fe  Fe227     1.0  0.33537  0.12921  0.31008  1.0000
  S   S456      1.0  0.31806  0.14114  0.31818  1.0000
  S   S457      1.0  0.36523  0.10669  0.29901  1.0000
  S   S458      1.0  0.35368  0.13451  0.30426  1.0000
  H   H2008     1.0  0.33476  0.13001  0.25752  1.0000
  C   C1681     1.0  0.36771  0.11765  0.34136  1.0000
  C   C1682     1.0  0.37300  0.12718  0.34128  1.0000
  C   C1683     1.0  0.37066  0.13179  0.35184  1.0000
  C   C1684     1.0  0.36319  0.12679  0.36270  1.0000
  C   C1685     1.0  0.35782  0.11725  0.36283  1.0000
  C   C1686     1.0  0.36003  0.11274  0.35215  1.0000
  H   H2009     1.0  0.37916  0.13083  0.33310  1.0000
  H   H2010     1.0  0.34626  0.14699  0.35541  1.0000
  H   H2011     1.0  0.42117  0.05138  0.18582  1.0000
  H   H2012     1.0  0.35609  0.10523  0.35235  1.0000
  C   C1687     1.0  0.28673  0.12079  0.33018  1.0000
  C   C1688     1.0  0.28641  0.13018  0.33574  1.0000
  C   C1689     1.0  0.29586  0.13666  0.33176  1.0000
  C   C1690     1.0  0.30592  0.13345  0.32253  1.0000
  C   C1691     1.0  0.30632  0.12397  0.31703  1.0000
  C   C1692     1.0  0.29660  0.11780  0.32068  1.0000
  H   H2013     1.0  0.27880  0.13262  0.34300  1.0000
  H   H2014     1.0  0.29540  0.14406  0.33596  1.0000
  H   H2015     1.0  0.31402  0.12146  0.30986  1.0000
  H   H2016     1.0  0.29690  0.11051  0.31638  1.0000
  H   H2017     1.0  0.36418  0.08818  0.27101  1.0000
  C   C1693     1.0  0.35503  0.08792  0.27712  1.0000
  C   C1694     1.0  0.31124  0.09279  0.33940  1.0000
  C   C1695     1.0  0.34456  0.15316  0.34661  1.0000
  H   H2018     1.0  0.31892  0.07116  0.36398  1.0000
  C   C1696     1.0  0.36319  0.05420  0.32870  1.0000
  C   C1697     1.0  0.35233  0.05302  0.32646  1.0000
  C   C1698     1.0  0.34572  0.06269  0.31904  1.0000
  C   C1699     1.0  0.34964  0.07375  0.31433  1.0000
  C   C1700     1.0  0.36061  0.07486  0.31641  1.0000
  C   C1701     1.0  0.36754  0.06498  0.32335  1.0000
  H   H2019     1.0  0.34891  0.04472  0.33057  1.0000
  H   H2020     1.0  0.33720  0.06181  0.31752  1.0000
  H   H2021     1.0  0.36369  0.08335  0.31285  1.0000
  H   H2022     1.0  0.37594  0.06591  0.32506  1.0000
  H   H2023     1.0  0.36870  0.12445  0.22852  1.0000
  H   H2024     1.0  0.43456  0.06582  0.18286  1.0000
  C   C1702     1.0  0.37512  0.10826  0.24137  1.0000
  C   C1703     1.0  0.37682  0.10356  0.25336  1.0000
  C   C1704     1.0  0.37299  0.11110  0.26191  1.0000
  C   C1705     1.0  0.36778  0.12353  0.25839  1.0000
  C   C1706     1.0  0.36653  0.12837  0.24623  1.0000
  C   C1707     1.0  0.37006  0.12073  0.23775  1.0000
  H   H2025     1.0  0.38110  0.09401  0.25606  1.0000
  H   H2026     1.0  0.37433  0.10737  0.27115  1.0000
  H   H2027     1.0  0.36260  0.13802  0.24343  1.0000
  N   N111      1.0  0.37489  0.07089  0.35710  1.0000
  H   H2028     1.0  0.33483  0.07813  0.28636  1.0000
  H   H2029     1.0  0.35788  0.08331  0.35432  1.0000
  H   H2030     1.0  0.35621  0.07972  0.28471  1.0000
  N   N112      1.0  0.34601  0.08752  0.27038  1.0000
  H   H2031     1.0  0.25040  0.11636  0.33101  1.0000
  H   H2032     1.0  0.31006  0.08640  0.33437  1.0000
  S   S459      1.0  0.34660  0.12864  0.18760  1.0000
  H   H2033     1.0  0.33059  0.13565  0.33796  1.0000
  C   C1708     1.0  0.33175  0.09760  0.36944  1.0000
  H   H2034     1.0  0.36462  0.00027  0.34635  1.0000
  H   H2035     1.0  0.31250  0.12411  0.35949  1.0000
  H   H2036     1.0  0.37894  0.99430  0.35100  1.0000
  C   C1709     1.0  0.29927  0.05195  0.36303  1.0000
  C   C1710     1.0  0.32239  0.15283  0.35203  1.0000
  S   S460      1.0  0.31077  0.04448  0.35248  1.0000
  H   H2037     1.0  0.40017  0.13155  0.21092  1.0000
  S   S461      1.0  0.25482  0.10042  0.36710  1.0000
  H   H2038     1.0  0.32535  0.07757  0.19854  1.0000
  H   H2039     1.0  0.42629  0.10610  0.23622  1.0000
  C   C1711     1.0  0.33799  0.12121  0.25488  1.0000
  H   H2040     1.0  0.36233  0.07098  0.34632  1.0000
  C   C1712     1.0  0.31334  0.07673  0.35718  1.0000
  C   C1713     1.0  0.33409  0.08670  0.27911  1.0000
  H   H2041     1.0  0.39263  0.11876  0.21812  1.0000
  H   H2042     1.0  0.33774  0.11134  0.27317  1.0000
  Fe  Fe228     1.0  0.38326  0.09362  0.18900  1.0000
  C   C1714     1.0  0.28200  0.06531  0.37944  1.0000
  H   H2043     1.0  0.35119  0.09028  0.24465  1.0000
  C   C1715     1.0  0.29046  0.06204  0.35879  1.0000
  C   C1716     1.0  0.34062  0.12070  0.24260  1.0000
  H   H2044     1.0  0.40336  0.11894  0.20380  1.0000
  N   N113      1.0  0.33416  0.15081  0.34304  1.0000
  H   H2045     1.0  0.39165  0.13126  0.23116  1.0000
  N   N114      1.0  0.31924  0.08640  0.34831  1.0000
  C   C1717     1.0  0.33107  0.08042  0.34136  1.0000
  C   C1718     1.0  0.34737  0.06841  0.18597  1.0000
  Fe  Fe229     1.0  0.34032  0.03637  0.37888  1.0000
  H   H2046     1.0  0.33418  0.08047  0.36475  1.0000
  C   C1719     1.0  0.39689  0.12891  0.24779  1.0000
  H   H2047     1.0  0.35148  0.06778  0.27321  1.0000
  C   C1720     1.0  0.32137  0.09462  0.35493  1.0000
  H   H2048     1.0  0.37482  0.13917  0.35166  1.0000
  H   H2049     1.0  0.30181  0.09688  0.34396  1.0000
  C   C1721     1.0  0.35047  0.07605  0.26566  1.0000
  C   C1722     1.0  0.34442  0.09878  0.26067  1.0000
  H   H2050     1.0  0.33734  0.07439  0.34730  1.0000
  H   H2051     1.0  0.31169  0.14863  0.34148  1.0000
  C   C1723     1.0  0.34722  0.09860  0.24802  1.0000
  H   H2052     1.0  0.27551  0.07688  0.36354  1.0000
  H   H2053     1.0  0.38792  0.01854  0.33536  1.0000
  C   C1724     1.0  0.36586  0.07747  0.34931  1.0000
  H   H2054     1.0  0.34174  0.15789  0.32408  1.0000
  C   C1725     1.0  0.41597  0.11493  0.25077  1.0000
  H   H2055     1.0  0.31526  0.10013  0.33236  1.0000
  H   H2056     1.0  0.42245  0.12866  0.21054  1.0000
  H   H2057     1.0  0.41390  0.09917  0.21210  1.0000
  H   H2058     1.0  0.40466  0.09858  0.22731  1.0000
  H   H2059     1.0  0.31207  0.07016  0.35244  1.0000
  C   C1726     1.0  0.31745  0.11463  0.36032  1.0000
  H   H2060     1.0  0.30415  0.08070  0.36229  1.0000
  H   H2061     1.0  0.29046  0.06481  0.34913  1.0000
  H   H2062     1.0  0.42464  0.11701  0.20218  1.0000
  H   H2063     1.0  0.34641  0.13590  0.33515  1.0000
  H   H2064     1.0  0.34773  0.10911  0.22956  1.0000
  H   H2065     1.0  0.43123  0.11354  0.21526  1.0000
  H   H2066     1.0  0.37533  0.05650  0.37341  1.0000
  H   H2067     1.0  0.35970  0.07582  0.25942  1.0000
  C   C1727     1.0  0.31153  0.15128  0.34974  1.0000
  H   H2068     1.0  0.37182  0.01032  0.34968  1.0000
  H   H2069     1.0  0.33729  0.99801  0.35607  1.0000
  H   H2070     1.0  0.32606  0.15724  0.32707  1.0000
  H   H2071     1.0  0.35330  0.15146  0.33974  1.0000
  H   H2072     1.0  0.34396  0.07499  0.26070  1.0000
  C   C1728     1.0  0.31532  0.10719  0.35377  1.0000
  H   H2073     1.0  0.33668  0.09277  0.18998  1.0000
  Fe  Fe230     1.0  0.32805  0.03523  0.35950  1.0000
  H   H2074     1.0  0.33810  0.13143  0.35055  1.0000
  S   S462      1.0  0.33858  0.04828  0.36058  1.0000
  Fe  Fe231     1.0  0.24746  0.11608  0.37671  1.0000
  H   H2075     1.0  0.33074  0.09431  0.28411  1.0000
  H   H2076     1.0  0.38314  0.05647  0.34705  1.0000
  C   C1729     1.0  0.38833  0.09769  0.35641  1.0000
  N   N115      1.0  0.38027  0.00478  0.33244  1.0000
  H   H2077     1.0  0.32910  0.15717  0.36604  1.0000
  H   H2078     1.0  0.30939  0.13167  0.37901  1.0000
  Fe  Fe232     1.0  0.34658  0.01293  0.36900  1.0000
  C   C1730     1.0  0.33744  0.13791  0.34162  1.0000
  S   S463      1.0  0.36006  0.13348  0.37548  1.0000
  C   C1731     1.0  0.28202  0.06888  0.36694  1.0000
  H   H2079     1.0  0.39260  0.10464  0.34962  1.0000
  H   H2080     1.0  0.39616  0.01222  0.32232  1.0000
  H   H2081     1.0  0.34814  0.07368  0.19230  1.0000
  H   H2082     1.0  0.31644  0.07646  0.18859  1.0000
  C   C1732     1.0  0.32573  0.10987  0.36804  1.0000
  H   H2083     1.0  0.40374  0.12483  0.26416  1.0000
  C   C1733     1.0  0.37368  0.00232  0.34539  1.0000
  C   C1734     1.0  0.37201  0.01436  0.32523  1.0000
  C   C1735     1.0  0.40540  0.12306  0.25510  1.0000
  H   H2084     1.0  0.33012  0.16884  0.33174  1.0000
  S   S464      1.0  0.28572  0.12975  0.37810  1.0000
  H   H2085     1.0  0.38976  0.06960  0.34119  1.0000
  H   H2086     1.0  0.36987  0.08361  0.34086  1.0000
  H   H2087     1.0  0.34814  0.05869  0.19102  1.0000
  N   N116      1.0  0.33590  0.07321  0.18125  1.0000
  C   C1736     1.0  0.33296  0.15906  0.33100  1.0000
  C   C1737     1.0  0.32953  0.09001  0.36312  1.0000
  H   H2088     1.0  0.30596  0.04067  0.37889  1.0000
  C   C1738     1.0  0.36900  0.06194  0.36722  1.0000
  H   H2089     1.0  0.30880  0.11152  0.34794  1.0000
  H   H2090     1.0  0.32961  0.07443  0.33609  1.0000
  C   C1739     1.0  0.34527  0.10943  0.23918  1.0000
  C   C1740     1.0  0.37883  0.07989  0.36131  1.0000
  H   H2091     1.0  0.34286  0.16282  0.34752  1.0000
  H   H2092     1.0  0.38862  0.13519  0.25126  1.0000
  S   S465      1.0  0.28238  0.10299  0.36746  1.0000
  H   H2093     1.0  0.36048  0.06660  0.37276  1.0000
  N   N117      1.0  0.41154  0.11511  0.21944  1.0000
  C   C1741     1.0  0.41287  0.10171  0.22095  1.0000
  C   C1742     1.0  0.40145  0.12140  0.21284  1.0000
  C   C1743     1.0  0.42297  0.11871  0.21155  1.0000
  C   C1744     1.0  0.40935  0.11811  0.23155  1.0000
  C   C1745     1.0  0.39876  0.12652  0.23619  1.0000
  C   C1746     1.0  0.41798  0.11250  0.23916  1.0000
  Fe  Fe233     1.0  0.39193  0.11676  0.18678  1.0000
  H   H2094     1.0  0.38805  0.10516  0.37155  1.0000
  S   S466      1.0  0.35819  0.02444  0.37165  1.0000
  H   H2095     1.0  0.29093  0.15696  0.37567  1.0000
  H   H2096     1.0  0.38676  0.08922  0.34301  1.0000
  H   H2097     1.0  0.29222  0.15129  0.35635  1.0000
  C   C1747     1.0  0.38574  0.09802  0.36873  1.0000
  S   S467      1.0  0.38832  0.07588  0.18262  1.0000
  H   H2098     1.0  0.33599  0.08732  0.33470  1.0000
  C   C1748     1.0  0.32525  0.07249  0.19173  1.0000
  H   H2099     1.0  0.36628  0.05520  0.36375  1.0000
  C   C1749     1.0  0.38492  0.08880  0.35272  1.0000
  C   C1750     1.0  0.32134  0.15603  0.36331  1.0000
  H   H2100     1.0  0.42259  0.11041  0.25650  1.0000
  H   H2101     1.0  0.37641  0.01609  0.31533  1.0000
  H   H2102     1.0  0.41722  0.10255  0.18207  1.0000
  H   H2103     1.0  0.25311  0.13125  0.33966  1.0000
  H   H2104     1.0  0.36315  0.01179  0.32621  1.0000
  S   S468      1.0  0.35396  0.99240  0.37249  1.0000
  H   H2105     1.0  0.40378  0.99134  0.32326  1.0000
  H   H2106     1.0  0.25118  0.13791  0.31877  1.0000
  H   H2107     1.0  0.36979  0.16024  0.18245  1.0000
  C   C1751     1.0  0.30033  0.15288  0.35813  1.0000
  C   C1752     1.0  0.38371  0.99336  0.32776  1.0000
  H   H2108     1.0  0.35200  0.11336  0.37113  1.0000
  C   C1753     1.0  0.34341  0.98925  0.35524  1.0000
  C   C1754     1.0  0.29958  0.15611  0.36904  1.0000
  C   C1755     1.0  0.37662  0.08030  0.37384  1.0000
  C   C1756     1.0  0.31006  0.15766  0.37163  1.0000
  H   H2109     1.0  0.32742  0.11568  0.37304  1.0000
  C   C1757     1.0  0.29927  0.04846  0.37552  1.0000
  H   H2110     1.0  0.33813  0.09395  0.37553  1.0000
  Fe  Fe234     1.0  0.27310  0.11864  0.37680  1.0000
  S   S469      1.0  0.32887  0.02373  0.37829  1.0000
  C   C1758     1.0  0.37999  0.08929  0.37743  1.0000
  Fe  Fe235     1.0  0.26763  0.09372  0.37998  1.0000
  H   H2111     1.0  0.30948  0.15986  0.38028  1.0000
  C   C1759     1.0  0.39611  0.98768  0.32339  1.0000
  H   H2112     1.0  0.37228  0.07382  0.38108  1.0000
  Fe  Fe236     1.0  0.35919  0.17326  0.50483  1.0000
  S   S470      1.0  0.36531  0.15644  0.51857  1.0000
  S   S471      1.0  0.35159  0.19174  0.51034  1.0000
  Fe  Fe237     1.0  0.36432  0.15870  0.48437  1.0000
  S   S472      1.0  0.37111  0.14100  0.49670  1.0000
  S   S473      1.0  0.36245  0.16050  0.46478  1.0000
  Fe  Fe238     1.0  0.35510  0.14744  0.51088  1.0000
  S   S474      1.0  0.34390  0.13402  0.52281  1.0000
  Fe  Fe239     1.0  0.38072  0.15179  0.50307  1.0000
  S   S475      1.0  0.40048  0.14399  0.50432  1.0000
  S   S476      1.0  0.34755  0.16456  0.49835  1.0000
  S   S477      1.0  0.37540  0.16917  0.48951  1.0000
  H   H2113     1.0  0.36821  0.18114  0.55974  1.0000
  H   H2114     1.0  0.33257  0.07338  0.38982  1.0000
  Fe  Fe240     1.0  0.36307  0.21959  0.56090  1.0000
  H   H2115     1.0  0.32875  0.18403  0.55097  1.0000
  S   S478      1.0  0.37330  0.20709  0.54748  1.0000
  H   H2116     1.0  0.32534  0.20508  0.52984  1.0000
  C   C1760     1.0  0.43807  0.39181  0.57084  1.0000
  H   H2117     1.0  0.37718  0.27831  0.57010  1.0000
  C   C1761     1.0  0.36360  0.11049  0.54436  1.0000
  S   S479      1.0  0.34920  0.23756  0.56037  1.0000
  H   H2118     1.0  0.42809  0.42939  0.57371  1.0000
  C   C1762     1.0  0.35206  0.30052  0.56317  1.0000
  C   C1763     1.0  0.40843  0.17967  0.52930  1.0000
  H   H2119     1.0  0.40312  0.10175  0.57328  1.0000
  S   S480      1.0  0.29989  0.16267  0.55645  1.0000
  C   C1764     1.0  0.42078  0.16628  0.54427  1.0000
  N   N118      1.0  0.31980  0.20325  0.54943  1.0000
  Fe  Fe241     1.0  0.42207  0.13468  0.56792  1.0000
  H   H2120     1.0  0.37147  0.12974  0.57257  1.0000
  S   S481      1.0  0.42535  0.12855  0.55025  1.0000
  H   H2121     1.0  0.37804  0.08953  0.38703  1.0000
  C   C1765     1.0  0.49280  0.36236  0.56705  1.0000
  N   N119      1.0  0.37092  0.11958  0.54338  1.0000
  H   H2122     1.0  0.26587  0.11262  0.55741  1.0000
  C   C1766     1.0  0.30429  0.19061  0.56175  1.0000
  C   C1767     1.0  0.29243  0.20780  0.57623  1.0000
  H   H2123     1.0  0.35560  0.13498  0.54157  1.0000
  C   C1768     1.0  0.38440  0.10461  0.57168  1.0000
  C   C1769     1.0  0.28081  0.12174  0.54814  1.0000
  H   H2124     1.0  0.34371  0.08488  0.39653  1.0000
  C   C1770     1.0  0.39269  0.11450  0.54698  1.0000
  C   C1771     1.0  0.37377  0.47562  0.57378  1.0000
  C   C1772     1.0  0.26410  0.12874  0.56410  1.0000
  Fe  Fe242     1.0  0.35636  0.11741  0.42152  1.0000
  S   S482      1.0  0.34517  0.10291  0.42668  1.0000
  S   S483      1.0  0.36364  0.11891  0.43748  1.0000
  Fe  Fe243     1.0  0.35444  0.12249  0.39459  1.0000
  S   S484      1.0  0.34288  0.10878  0.39799  1.0000
  Fe  Fe244     1.0  0.33304  0.11623  0.41474  1.0000
  S   S485      1.0  0.31260  0.11836  0.42181  1.0000
  Fe  Fe245     1.0  0.35602  0.09667  0.40951  1.0000
  S   S486      1.0  0.36401  0.07667  0.40906  1.0000
  S   S487      1.0  0.34341  0.13122  0.41050  1.0000
  S   S488      1.0  0.36837  0.10994  0.40515  1.0000
  C   C1773     1.0  0.40025  0.18296  0.50748  1.0000
  H   H2125     1.0  0.39687  0.18410  0.49932  1.0000
  H   H2126     1.0  0.44536  0.38973  0.56315  1.0000
  H   H2127     1.0  0.42645  0.40523  0.55962  1.0000
  C   C1774     1.0  0.29313  0.12575  0.39040  1.0000
  C   C1775     1.0  0.28730  0.12114  0.40235  1.0000
  C   C1776     1.0  0.29321  0.11902  0.41206  1.0000
  C   C1777     1.0  0.30504  0.12126  0.40977  1.0000
  C   C1778     1.0  0.31089  0.12567  0.39780  1.0000
  C   C1779     1.0  0.30489  0.12802  0.38819  1.0000
  H   H2128     1.0  0.27811  0.11960  0.40413  1.0000
  H   H2129     1.0  0.28864  0.11564  0.42133  1.0000
  H   H2130     1.0  0.31992  0.12761  0.39596  1.0000
  H   H2131     1.0  0.27924  0.10408  0.57865  1.0000
  H   H2132     1.0  0.28469  0.14748  0.55359  1.0000
  C   C1780     1.0  0.35317  0.30971  0.56825  1.0000
  C   C1781     1.0  0.37278  0.48553  0.57891  1.0000
  H   H2133     1.0  0.29050  0.05215  0.39340  1.0000
  H   H2134     1.0  0.25356  0.15997  0.55820  1.0000
  C   C1782     1.0  0.34426  0.05582  0.39497  1.0000
  C   C1783     1.0  0.34064  0.06860  0.39341  1.0000
  C   C1784     1.0  0.34691  0.07513  0.39730  1.0000
  C   C1785     1.0  0.35677  0.06891  0.40292  1.0000
  C   C1786     1.0  0.36087  0.05622  0.40379  1.0000
  C   C1787     1.0  0.35462  0.04967  0.39984  1.0000
  H   H2135     1.0  0.36960  0.12684  0.52448  1.0000
  H   H2136     1.0  0.39656  0.11828  0.53760  1.0000
  H   H2137     1.0  0.36857  0.05135  0.40803  1.0000
  H   H2138     1.0  0.35735  0.03978  0.40128  1.0000
  H   H2139     1.0  0.38142  0.13095  0.52858  1.0000
  C   C1788     1.0  0.29048  0.05497  0.38375  1.0000
  C   C1789     1.0  0.28031  0.14000  0.55469  1.0000
  C   C1790     1.0  0.41764  0.18814  0.54073  1.0000
  H   H2140     1.0  0.35851  0.31626  0.56243  1.0000
  C   C1791     1.0  0.40074  0.17812  0.55102  1.0000
  H   H2141     1.0  0.34505  0.28425  0.56643  1.0000
  S   S489      1.0  0.36477  0.25964  0.57081  1.0000
  H   H2142     1.0  0.44825  0.41629  0.56699  1.0000
  H   H2143     1.0  0.41001  0.38899  0.56148  1.0000
  H   H2144     1.0  0.36653  0.10918  0.56797  1.0000
  H   H2145     1.0  0.24501  0.14481  0.57621  1.0000
  C   C1792     1.0  0.44460  0.41614  0.57663  1.0000
  H   H2146     1.0  0.35697  0.15386  0.57451  1.0000
  H   H2147     1.0  0.36968  0.10172  0.54233  1.0000
  S   S490      1.0  0.25943  0.10859  0.39059  1.0000
  C   C1793     1.0  0.34556  0.29161  0.57027  1.0000
  H   H2148     1.0  0.39045  0.20078  0.51070  1.0000
  C   C1794     1.0  0.37612  0.10919  0.56390  1.0000
  H   H2149     1.0  0.42764  0.37157  0.56436  1.0000
  H   H2150     1.0  0.33194  0.21589  0.54107  1.0000
  H   H2151     1.0  0.34710  0.16800  0.56884  1.0000
  Fe  Fe246     1.0  0.33853  0.22758  0.57770  1.0000
  H   H2152     1.0  0.40296  0.17653  0.56012  1.0000
  C   C1795     1.0  0.37661  0.12336  0.53024  1.0000
  C   C1796     1.0  0.35746  0.19576  0.52093  1.0000
  C   C1797     1.0  0.36661  0.18759  0.52661  1.0000
  C   C1798     1.0  0.37114  0.19110  0.53492  1.0000
  C   C1799     1.0  0.36651  0.20274  0.53779  1.0000
  C   C1800     1.0  0.35724  0.21087  0.53224  1.0000
  C   C1801     1.0  0.35281  0.20742  0.52378  1.0000
  H   H2153     1.0  0.37038  0.17865  0.52441  1.0000
  H   H2154     1.0  0.37845  0.18478  0.53895  1.0000
  H   H2155     1.0  0.35382  0.21997  0.53413  1.0000
  H   H2156     1.0  0.34587  0.21387  0.51927  1.0000
  C   C1802     1.0  0.40636  0.14014  0.51773  1.0000
  C   C1803     1.0  0.39994  0.14412  0.52859  1.0000
  C   C1804     1.0  0.40557  0.14088  0.53879  1.0000
  C   C1805     1.0  0.41753  0.13361  0.53806  1.0000
  C   C1806     1.0  0.42372  0.12968  0.52724  1.0000
  C   C1807     1.0  0.41825  0.13300  0.51717  1.0000
  H   H2157     1.0  0.39078  0.14978  0.52907  1.0000
  H   H2158     1.0  0.40065  0.14383  0.54718  1.0000
  H   H2159     1.0  0.43291  0.12403  0.52661  1.0000
  H   H2160     1.0  0.42330  0.12991  0.50886  1.0000
  C   C1808     1.0  0.33122  0.14204  0.53169  1.0000
  C   C1809     1.0  0.32320  0.13569  0.54088  1.0000
  C   C1810     1.0  0.31332  0.14210  0.54831  1.0000
  C   C1811     1.0  0.31131  0.15487  0.54635  1.0000
  C   C1812     1.0  0.31920  0.16124  0.53705  1.0000
  C   C1813     1.0  0.32926  0.15480  0.52984  1.0000
  H   H2161     1.0  0.32477  0.12581  0.54241  1.0000
  H   H2162     1.0  0.30731  0.13713  0.55561  1.0000
  H   H2163     1.0  0.31780  0.17108  0.53568  1.0000
  H   H2164     1.0  0.33556  0.15974  0.52297  1.0000
  C   C1814     1.0  0.36195  0.14873  0.45784  1.0000
  C   C1815     1.0  0.36670  0.13634  0.46230  1.0000
  C   C1816     1.0  0.36708  0.12741  0.45595  1.0000
  C   C1817     1.0  0.36254  0.13067  0.44518  1.0000
  C   C1818     1.0  0.35751  0.14302  0.44086  1.0000
  C   C1819     1.0  0.35733  0.15199  0.44710  1.0000
  H   H2165     1.0  0.37031  0.13364  0.47051  1.0000
  H   H2166     1.0  0.37100  0.11790  0.45938  1.0000
  H   H2167     1.0  0.35405  0.14571  0.43256  1.0000
  H   H2168     1.0  0.35371  0.16154  0.44351  1.0000
  H   H2169     1.0  0.35713  0.12829  0.55693  1.0000
  H   H2170     1.0  0.36814  0.31950  0.57606  1.0000
  H   H2171     1.0  0.38325  0.11554  0.52668  1.0000
  H   H2172     1.0  0.41786  0.16152  0.52528  1.0000
  H   H2173     1.0  0.41106  0.19716  0.54011  1.0000
  H   H2174     1.0  0.37297  0.46669  0.57965  1.0000
  C   C1820     1.0  0.40089  0.10992  0.55487  1.0000
  H   H2175     1.0  0.36761  0.13753  0.54708  1.0000
  H   H2176     1.0  0.28529  0.11515  0.54240  1.0000
  C   C1821     1.0  0.36248  0.13056  0.54741  1.0000
  C   C1822     1.0  0.29429  0.18840  0.57132  1.0000
  H   H2177     1.0  0.28569  0.09109  0.39730  1.0000
  H   H2178     1.0  0.42106  0.18673  0.54920  1.0000
  C   C1823     1.0  0.41205  0.17032  0.52246  1.0000
  H   H2179     1.0  0.30514  0.21862  0.56560  1.0000
  H   H2180     1.0  0.30855  0.18366  0.55642  1.0000
  C   C1824     1.0  0.41788  0.40333  0.57874  1.0000
  H   H2181     1.0  0.39595  0.17089  0.55132  1.0000
  N   N120      1.0  0.41192  0.17799  0.54109  1.0000
  H   H2182     1.0  0.35727  0.11391  0.53788  1.0000
  H   H2183     1.0  0.35758  0.10845  0.55355  1.0000
  S   S491      1.0  0.40572  0.14845  0.57466  1.0000
  C   C1825     1.0  0.39669  0.19235  0.51386  1.0000
  S   S492      1.0  0.27188  0.07411  0.38966  1.0000
  N   N121      1.0  0.40073  0.14947  0.45849  1.0000
  C   C1826     1.0  0.39497  0.14370  0.47099  1.0000
  C   C1827     1.0  0.41424  0.14659  0.45731  1.0000
  C   C1828     1.0  0.39644  0.16298  0.45713  1.0000
  C   C1829     1.0  0.39762  0.14458  0.44944  1.0000
  C   C1830     1.0  0.39064  0.15206  0.44071  1.0000
  C   C1831     1.0  0.40134  0.13186  0.44942  1.0000
  C   C1832     1.0  0.38770  0.14705  0.43247  1.0000
  C   C1833     1.0  0.39826  0.12695  0.44119  1.0000
  C   C1834     1.0  0.39146  0.13454  0.43273  1.0000
  H   H2184     1.0  0.39846  0.13362  0.47325  1.0000
  H   H2185     1.0  0.39665  0.14744  0.47813  1.0000
  H   H2186     1.0  0.38487  0.14533  0.47197  1.0000
  H   H2187     1.0  0.41809  0.13657  0.45946  1.0000
  H   H2188     1.0  0.41688  0.15052  0.46374  1.0000
  H   H2189     1.0  0.41894  0.15033  0.44785  1.0000
  H   H2190     1.0  0.38624  0.16576  0.45861  1.0000
  H   H2191     1.0  0.39897  0.16636  0.46402  1.0000
  H   H2192     1.0  0.40049  0.16797  0.44794  1.0000
  H   H2193     1.0  0.38696  0.16173  0.44031  1.0000
  H   H2194     1.0  0.40642  0.12555  0.45595  1.0000
  H   H2195     1.0  0.38205  0.15284  0.42614  1.0000
  H   H2196     1.0  0.40089  0.11717  0.44153  1.0000
  H   H2197     1.0  0.38874  0.13064  0.42664  1.0000
  H   H2198     1.0  0.41051  0.11032  0.55144  1.0000
  S   S493      1.0  0.37344  0.22458  0.57203  1.0000
  C   C1835     1.0  0.32369  0.21475  0.54846  1.0000
  C   C1836     1.0  0.33028  0.19284  0.55174  1.0000
  C   C1837     1.0  0.30881  0.20145  0.55925  1.0000
  H   H2199     1.0  0.29454  0.13266  0.54066  1.0000
  H   H2200     1.0  0.31504  0.19503  0.53718  1.0000
  H   H2201     1.0  0.29115  0.17997  0.57315  1.0000
  S   S494      1.0  0.43587  0.14359  0.57056  1.0000
  H   H2202     1.0  0.35360  0.18838  0.56761  1.0000
  C   C1838     1.0  0.26926  0.13877  0.56350  1.0000
  H   H2203     1.0  0.24474  0.08686  0.39541  1.0000
  H   H2204     1.0  0.48571  0.35667  0.57100  1.0000
  H   H2205     1.0  0.31642  0.22300  0.54626  1.0000
  H   H2206     1.0  0.39214  0.39183  0.57848  1.0000
  H   H2207     1.0  0.32607  0.21490  0.55708  1.0000
  C   C1839     1.0  0.39675  0.10504  0.56719  1.0000
  S   S495      1.0  0.33428  0.04763  0.39332  1.0000
  H   H2208     1.0  0.33186  0.19154  0.56105  1.0000
  H   H2209     1.0  0.32485  0.09274  0.42107  1.0000
  S   S496      1.0  0.41896  0.17617  0.57482  1.0000
  C   C1840     1.0  0.25993  0.16007  0.56381  1.0000
  C   C1841     1.0  0.42739  0.40061  0.56884  1.0000
  H   H2210     1.0  0.37637  0.46947  0.55725  1.0000
  C   C1842     1.0  0.40070  0.19077  0.52460  1.0000
  H   H2211     1.0  0.41680  0.15814  0.54568  1.0000
  H   H2212     1.0  0.41068  0.16470  0.50673  1.0000
  H   H2213     1.0  0.39413  0.18709  0.54989  1.0000
  C   C1843     1.0  0.40970  0.38232  0.57007  1.0000
  C   C1844     1.0  0.37999  0.11430  0.55129  1.0000
  C   C1845     1.0  0.28848  0.19689  0.57866  1.0000
  H   H2214     1.0  0.40925  0.20107  0.57753  1.0000
  H   H2215     1.0  0.35021  0.33385  0.56907  1.0000
  C   C1846     1.0  0.40798  0.17202  0.51171  1.0000
  H   H2216     1.0  0.39727  0.19818  0.52946  1.0000
  C   C1847     1.0  0.31725  0.20369  0.53747  1.0000
  H   H2217     1.0  0.42351  0.16551  0.55297  1.0000
  C   C1848     1.0  0.41960  0.37252  0.57172  1.0000
  H   H2218     1.0  0.42556  0.18894  0.53282  1.0000
  H   H2219     1.0  0.33893  0.19430  0.54502  1.0000
  C   C1849     1.0  0.32878  0.07310  0.42421  1.0000
  H   H2220     1.0  0.42939  0.16552  0.53711  1.0000
  H   H2221     1.0  0.25575  0.12694  0.57050  1.0000
  H   H2222     1.0  0.33626  0.07192  0.42867  1.0000
  N   N122      1.0  0.32044  0.12679  0.45294  1.0000
  C   C1850     1.0  0.32764  0.13308  0.44153  1.0000
  C   C1851     1.0  0.32402  0.11337  0.45349  1.0000
  C   C1852     1.0  0.30729  0.13081  0.45220  1.0000
  C   C1853     1.0  0.32308  0.12959  0.46356  1.0000
  C   C1854     1.0  0.33502  0.12542  0.46608  1.0000
  C   C1855     1.0  0.31415  0.13679  0.47137  1.0000
  C   C1856     1.0  0.33783  0.12814  0.47588  1.0000
  C   C1857     1.0  0.31710  0.13952  0.48111  1.0000
  C   C1858     1.0  0.32891  0.13522  0.48335  1.0000
  H   H2223     1.0  0.33770  0.12959  0.44078  1.0000
  H   H2224     1.0  0.32544  0.13171  0.43331  1.0000
  H   H2225     1.0  0.32576  0.14312  0.44101  1.0000
  H   H2226     1.0  0.33411  0.10981  0.45235  1.0000
  H   H2227     1.0  0.32143  0.11094  0.44602  1.0000
  H   H2228     1.0  0.31951  0.10821  0.46236  1.0000
  H   H2229     1.0  0.30419  0.14096  0.45070  1.0000
  H   H2230     1.0  0.30558  0.12821  0.44433  1.0000
  H   H2231     1.0  0.30132  0.12646  0.46058  1.0000
  H   H2232     1.0  0.34238  0.12017  0.46037  1.0000
  H   H2233     1.0  0.30487  0.14053  0.47011  1.0000
  H   H2234     1.0  0.34704  0.12490  0.47759  1.0000
  H   H2235     1.0  0.31022  0.14511  0.48691  1.0000
  H   H2236     1.0  0.33120  0.13744  0.49083  1.0000
  N   N123      1.0  0.30006  0.07761  0.40513  1.0000
  C   C1859     1.0  0.29103  0.07022  0.41299  1.0000
  C   C1860     1.0  0.29321  0.09047  0.40188  1.0000
  C   C1861     1.0  0.30543  0.07314  0.39363  1.0000
  C   C1862     1.0  0.30991  0.07628  0.41159  1.0000
  C   C1863     1.0  0.31317  0.08647  0.41353  1.0000
  C   C1864     1.0  0.31663  0.06446  0.41614  1.0000
  C   C1865     1.0  0.32243  0.08484  0.41980  1.0000
  C   C1866     1.0  0.32589  0.06293  0.42236  1.0000
  H   H2237     1.0  0.28758  0.07257  0.42215  1.0000
  H   H2238     1.0  0.28296  0.07173  0.40891  1.0000
  H   H2239     1.0  0.29498  0.06020  0.41433  1.0000
  H   H2240     1.0  0.28887  0.09441  0.41014  1.0000
  C   C1867     1.0  0.28600  0.13157  0.54718  1.0000
  H   H2241     1.0  0.29926  0.09646  0.39533  1.0000
  H   H2242     1.0  0.31002  0.06326  0.39529  1.0000
  H   H2243     1.0  0.29828  0.07415  0.38847  1.0000
  H   H2244     1.0  0.31235  0.07836  0.38754  1.0000
  H   H2245     1.0  0.30880  0.09582  0.41023  1.0000
  H   H2246     1.0  0.31507  0.05629  0.41455  1.0000
  H   H2247     1.0  0.33120  0.05383  0.42533  1.0000
  H   H2248     1.0  0.30933  0.21127  0.53543  1.0000
  C   C1868     1.0  0.37564  0.47719  0.56117  1.0000
  Fe  Fe247     1.0  0.41946  0.15614  0.57901  1.0000
  C   C1869     1.0  0.26986  0.12036  0.55655  1.0000
  H   H2249     1.0  0.26801  0.16342  0.55743  1.0000
  H   H2250     1.0  0.28041  0.15203  0.57214  1.0000
  N   N124      1.0  0.26355  0.14774  0.57145  1.0000
  Fe  Fe248     1.0  0.35860  0.24171  0.57322  1.0000
  C   C1870     1.0  0.36255  0.18217  0.56891  1.0000
  H   H2251     1.0  0.25529  0.16703  0.56950  1.0000
  C   C1871     1.0  0.34474  0.33224  0.57859  1.0000
  C   C1872     1.0  0.39962  0.38392  0.57969  1.0000
  S   S497      1.0  0.40448  0.41416  0.57595  1.0000
  S   S498      1.0  0.31140  0.13382  0.58045  1.0000
  H   H2252     1.0  0.36766  0.18694  0.57231  1.0000
  H   H2253     1.0  0.36263  0.16352  0.56074  1.0000
  S   S499      1.0  0.32006  0.15899  0.57965  1.0000
  H   H2254     1.0  0.48801  0.37156  0.56270  1.0000
  Fe  Fe249     1.0  0.30501  0.15408  0.57451  1.0000
  H   H2255     1.0  0.35647  0.30011  0.55376  1.0000
  C   C1873     1.0  0.43327  0.42356  0.58044  1.0000
  H   H2256     1.0  0.24904  0.07118  0.38491  1.0000
  H   H2257     1.0  0.37947  0.16068  0.57139  1.0000
  C   C1874     1.0  0.35666  0.16364  0.57001  1.0000
  C   C1875     1.0  0.30240  0.21014  0.56665  1.0000
  C   C1876     1.0  0.27249  0.14827  0.57824  1.0000
  N   N125      1.0  0.36080  0.17017  0.57702  1.0000
  S   S500      1.0  0.35173  0.20978  0.57740  1.0000
  H   H2258     1.0  0.32978  0.20156  0.57681  1.0000
  C   C1877     1.0  0.37194  0.27609  0.57934  1.0000
  H   H2259     1.0  0.33499  0.33343  0.57815  1.0000
  C   C1878     1.0  0.37281  0.16308  0.57973  1.0000
  C   C1879     1.0  0.25245  0.14476  0.58063  1.0000
  C   C1880     1.0  0.34777  0.31023  0.58067  1.0000
  C   C1881     1.0  0.38427  0.36368  0.64597  1.0000
  H   H2260     1.0  0.41993  0.31528  0.67465  1.0000
  H   H2261     1.0  0.25100  0.02432  0.62521  1.0000
  C   C1882     1.0  0.40284  0.37227  0.63919  1.0000
  C   C1883     1.0  0.26317  0.11759  0.60734  1.0000
  C   C1884     1.0  0.42617  0.40200  0.62062  1.0000
  S   S501      1.0  0.31305  0.13960  0.60603  1.0000
  C   C1885     1.0  0.24764  0.03343  0.62016  1.0000
  S   S502      1.0  0.45251  0.12316  0.59581  1.0000
  S   S503      1.0  0.38819  0.13274  0.60589  1.0000
  H   H2262     1.0  0.34369  0.36946  0.75448  1.0000
  C   C1886     1.0  0.36504  0.26696  0.58238  1.0000
  C   C1887     1.0  0.41082  0.34367  0.60215  1.0000
  S   S504      1.0  0.38080  0.38556  0.76723  1.0000
  C   C1888     1.0  0.36158  0.35868  0.61006  1.0000
  Fe  Fe250     1.0  0.38026  0.35264  0.71788  1.0000
  S   S505      1.0  0.36998  0.35021  0.70502  1.0000
  S   S506      1.0  0.37214  0.35052  0.73826  1.0000
  Fe  Fe251     1.0  0.40179  0.35862  0.69727  1.0000
  S   S507      1.0  0.39330  0.35700  0.68284  1.0000
  S   S508      1.0  0.42032  0.36297  0.69400  1.0000
  Fe  Fe252     1.0  0.37600  0.36719  0.69303  1.0000
  S   S509      1.0  0.36359  0.38303  0.68338  1.0000
  Fe  Fe253     1.0  0.38826  0.34019  0.69593  1.0000
  S   S510      1.0  0.39401  0.32367  0.68732  1.0000
  S   S511      1.0  0.38491  0.37036  0.70640  1.0000
  S   S512      1.0  0.39805  0.34103  0.70986  1.0000
  Fe  Fe254     1.0  0.44896  0.34798  0.62741  1.0000
  S   S513      1.0  0.46111  0.35271  0.63680  1.0000
  S   S514      1.0  0.43623  0.33521  0.63805  1.0000
  Fe  Fe255     1.0  0.45470  0.36743  0.60448  1.0000
  S   S515      1.0  0.46705  0.37404  0.61196  1.0000
  S   S516      1.0  0.31878  0.22623  0.58120  1.0000
  Fe  Fe256     1.0  0.47450  0.35407  0.61867  1.0000
  Fe  Fe257     1.0  0.45268  0.37216  0.62928  1.0000
  S   S517      1.0  0.44605  0.38629  0.64077  1.0000
  S   S518      1.0  0.46307  0.34747  0.60992  1.0000
  S   S519      1.0  0.43956  0.36744  0.62121  1.0000
  Fe  Fe258     1.0  0.37417  0.30195  0.61319  1.0000
  S   S520      1.0  0.38444  0.29834  0.62830  1.0000
  S   S521      1.0  0.36465  0.28765  0.61149  1.0000
  Fe  Fe259     1.0  0.37660  0.32877  0.60502  1.0000
  S   S522      1.0  0.38689  0.32744  0.61916  1.0000
  H   H2263     1.0  0.37233  0.22200  0.62073  1.0000
  Fe  Fe260     1.0  0.39717  0.30947  0.61431  1.0000
  S   S523      1.0  0.41779  0.30581  0.61042  1.0000
  Fe  Fe261     1.0  0.37341  0.31671  0.63197  1.0000
  S   S524      1.0  0.36369  0.32236  0.64987  1.0000
  H   H2264     1.0  0.35540  0.38447  0.74814  1.0000
  S   S525      1.0  0.36208  0.31952  0.61811  1.0000
  Fe  Fe262     1.0  0.36803  0.43413  0.60378  1.0000
  S   S526      1.0  0.38824  0.42989  0.60320  1.0000
  H   H2265     1.0  0.33253  0.32050  0.59973  1.0000
  Fe  Fe263     1.0  0.36693  0.40710  0.60911  1.0000
  S   S527      1.0  0.38698  0.40059  0.60904  1.0000
  S   S528      1.0  0.35482  0.39334  0.61499  1.0000
  Fe  Fe264     1.0  0.38409  0.41500  0.61961  1.0000
  S   S529      1.0  0.39395  0.41027  0.63496  1.0000
  C   C1889     1.0  0.35485  0.13215  0.60105  1.0000
  H   H2266     1.0  0.25625  0.08205  0.60887  1.0000
  S   S530      1.0  0.36373  0.42035  0.62116  1.0000
  C   C1890     1.0  0.37209  0.47071  0.61640  1.0000
  S   S531      1.0  0.47586  0.14162  0.62963  1.0000
  C   C1891     1.0  0.36835  0.35949  0.59803  1.0000
  C   C1892     1.0  0.39651  0.17607  0.59019  1.0000
  H   H2267     1.0  0.49318  0.36982  0.61935  1.0000
  C   C1893     1.0  0.36017  0.38042  0.60832  1.0000
  C   C1894     1.0  0.35725  0.36919  0.61507  1.0000
  H   H2268     1.0  0.48426  0.37777  0.58294  1.0000
  S   S532      1.0  0.36946  0.42134  0.59171  1.0000
  H   H2269     1.0  0.46989  0.10855  0.62841  1.0000
  C   C1895     1.0  0.44357  0.32918  0.67251  1.0000
  C   C1896     1.0  0.25666  0.11200  0.60250  1.0000
  H   H2270     1.0  0.37744  0.28940  0.58554  1.0000
  H   H2271     1.0  0.38114  0.10108  0.58134  1.0000
  H   H2272     1.0  0.41002  0.34183  0.65133  1.0000
  C   C1897     1.0  0.45826  0.34069  0.67323  1.0000
  C   C1898     1.0  0.32877  0.38156  0.77972  1.0000
  H   H2273     1.0  0.34555  0.13279  0.60641  1.0000
  H   H2274     1.0  0.43087  0.38418  0.60183  1.0000
  C   C1899     1.0  0.43146  0.32688  0.63024  1.0000
  C   C1900     1.0  0.42095  0.32202  0.63585  1.0000
  C   C1901     1.0  0.41671  0.31560  0.62976  1.0000
  C   C1902     1.0  0.42321  0.31361  0.61821  1.0000
  C   C1903     1.0  0.43385  0.31829  0.61266  1.0000
  C   C1904     1.0  0.43786  0.32511  0.61858  1.0000
  H   H2275     1.0  0.41602  0.32318  0.64492  1.0000
  H   H2276     1.0  0.40853  0.31197  0.63411  1.0000
  H   H2277     1.0  0.37391  0.22645  0.59850  1.0000
  H   H2278     1.0  0.44602  0.32875  0.61423  1.0000
  C   C1905     1.0  0.42734  0.36913  0.67901  1.0000
  C   C1906     1.0  0.43821  0.37311  0.67718  1.0000
  C   C1907     1.0  0.44392  0.37841  0.66542  1.0000
  C   C1908     1.0  0.43893  0.37949  0.65540  1.0000
  C   C1909     1.0  0.42813  0.37542  0.65717  1.0000
  C   C1910     1.0  0.42224  0.37037  0.66900  1.0000
  H   H2279     1.0  0.44221  0.37214  0.68488  1.0000
  H   H2280     1.0  0.45230  0.38152  0.66405  1.0000
  H   H2281     1.0  0.42420  0.37639  0.64943  1.0000
  H   H2282     1.0  0.41377  0.36754  0.67030  1.0000
  C   C1911     1.0  0.37203  0.39102  0.67020  1.0000
  C   C1912     1.0  0.38486  0.38843  0.66789  1.0000
  C   C1913     1.0  0.39155  0.39454  0.65714  1.0000
  C   C1914     1.0  0.38542  0.40323  0.64864  1.0000
  C   C1915     1.0  0.37258  0.40602  0.65105  1.0000
  C   C1916     1.0  0.36588  0.39994  0.66185  1.0000
  H   H2283     1.0  0.38966  0.38180  0.67441  1.0000
  H   H2284     1.0  0.40148  0.39229  0.65524  1.0000
  H   H2285     1.0  0.36779  0.41296  0.64471  1.0000
  H   H2286     1.0  0.35595  0.40205  0.66366  1.0000
  C   C1917     1.0  0.38565  0.32355  0.67676  1.0000
  C   C1918     1.0  0.39153  0.31774  0.66693  1.0000
  C   C1919     1.0  0.38493  0.31742  0.65852  1.0000
  C   C1920     1.0  0.37236  0.32261  0.66011  1.0000
  C   C1921     1.0  0.36650  0.32839  0.66995  1.0000
  C   C1922     1.0  0.37315  0.32898  0.67817  1.0000
  H   H2287     1.0  0.40119  0.31346  0.66581  1.0000
  H   H2288     1.0  0.38951  0.31293  0.65097  1.0000
  H   H2289     1.0  0.35677  0.33240  0.67124  1.0000
  H   H2290     1.0  0.36853  0.33336  0.68579  1.0000
  C   C1923     1.0  0.37801  0.37589  0.75936  1.0000
  C   C1924     1.0  0.38395  0.37637  0.74706  1.0000
  C   C1925     1.0  0.38216  0.36870  0.74049  1.0000
  C   C1926     1.0  0.37451  0.36038  0.74620  1.0000
  C   C1927     1.0  0.36867  0.35980  0.75855  1.0000
  C   C1928     1.0  0.37028  0.36763  0.76509  1.0000
  H   H2291     1.0  0.39003  0.38266  0.74261  1.0000
  H   H2292     1.0  0.38690  0.36906  0.73107  1.0000
  H   H2293     1.0  0.36294  0.35320  0.76309  1.0000
  H   H2294     1.0  0.36569  0.36710  0.77457  1.0000
  C   C1929     1.0  0.46461  0.32616  0.66013  1.0000
  Fe  Fe265     1.0  0.30701  0.15962  0.59766  1.0000
  H   H2295     1.0  0.38923  0.35791  0.60993  1.0000
  C   C1930     1.0  0.40997  0.36076  0.64302  1.0000
  C   C1931     1.0  0.49047  0.10623  0.63605  1.0000
  C   C1932     1.0  0.36980  0.46181  0.61168  1.0000
  C   C1933     1.0  0.35936  0.46431  0.60684  1.0000
  S   S533      1.0  0.28319  0.12572  0.60821  1.0000
  H   H2296     1.0  0.38022  0.46875  0.62009  1.0000
  H   H2297     1.0  0.37611  0.45302  0.61182  1.0000
  C   C1934     1.0  0.37654  0.13146  0.59944  1.0000
  C   C1935     1.0  0.45885  0.12945  0.60443  1.0000
  C   C1936     1.0  0.47161  0.12631  0.60360  1.0000
  C   C1937     1.0  0.47701  0.13011  0.61107  1.0000
  C   C1938     1.0  0.46964  0.13704  0.61958  1.0000
  C   C1939     1.0  0.45690  0.14049  0.62017  1.0000
  C   C1940     1.0  0.45153  0.13676  0.61262  1.0000
  H   H2298     1.0  0.47735  0.12091  0.59710  1.0000
  H   H2299     1.0  0.48685  0.12761  0.61025  1.0000
  H   H2300     1.0  0.45111  0.14595  0.62664  1.0000
  H   H2301     1.0  0.44169  0.13925  0.61338  1.0000
  C   C1941     1.0  0.36510  0.27988  0.60000  1.0000
  C   C1942     1.0  0.30554  0.21087  0.59868  1.0000
  H   H2302     1.0  0.32484  0.43941  0.64839  1.0000
  H   H2303     1.0  0.42235  0.40084  0.63065  1.0000
  C   C1943     1.0  0.26976  0.06006  0.60999  1.0000
  H   H2304     1.0  0.41913  0.40083  0.61640  1.0000
  H   H2305     1.0  0.33137  0.44546  0.62483  1.0000
  H   H2306     1.0  0.32193  0.39914  0.75375  1.0000
  S   S534      1.0  0.41857  0.14494  0.59807  1.0000
  H   H2307     1.0  0.41822  0.32097  0.69297  1.0000
  H   H2308     1.0  0.43090  0.31952  0.66117  1.0000
  H   H2309     1.0  0.42701  0.33066  0.69445  1.0000
  Fe  Fe266     1.0  0.29844  0.13633  0.59827  1.0000
  C   C1944     1.0  0.35241  0.18058  0.59492  1.0000
  C   C1945     1.0  0.33857  0.37040  0.76356  1.0000
  H   H2310     1.0  0.48631  0.08431  0.64964  1.0000
  S   S535      1.0  0.42195  0.12137  0.58609  1.0000
  H   H2311     1.0  0.27631  0.13901  0.58326  1.0000
  C   C1946     1.0  0.42750  0.32322  0.68988  1.0000
  H   H2312     1.0  0.26835  0.05749  0.62013  1.0000
  H   H2313     1.0  0.43504  0.41492  0.63124  1.0000
  C   C1947     1.0  0.39927  0.37559  0.59093  1.0000
  H   H2314     1.0  0.40455  0.25182  0.62857  1.0000
  C   C1948     1.0  0.39134  0.20121  0.58941  1.0000
  H   H2315     1.0  0.34075  0.40065  0.77400  1.0000
  H   H2316     1.0  0.37794  0.25208  0.63581  1.0000
  H   H2317     1.0  0.39849  0.27023  0.61397  1.0000
  H   H2318     1.0  0.37221  0.26359  0.62377  1.0000
  Fe  Fe267     1.0  0.32543  0.13882  0.58744  1.0000
  H   H2319     1.0  0.39133  0.25594  0.59337  1.0000
  H   H2320     1.0  0.39720  0.35084  0.62212  1.0000
  C   C1949     1.0  0.48682  0.09735  0.60999  1.0000
  C   C1950     1.0  0.37205  0.28246  0.58808  1.0000
  H   H2321     1.0  0.26520  0.05941  0.58831  1.0000
  H   H2322     1.0  0.48834  0.11539  0.63001  1.0000
  C   C1951     1.0  0.48865  0.36805  0.58626  1.0000
  H   H2323     1.0  0.41873  0.34999  0.61912  1.0000
  C   C1952     1.0  0.32396  0.44918  0.64856  1.0000
  H   H2324     1.0  0.37628  0.37145  0.58186  1.0000
  N   N126      1.0  0.25786  0.06395  0.60602  1.0000
  H   H2325     1.0  0.49130  0.16886  0.60781  1.0000
  C   C1953     1.0  0.47341  0.09952  0.63413  1.0000
  C   C1954     1.0  0.31967  0.47658  0.63802  1.0000
  C   C1955     1.0  0.40905  0.36528  0.59282  1.0000
  H   H2326     1.0  0.34307  0.47771  0.60311  1.0000
  H   H2327     1.0  0.25219  0.07205  0.58877  1.0000
  H   H2328     1.0  0.39846  0.16634  0.59059  1.0000
  C   C1956     1.0  0.37106  0.37077  0.59118  1.0000
  N   N127      1.0  0.36924  0.15494  0.63160  1.0000
  C   C1957     1.0  0.36005  0.16108  0.64097  1.0000
  C   C1958     1.0  0.36457  0.15855  0.62019  1.0000
  C   C1959     1.0  0.37022  0.14150  0.63620  1.0000
  C   C1960     1.0  0.38108  0.15874  0.62900  1.0000
  C   C1961     1.0  0.38144  0.17137  0.62626  1.0000
  C   C1962     1.0  0.39257  0.15022  0.62837  1.0000
  C   C1963     1.0  0.39254  0.17519  0.62331  1.0000
  C   C1964     1.0  0.40361  0.15416  0.62553  1.0000
  C   C1965     1.0  0.40361  0.16661  0.62293  1.0000
  H   H2329     1.0  0.35136  0.15769  0.64373  1.0000
  H   H2330     1.0  0.36371  0.15947  0.64932  1.0000
  H   H2331     1.0  0.35731  0.17115  0.63763  1.0000
  H   H2332     1.0  0.36268  0.16865  0.61682  1.0000
  H   H2333     1.0  0.35589  0.15549  0.62147  1.0000
  H   H2334     1.0  0.37141  0.15449  0.61277  1.0000
  H   H2335     1.0  0.36112  0.13895  0.63861  1.0000
  H   H2336     1.0  0.37594  0.13625  0.62917  1.0000
  H   H2337     1.0  0.37422  0.13814  0.64450  1.0000
  H   H2338     1.0  0.37320  0.17847  0.62579  1.0000
  H   H2339     1.0  0.39334  0.14048  0.62973  1.0000
  H   H2340     1.0  0.39257  0.18491  0.62083  1.0000
  H   H2341     1.0  0.41228  0.14752  0.62498  1.0000
  H   H2342     1.0  0.41222  0.16962  0.62034  1.0000
  S   S536      1.0  0.30357  0.17512  0.60730  1.0000
  H   H2343     1.0  0.40392  0.34328  0.59726  1.0000
  N   N128      1.0  0.42949  0.41411  0.61522  1.0000
  C   C1966     1.0  0.43876  0.41524  0.62129  1.0000
  C   C1967     1.0  0.43458  0.41505  0.60194  1.0000
  C   C1968     1.0  0.38651  0.24646  0.61261  1.0000
  H   H2344     1.0  0.38006  0.23435  0.62982  1.0000
  H   H2345     1.0  0.38504  0.32709  0.77153  1.0000
  H   H2346     1.0  0.48545  0.10712  0.64551  1.0000
  C   C1969     1.0  0.36949  0.13019  0.58207  1.0000
  H   H2347     1.0  0.44199  0.42396  0.61706  1.0000
  H   H2348     1.0  0.44696  0.40758  0.62086  1.0000
  H   H2349     1.0  0.42013  0.43308  0.61400  1.0000
  C   C1970     1.0  0.35829  0.26422  0.59437  1.0000
  C   C1971     1.0  0.36393  0.48212  0.61636  1.0000
  C   C1972     1.0  0.42826  0.42306  0.59289  1.0000
  H   H2350     1.0  0.27491  0.06760  0.60690  1.0000
  C   C1973     1.0  0.33099  0.46804  0.63875  1.0000
  C   C1974     1.0  0.34374  0.18266  0.60556  1.0000
  H   H2351     1.0  0.32600  0.44938  0.65732  1.0000
  C   C1975     1.0  0.31556  0.21165  0.58879  1.0000
  C   C1976     1.0  0.26061  0.06752  0.59247  1.0000
  C   C1977     1.0  0.30212  0.19959  0.60429  1.0000
  H   H2352     1.0  0.49346  0.15252  0.61108  1.0000
  H   H2353     1.0  0.36238  0.13319  0.61571  1.0000
  C   C1978     1.0  0.41834  0.42371  0.61807  1.0000
  H   H2354     1.0  0.27587  0.05223  0.60603  1.0000
  C   C1979     1.0  0.40258  0.19564  0.58289  1.0000
  H   H2355     1.0  0.34940  0.40004  0.74167  1.0000
  C   C1980     1.0  0.49101  0.08465  0.63987  1.0000
  H   H2356     1.0  0.38372  0.24319  0.58501  1.0000
  H   H2357     1.0  0.48132  0.36265  0.58948  1.0000
  H   H2358     1.0  0.33759  0.35134  0.76814  1.0000
  C   C1981     1.0  0.44659  0.33795  0.67705  1.0000
  H   H2359     1.0  0.35174  0.45161  0.63011  1.0000
  H   H2360     1.0  0.33416  0.46054  0.61845  1.0000
  H   H2361     1.0  0.24852  0.15149  0.58666  1.0000
  S   S537      1.0  0.34584  0.13063  0.58176  1.0000
  C   C1982     1.0  0.25478  0.04230  0.61665  1.0000
  C   C1983     1.0  0.39473  0.34780  0.78109  1.0000
  H   H2362     1.0  0.31913  0.45846  0.62662  1.0000
  N   N129      1.0  0.40769  0.40472  0.68503  1.0000
  C   C1984     1.0  0.41603  0.41308  0.68331  1.0000
  C   C1985     1.0  0.41031  0.39439  0.69541  1.0000
  C   C1986     1.0  0.41079  0.39988  0.67376  1.0000
  C   C1987     1.0  0.39449  0.41069  0.68743  1.0000
  C   C1988     1.0  0.39021  0.42335  0.68775  1.0000
  C   C1989     1.0  0.38545  0.40384  0.68926  1.0000
  C   C1990     1.0  0.37765  0.42869  0.68969  1.0000
  C   C1991     1.0  0.37294  0.40926  0.69115  1.0000
  C   C1992     1.0  0.36904  0.42167  0.69135  1.0000
  H   H2363     1.0  0.41439  0.41686  0.69158  1.0000
  H   H2364     1.0  0.42586  0.40821  0.68162  1.0000
  H   H2365     1.0  0.41498  0.42078  0.67524  1.0000
  H   H2366     1.0  0.40776  0.39755  0.70416  1.0000
  H   H2367     1.0  0.42020  0.38972  0.69398  1.0000
  H   H2368     1.0  0.40523  0.38710  0.69672  1.0000
  H   H2369     1.0  0.40637  0.39211  0.67500  1.0000
  H   H2370     1.0  0.40781  0.40708  0.66597  1.0000
  H   H2371     1.0  0.42084  0.39630  0.67092  1.0000
  H   H2372     1.0  0.39636  0.42934  0.68644  1.0000
  H   H2373     1.0  0.38800  0.39421  0.68908  1.0000
  H   H2374     1.0  0.37457  0.43837  0.68983  1.0000
  H   H2375     1.0  0.35933  0.42585  0.69274  1.0000
  H   H2376     1.0  0.38517  0.38299  0.63767  1.0000
  H   H2377     1.0  0.35290  0.26853  0.61225  1.0000
  H   H2378     1.0  0.29447  0.19910  0.61207  1.0000
  H   H2379     1.0  0.47626  0.33704  0.66173  1.0000
  C   C1993     1.0  0.42942  0.31700  0.67131  1.0000
  H   H2380     1.0  0.46024  0.34761  0.67664  1.0000
  C   C1994     1.0  0.42232  0.33826  0.67214  1.0000
  H   H2381     1.0  0.25870  0.12122  0.61547  1.0000
  H   H2382     1.0  0.38283  0.26629  0.63092  1.0000
  H   H2383     1.0  0.47156  0.32185  0.65332  1.0000
  H   H2384     1.0  0.41978  0.35958  0.64201  1.0000
  H   H2385     1.0  0.35159  0.36864  0.62419  1.0000
  N   N130      1.0  0.37086  0.36491  0.64784  1.0000
  C   C1995     1.0  0.36833  0.35589  0.64239  1.0000
  C   C1996     1.0  0.36544  0.36253  0.66112  1.0000
  C   C1997     1.0  0.36447  0.37726  0.64226  1.0000
  C   C1998     1.0  0.39183  0.35215  0.64988  1.0000
  H   H2386     1.0  0.37257  0.35712  0.63246  1.0000
  H   H2387     1.0  0.37182  0.34625  0.64675  1.0000
  H   H2388     1.0  0.36927  0.35315  0.66585  1.0000
  H   H2389     1.0  0.35531  0.36353  0.66301  1.0000
  H   H2390     1.0  0.36733  0.36900  0.66556  1.0000
  H   H2391     1.0  0.35453  0.37777  0.64311  1.0000
  H   H2392     1.0  0.36493  0.38446  0.64669  1.0000
  H   H2393     1.0  0.38799  0.34413  0.65435  1.0000
  H   H2394     1.0  0.42542  0.34202  0.66221  1.0000
  H   H2395     1.0  0.48503  0.14432  0.58522  1.0000
  H   H2396     1.0  0.34536  0.33973  0.58259  1.0000
  C   C1999     1.0  0.41917  0.39736  0.59064  1.0000
  H   H2397     1.0  0.40871  0.24216  0.61765  1.0000
  N   N131      1.0  0.33910  0.39302  0.75959  1.0000
  C   C2000     1.0  0.42990  0.38862  0.59265  1.0000
  C   C2001     1.0  0.36441  0.13234  0.60631  1.0000
  H   H2398     1.0  0.48901  0.07717  0.63691  1.0000
  H   H2399     1.0  0.37699  0.16821  0.58373  1.0000
  H   H2400     1.0  0.36847  0.37974  0.63232  1.0000
  C   C2002     1.0  0.39016  0.37378  0.64064  1.0000
  H   H2401     1.0  0.42153  0.34548  0.67708  1.0000
  C   C2003     1.0  0.33560  0.38161  0.76756  1.0000
  S   S538      1.0  0.36819  0.20135  0.60345  1.0000
  H   H2402     1.0  0.34787  0.44684  0.64658  1.0000
  C   C2004     1.0  0.40093  0.24636  0.62434  1.0000
  C   C2005     1.0  0.33510  0.35982  0.77137  1.0000
  H   H2403     1.0  0.43890  0.31678  0.60370  1.0000
  H   H2404     1.0  0.41002  0.33662  0.61080  1.0000
  C   C2006     1.0  0.46728  0.33476  0.66484  1.0000
  Fe  Fe268     1.0  0.40623  0.13586  0.59304  1.0000
  H   H2405     1.0  0.39793  0.23875  0.63176  1.0000
  H   H2406     1.0  0.32841  0.16025  0.60966  1.0000
  C   C2007     1.0  0.30829  0.18905  0.59972  1.0000
  C   C2008     1.0  0.38265  0.19424  0.59621  1.0000
  N   N132      1.0  0.43098  0.32685  0.67635  1.0000
  C   C2009     1.0  0.34669  0.39139  0.74736  1.0000
  H   H2407     1.0  0.43426  0.39434  0.61937  1.0000
  H   H2408     1.0  0.26357  0.03951  0.61923  1.0000
  H   H2409     1.0  0.36620  0.30942  0.59083  1.0000
  H   H2410     1.0  0.39631  0.33672  0.75155  1.0000
  C   C2010     1.0  0.32906  0.45491  0.62654  1.0000
  H   H2411     1.0  0.46901  0.10007  0.64380  1.0000
  H   H2412     1.0  0.36627  0.40378  0.69233  1.0000
  H   H2413     1.0  0.47665  0.15661  0.59971  1.0000
  H   H2414     1.0  0.43984  0.34298  0.68338  1.0000
  H   H2415     1.0  0.43581  0.30817  0.67402  1.0000
  H   H2416     1.0  0.45138  0.31703  0.65944  1.0000
  C   C2011     1.0  0.27535  0.11864  0.60170  1.0000
  N   N133      1.0  0.39083  0.25406  0.61829  1.0000
  C   C2012     1.0  0.40187  0.34895  0.75896  1.0000
  C   C2013     1.0  0.39712  0.35811  0.61359  1.0000
  C   C2014     1.0  0.35341  0.48457  0.61168  1.0000
  Fe  Fe269     1.0  0.36097  0.21589  0.58845  1.0000
  H   H2417     1.0  0.34612  0.31092  0.60496  1.0000
  H   H2418     1.0  0.32219  0.40502  0.76643  1.0000
  C   C2015     1.0  0.44598  0.40742  0.59773  1.0000
  H   H2419     1.0  0.47652  0.17258  0.59604  1.0000
  C   C2016     1.0  0.35738  0.13099  0.58891  1.0000
  C   C2017     1.0  0.36246  0.31858  0.58550  1.0000
  H   H2420     1.0  0.47003  0.09229  0.63216  1.0000
  H   H2421     1.0  0.41798  0.36580  0.61137  1.0000
  C   C2018     1.0  0.36715  0.38118  0.59638  1.0000
  C   C2019     1.0  0.41885  0.35642  0.61005  1.0000
  H   H2422     1.0  0.31191  0.47390  0.63680  1.0000
  H   H2423     1.0  0.37124  0.48385  0.58874  1.0000
  C   C2020     1.0  0.28103  0.11382  0.59125  1.0000
  C   C2021     1.0  0.27465  0.10792  0.58662  1.0000
  H   H2424     1.0  0.47694  0.09862  0.61182  1.0000
  N   N134      1.0  0.40887  0.35609  0.60448  1.0000
  C   C2022     1.0  0.37664  0.22941  0.61494  1.0000
  H   H2425     1.0  0.40656  0.35331  0.75009  1.0000
  C   C2023     1.0  0.32784  0.40248  0.75772  1.0000
  H   H2426     1.0  0.40709  0.38013  0.63526  1.0000
  H   H2427     1.0  0.41291  0.33671  0.67365  1.0000
  C   C2024     1.0  0.40447  0.35075  0.64831  1.0000
  H   H2428     1.0  0.43419  0.31503  0.69346  1.0000
  H   H2429     1.0  0.45946  0.40187  0.58229  1.0000
  H   H2430     1.0  0.33006  0.41110  0.75146  1.0000
  H   H2431     1.0  0.48789  0.09754  0.59115  1.0000
  H   H2432     1.0  0.35830  0.35672  0.64347  1.0000
  C   C2025     1.0  0.39556  0.26452  0.60941  1.0000
  C   C2026     1.0  0.34353  0.16405  0.59466  1.0000
  C   C2027     1.0  0.49325  0.09650  0.61912  1.0000
  C   C2028     1.0  0.25076  0.07489  0.61104  1.0000
  C   C2029     1.0  0.38751  0.24856  0.59978  1.0000
  H   H2433     1.0  0.34373  0.19004  0.60966  1.0000
  C   C2030     1.0  0.35828  0.27068  0.60307  1.0000
  H   H2434     1.0  0.31416  0.45376  0.64877  1.0000
  C   C2031     1.0  0.49304  0.09677  0.59797  1.0000
  S   S539      1.0  0.29140  0.15649  0.59179  1.0000
  C   C2032     1.0  0.45293  0.32343  0.66381  1.0000
  H   H2435     1.0  0.35935  0.35003  0.61537  1.0000
  H   H2436     1.0  0.33730  0.30018  0.59732  1.0000
  C   C2033     1.0  0.37904  0.13032  0.58731  1.0000
  S   S540      1.0  0.38794  0.31156  0.59896  1.0000
  C   C2034     1.0  0.38107  0.23655  0.62002  1.0000
  S   S541      1.0  0.37328  0.34655  0.59138  1.0000
  H   H2437     1.0  0.37850  0.17630  0.60164  1.0000
  C   C2035     1.0  0.38057  0.25917  0.62760  1.0000
  H   H2438     1.0  0.49192  0.36752  0.59457  1.0000
  H   H2439     1.0  0.34578  0.43815  0.63706  1.0000
  H   H2440     1.0  0.41496  0.42298  0.62811  1.0000
  C   C2036     1.0  0.37759  0.23184  0.60237  1.0000
  S   S542      1.0  0.34671  0.23306  0.59042  1.0000
  C   C2037     1.0  0.48106  0.16385  0.59292  1.0000
  N   N135      1.0  0.33234  0.45517  0.63795  1.0000
  H   H2441     1.0  0.24726  0.11138  0.60690  1.0000
  H   H2442     1.0  0.42010  0.34063  0.59664  1.0000
  C   C2038     1.0  0.34498  0.44767  0.63796  1.0000
  H   H2443     1.0  0.30040  0.21902  0.60206  1.0000
  H   H2444     1.0  0.47880  0.16494  0.58393  1.0000
  C   C2039     1.0  0.34131  0.30090  0.58770  1.0000
  H   H2445     1.0  0.32809  0.17722  0.61884  1.0000
  Fe  Fe270     1.0  0.38942  0.41594  0.59264  1.0000
  C   C2040     1.0  0.33507  0.17539  0.61081  1.0000
  C   C2041     1.0  0.35119  0.47572  0.60681  1.0000
  C   C2042     1.0  0.33521  0.16588  0.60556  1.0000
  H   H2446     1.0  0.41055  0.42273  0.61477  1.0000
  H   H2447     1.0  0.41200  0.39960  0.59830  1.0000
  H   H2448     1.0  0.26828  0.15416  0.58506  1.0000
  H   H2449     1.0  0.41928  0.42879  0.59515  1.0000
  S   S543      1.0  0.35600  0.45319  0.60127  1.0000
  H   H2450     1.0  0.39535  0.36700  0.61636  1.0000
  C   C2043     1.0  0.38314  0.24127  0.59480  1.0000
  H   H2451     1.0  0.35293  0.25725  0.59688  1.0000
  C   C2044     1.0  0.38524  0.18168  0.59657  1.0000
  H   H2452     1.0  0.38837  0.27080  0.60464  1.0000
  Fe  Fe271     1.0  0.43438  0.13169  0.58945  1.0000
  C   C2045     1.0  0.39611  0.33958  0.75976  1.0000
  N   N136      1.0  0.34927  0.31994  0.58586  1.0000
  H   H2453     1.0  0.40370  0.26136  0.60245  1.0000
  H   H2454     1.0  0.33553  0.28457  0.58807  1.0000
  C   C2046     1.0  0.26239  0.10709  0.59212  1.0000
  C   C2047     1.0  0.34627  0.39767  0.76548  1.0000
  C   C2048     1.0  0.40514  0.18308  0.58326  1.0000
  H   H2455     1.0  0.38831  0.12971  0.58189  1.0000
  H   H2456     1.0  0.35929  0.18607  0.59160  1.0000
  H   H2457     1.0  0.42812  0.35377  0.60430  1.0000
  C   C2049     1.0  0.31822  0.18982  0.58966  1.0000
  H   H2458     1.0  0.45100  0.40063  0.60404  1.0000
  N   N137      1.0  0.48704  0.09676  0.63202  1.0000
  S   S544      1.0  0.25482  0.09952  0.58586  1.0000
  H   H2459     1.0  0.36928  0.38986  0.59106  1.0000
  H   H2460     1.0  0.29042  0.11445  0.58686  1.0000
  C   C2050     1.0  0.40119  0.35309  0.76941  1.0000
  H   H2461     1.0  0.28803  0.21431  0.58208  1.0000
  C   C2051     1.0  0.35207  0.17174  0.58872  1.0000
  H   H2462     1.0  0.28103  0.19494  0.58635  1.0000
  H   H2463     1.0  0.37176  0.15444  0.58651  1.0000
  H   H2464     1.0  0.35432  0.39050  0.76790  1.0000
  C   C2052     1.0  0.34019  0.29181  0.58249  1.0000
  S   S545      1.0  0.45305  0.37519  0.58496  1.0000
  C   C2053     1.0  0.25055  0.05432  0.61004  1.0000
  C   C2054     1.0  0.34254  0.31958  0.59876  1.0000
  H   H2465     1.0  0.34985  0.40575  0.75942  1.0000
  H   H2466     1.0  0.39125  0.37749  0.59800  1.0000
  C   C2055     1.0  0.43936  0.38582  0.58275  1.0000
  H   H2467     1.0  0.34166  0.38850  0.74208  1.0000
  C   C2056     1.0  0.33892  0.48462  0.64135  1.0000
  H   H2468     1.0  0.25466  0.13562  0.58676  1.0000
  C   C2057     1.0  0.34061  0.47244  0.64048  1.0000
  H   H2469     1.0  0.40551  0.36067  0.76800  1.0000
  H   H2470     1.0  0.36398  0.32568  0.58942  1.0000
  H   H2471     1.0  0.38944  0.21091  0.58912  1.0000
  H   H2472     1.0  0.34291  0.15670  0.59097  1.0000
  N   N138      1.0  0.49455  0.16092  0.59207  1.0000
  H   H2473     1.0  0.34358  0.32719  0.60228  1.0000
  H   H2474     1.0  0.24768  0.07242  0.62116  1.0000
  C   C2058     1.0  0.45093  0.40806  0.58526  1.0000
  C   C2059     1.0  0.32207  0.20102  0.58444  1.0000
  H   H2475     1.0  0.32302  0.18177  0.58603  1.0000
  C   C2060     1.0  0.41935  0.36414  0.58293  1.0000
  H   H2476     1.0  0.34964  0.46678  0.64093  1.0000
  H   H2477     1.0  0.42735  0.35681  0.58384  1.0000
  C   C2061     1.0  0.38970  0.33423  0.77103  1.0000
  H   H2478     1.0  0.26672  0.07423  0.58901  1.0000
  C   C2062     1.0  0.31996  0.44276  0.79397  1.0000
  H   H2479     1.0  0.37268  0.41547  0.84240  1.0000
  Fe  Fe272     1.0  0.31466  0.47590  0.85492  1.0000
  S   S546      1.0  0.33148  0.46160  0.85022  1.0000
  S   S547      1.0  0.29677  0.46925  0.86304  1.0000
  C   C2063     1.0  0.38185  0.43573  0.82744  1.0000
  Fe  Fe273     1.0  0.33696  0.47616  0.83403  1.0000
  S   S548      1.0  0.34462  0.47290  0.81492  1.0000
  Fe  Fe274     1.0  0.34026  0.46992  0.85998  1.0000
  S   S549      1.0  0.35296  0.45769  0.87198  1.0000
  Fe  Fe275     1.0  0.34312  0.40068  0.79747  1.0000
  H   H2480     1.0  0.32582  0.35186  0.78929  1.0000
  S   S550      1.0  0.26144  0.39305  0.86641  1.0000
  Fe  Fe276     1.0  0.26741  0.42496  0.84707  1.0000
  S   S551      1.0  0.28217  0.41007  0.85413  1.0000
  S   S552      1.0  0.27364  0.44248  0.83629  1.0000
  Fe  Fe277     1.0  0.27423  0.39758  0.84830  1.0000
  S   S553      1.0  0.28733  0.38315  0.83891  1.0000
  Fe  Fe278     1.0  0.26802  0.40719  0.87139  1.0000
  S   S554      1.0  0.27357  0.40689  0.88852  1.0000
  S   S555      1.0  0.26047  0.41266  0.83957  1.0000
  H   H2481     1.0  0.39736  0.34657  0.95769  1.0000
  Fe  Fe279     1.0  0.33831  0.39705  0.90566  1.0000
  S   S556      1.0  0.35849  0.38977  0.90464  1.0000
  S   S557      1.0  0.32797  0.41577  0.90861  1.0000
  Fe  Fe280     1.0  0.33417  0.37368  0.90190  1.0000
  S   S558      1.0  0.35402  0.36426  0.90059  1.0000
  S   S559      1.0  0.31999  0.36545  0.89902  1.0000
  Fe  Fe281     1.0  0.35288  0.37247  0.91653  1.0000
  S   S560      1.0  0.35761  0.36144  0.93464  1.0000
  Fe  Fe282     1.0  0.35771  0.38236  0.88888  1.0000
  S   S561      1.0  0.37004  0.38652  0.87027  1.0000
  S   S562      1.0  0.33262  0.38042  0.91860  1.0000
  S   S563      1.0  0.33795  0.39108  0.88909  1.0000
  H   H2482     1.0  0.32508  0.38842  0.95739  1.0000
  S   S564      1.0  0.35266  0.38136  0.79602  1.0000
  H   H2483     1.0  0.33383  0.38495  0.84110  1.0000
  C   C2064     1.0  0.36255  0.43382  0.80981  1.0000
  Fe  Fe283     1.0  0.35978  0.38127  0.81225  1.0000
  S   S565      1.0  0.36078  0.36612  0.82890  1.0000
  S   S566      1.0  0.34851  0.39973  0.81480  1.0000
  C   C2065     1.0  0.36769  0.38043  0.85896  1.0000
  C   C2066     1.0  0.36282  0.36992  0.86199  1.0000
  C   C2067     1.0  0.36108  0.36528  0.85272  1.0000
  C   C2068     1.0  0.36377  0.37139  0.84045  1.0000
  C   C2069     1.0  0.36855  0.38194  0.83747  1.0000
  C   C2070     1.0  0.37073  0.38628  0.84666  1.0000
  H   H2484     1.0  0.36059  0.36525  0.87146  1.0000
  H   H2485     1.0  0.35747  0.35705  0.85510  1.0000
  H   H2486     1.0  0.37079  0.38668  0.82805  1.0000
  H   H2487     1.0  0.37474  0.39423  0.84420  1.0000
  C   C2071     1.0  0.29726  0.39019  0.82637  1.0000
  C   C2072     1.0  0.29367  0.40254  0.82090  1.0000
  C   C2073     1.0  0.30173  0.40824  0.81106  1.0000
  C   C2074     1.0  0.31361  0.40177  0.80708  1.0000
  C   C2075     1.0  0.31729  0.38946  0.81265  1.0000
  C   C2076     1.0  0.30900  0.38358  0.82208  1.0000
  H   H2488     1.0  0.28462  0.40768  0.82412  1.0000
  H   H2489     1.0  0.29880  0.41772  0.80671  1.0000
  C   C2077     1.0  0.35729  0.45569  0.80147  1.0000
  H   H2490     1.0  0.31174  0.37399  0.82621  1.0000
  C   C2078     1.0  0.28598  0.39497  0.89198  1.0000
  C   C2079     1.0  0.28864  0.38417  0.88772  1.0000
  C   C2080     1.0  0.29879  0.37485  0.89039  1.0000
  C   C2081     1.0  0.30657  0.37654  0.89689  1.0000
  C   C2082     1.0  0.30389  0.38736  0.90113  1.0000
  C   C2083     1.0  0.29346  0.39644  0.89890  1.0000
  H   H2491     1.0  0.28279  0.38292  0.88251  1.0000
  H   H2492     1.0  0.30072  0.36644  0.88725  1.0000
  H   H2493     1.0  0.30978  0.38867  0.90626  1.0000
  H   H2494     1.0  0.29128  0.40469  0.90240  1.0000
  C   C2084     1.0  0.29050  0.46186  0.85541  1.0000
  C   C2085     1.0  0.29409  0.46272  0.84278  1.0000
  C   C2086     1.0  0.28872  0.45689  0.83703  1.0000
  C   C2087     1.0  0.28011  0.44976  0.84386  1.0000
  C   C2088     1.0  0.27668  0.44871  0.85654  1.0000
  C   C2089     1.0  0.28173  0.45488  0.86225  1.0000
  H   H2495     1.0  0.30074  0.46815  0.83742  1.0000
  H   H2496     1.0  0.29118  0.45797  0.82725  1.0000
  H   H2497     1.0  0.26999  0.44332  0.86193  1.0000
  H   H2498     1.0  0.27886  0.45418  0.87203  1.0000
  C   C2090     1.0  0.37534  0.43927  0.83865  1.0000
  C   C2091     1.0  0.35004  0.44771  0.82297  1.0000
  C   C2092     1.0  0.35576  0.43577  0.82131  1.0000
  C   C2093     1.0  0.37701  0.41732  0.84898  1.0000
  H   H2499     1.0  0.33457  0.41799  0.94112  1.0000
  H   H2500     1.0  0.34520  0.44917  0.83193  1.0000
  H   H2501     1.0  0.35548  0.42810  0.82903  1.0000
  C   C2094     1.0  0.34597  0.44616  0.88232  1.0000
  C   C2095     1.0  0.35326  0.43516  0.88735  1.0000
  C   C2096     1.0  0.34777  0.42568  0.89523  1.0000
  C   C2097     1.0  0.33498  0.42740  0.89851  1.0000
  C   C2098     1.0  0.32769  0.43849  0.89367  1.0000
  C   C2099     1.0  0.33318  0.44776  0.88536  1.0000
  H   H2502     1.0  0.36314  0.43396  0.88515  1.0000
  H   H2503     1.0  0.35345  0.41719  0.89904  1.0000
  H   H2504     1.0  0.31778  0.43987  0.89623  1.0000
  H   H2505     1.0  0.32750  0.45624  0.88152  1.0000
  C   C2100     1.0  0.37993  0.36882  0.95804  1.0000
  C   C2101     1.0  0.37125  0.36148  0.96320  1.0000
  C   C2102     1.0  0.36443  0.35946  0.95589  1.0000
  C   C2103     1.0  0.36608  0.36487  0.94338  1.0000
  C   C2104     1.0  0.37461  0.37240  0.93821  1.0000
  C   C2105     1.0  0.38155  0.37431  0.94552  1.0000
  H   H2506     1.0  0.36982  0.35727  0.97280  1.0000
  H   H2507     1.0  0.35786  0.35363  0.95996  1.0000
  H   H2508     1.0  0.37607  0.37650  0.92854  1.0000
  H   H2509     1.0  0.38829  0.37997  0.94145  1.0000
  C   C2106     1.0  0.40436  0.33784  0.95749  1.0000
  H   H2510     1.0  0.38088  0.46366  0.80803  1.0000
  H   H2511     1.0  0.37656  0.36458  0.79067  1.0000
  C   C2107     1.0  0.36199  0.39429  0.96991  1.0000
  N   N139      1.0  0.33870  0.39815  0.94510  1.0000
  H   H2512     1.0  0.37936  0.36015  0.80592  1.0000
  H   H2513     1.0  0.37491  0.34978  0.79999  1.0000
  C   C2108     1.0  0.30121  0.46344  0.80277  1.0000
  C   C2109     1.0  0.35436  0.40498  0.95160  1.0000
  H   H2514     1.0  0.35336  0.38896  0.93275  1.0000
  C   C2110     1.0  0.32920  0.43950  0.81097  1.0000
  H   H2515     1.0  0.32375  0.41142  0.93815  1.0000
  H   H2516     1.0  0.39327  0.33427  0.80465  1.0000
  C   C2111     1.0  0.34647  0.39775  0.93273  1.0000
  C   C2112     1.0  0.34119  0.40958  0.84490  1.0000
  H   H2517     1.0  0.35524  0.44150  0.85725  1.0000
  H   H2518     1.0  0.41037  0.35887  0.78671  1.0000
  H   H2519     1.0  0.32798  0.43987  0.82070  1.0000
  H   H2520     1.0  0.29654  0.45864  0.79930  1.0000
  H   H2521     1.0  0.32554  0.46057  0.81550  1.0000
  C   C2113     1.0  0.34651  0.39673  0.95381  1.0000
  H   H2522     1.0  0.35805  0.46340  0.79379  1.0000
  S   S567      1.0  0.25350  0.42288  0.86473  1.0000
  H   H2523     1.0  0.33521  0.41601  0.87279  1.0000
  H   H2524     1.0  0.34113  0.38047  0.96700  1.0000
  S   S568      1.0  0.37657  0.38806  0.80109  1.0000
  H   H2525     1.0  0.31021  0.44294  0.86047  1.0000
  C   C2114     1.0  0.32988  0.41014  0.94454  1.0000
  C   C2115     1.0  0.38057  0.35681  0.79745  1.0000
  C   C2116     1.0  0.31089  0.43769  0.86989  1.0000
  C   C2117     1.0  0.31967  0.41903  0.85063  1.0000
  H   H2526     1.0  0.37739  0.42494  0.86798  1.0000
  H   H2527     1.0  0.35198  0.40661  0.85823  1.0000
  H   H2528     1.0  0.40834  0.33734  0.79791  1.0000
  C   C2118     1.0  0.32107  0.41940  0.86231  1.0000
  N   N140      1.0  0.31070  0.42466  0.87140  1.0000
  H   H2529     1.0  0.32010  0.37119  0.79669  1.0000
  C   C2119     1.0  0.31210  0.45735  0.80715  1.0000
  H   H2530     1.0  0.32288  0.38019  0.87441  1.0000
  H   H2531     1.0  0.31312  0.40811  0.88527  1.0000
  H   H2532     1.0  0.33063  0.38941  0.86119  1.0000
  H   H2533     1.0  0.41328  0.34058  0.95294  1.0000
  H   H2534     1.0  0.32583  0.38972  0.94161  1.0000
  H   H2535     1.0  0.33314  0.42974  0.81032  1.0000
  H   H2536     1.0  0.31097  0.42254  0.84788  1.0000
  S   S569      1.0  0.35845  0.40938  0.78526  1.0000
  N   N141      1.0  0.31746  0.44429  0.80673  1.0000
  H   H2537     1.0  0.31926  0.42011  0.88697  1.0000
  C   C2120     1.0  0.29856  0.42391  0.86994  1.0000
  H   H2538     1.0  0.32515  0.43336  0.79300  1.0000
  H   H2539     1.0  0.29827  0.41433  0.87017  1.0000
  C   C2121     1.0  0.37871  0.43191  0.85928  1.0000
  H   H2540     1.0  0.36829  0.40979  0.95743  1.0000
  C   C2122     1.0  0.34659  0.38732  0.96460  1.0000
  H   H2541     1.0  0.34086  0.39858  0.92606  1.0000
  C   C2123     1.0  0.31737  0.46436  0.81184  1.0000
  H   H2542     1.0  0.38511  0.42627  0.82666  1.0000
  N   N142      1.0  0.40454  0.33023  0.97002  1.0000
  H   H2543     1.0  0.32831  0.41379  0.83334  1.0000
  C   C2124     1.0  0.31213  0.47670  0.81197  1.0000
  C   C2125     1.0  0.40037  0.36190  0.79036  1.0000
  C   C2126     1.0  0.31170  0.41820  0.88412  1.0000
  C   C2127     1.0  0.38221  0.33016  0.97121  1.0000
  C   C2128     1.0  0.30868  0.43664  0.81461  1.0000
  H   H2544     1.0  0.30333  0.42118  0.89096  1.0000
  H   H2545     1.0  0.31952  0.43876  0.87157  1.0000
  C   C2129     1.0  0.29596  0.47576  0.80308  1.0000
  H   H2546     1.0  0.35146  0.40535  0.92896  1.0000
  H   H2547     1.0  0.30311  0.44227  0.87633  1.0000
  C   C2130     1.0  0.33316  0.41531  0.86452  1.0000
  C   C2131     1.0  0.36314  0.44377  0.79984  1.0000
  C   C2132     1.0  0.36206  0.40366  0.95949  1.0000
  H   H2548     1.0  0.38846  0.44155  0.80808  1.0000
  H   H2549     1.0  0.32399  0.41097  0.95371  1.0000
  H   H2550     1.0  0.39843  0.34455  0.81003  1.0000
  H   H2551     1.0  0.36648  0.45546  0.84647  1.0000
  H   H2552     1.0  0.29091  0.42699  0.87740  1.0000
  H   H2553     1.0  0.33743  0.37375  0.86562  1.0000
  H   H2554     1.0  0.32555  0.44928  0.78762  1.0000
  H   H2555     1.0  0.29608  0.43000  0.86142  1.0000
  H   H2556     1.0  0.30641  0.43774  0.82424  1.0000
  H   H2557     1.0  0.32600  0.38977  0.78336  1.0000
  C   C2133     1.0  0.39864  0.34158  0.80161  1.0000
  H   H2558     1.0  0.33628  0.44476  0.80527  1.0000
  S   S570      1.0  0.37227  0.41952  0.80848  1.0000
  H   H2559     1.0  0.30812  0.33349  0.87625  1.0000
  H   H2560     1.0  0.34888  0.40567  0.83836  1.0000
  S   S571      1.0  0.38925  0.37076  0.96690  1.0000
  H   H2561     1.0  0.31141  0.44420  0.79068  1.0000
  H   H2562     1.0  0.35691  0.42564  0.86407  1.0000
  C   C2134     1.0  0.31105  0.34211  0.87237  1.0000
  N   N143      1.0  0.39367  0.35200  0.79236  1.0000
  H   H2563     1.0  0.35432  0.43128  0.84873  1.0000
  H   H2564     1.0  0.25150  0.36924  0.87838  1.0000
  Fe  Fe284     1.0  0.36482  0.40666  0.80255  1.0000
  H   H2565     1.0  0.29983  0.43909  0.81160  1.0000
  H   H2566     1.0  0.38717  0.41491  0.84587  1.0000
  N   N144      1.0  0.37267  0.43028  0.85028  1.0000
  H   H2567     1.0  0.31247  0.42673  0.81458  1.0000
  H   H2568     1.0  0.35476  0.41240  0.94364  1.0000
  H   H2569     1.0  0.38217  0.33581  0.96215  1.0000
  H   H2570     1.0  0.36858  0.44235  0.79098  1.0000
  H   H2571     1.0  0.33807  0.36858  0.84591  1.0000
  H   H2572     1.0  0.33771  0.37915  0.94849  1.0000
  C   C2135     1.0  0.32960  0.41412  0.84212  1.0000
  H   H2573     1.0  0.38876  0.43110  0.85562  1.0000
  H   H2574     1.0  0.37495  0.44103  0.86176  1.0000
  H   H2575     1.0  0.30007  0.34794  0.85875  1.0000
  C   C2136     1.0  0.35922  0.43224  0.85528  1.0000
  H   H2576     1.0  0.30654  0.36730  0.84994  1.0000
  C   C2137     1.0  0.34295  0.41017  0.85607  1.0000
  C   C2138     1.0  0.37138  0.45205  0.83831  1.0000
  C   C2139     1.0  0.32850  0.36008  0.78328  1.0000
  H   H2577     1.0  0.32973  0.35782  0.87637  1.0000
  S   S572      1.0  0.32385  0.40924  0.79531  1.0000
  C   C2140     1.0  0.35101  0.45773  0.81309  1.0000
  H   H2578     1.0  0.39942  0.36482  0.79900  1.0000
  H   H2579     1.0  0.31327  0.39616  0.85295  1.0000
  Fe  Fe285     1.0  0.36857  0.38990  0.78496  1.0000
  C   C2141     1.0  0.33153  0.38842  0.94837  1.0000
  H   H2580     1.0  0.32298  0.33876  0.88478  1.0000
  H   H2581     1.0  0.41625  0.34062  0.97259  1.0000
  H   H2582     1.0  0.30641  0.38646  0.84882  1.0000
  H   H2583     1.0  0.30396  0.38681  0.86461  1.0000
  H   H2584     1.0  0.37471  0.41078  0.85783  1.0000
  C   C2142     1.0  0.30650  0.35025  0.86257  1.0000
  H   H2585     1.0  0.32644  0.38440  0.80958  1.0000
  H   H2586     1.0  0.32540  0.37527  0.83864  1.0000
  N   N145      1.0  0.32191  0.37695  0.85735  1.0000
  C   C2143     1.0  0.32847  0.38018  0.86499  1.0000
  C   C2144     1.0  0.33013  0.37649  0.84521  1.0000
  C   C2145     1.0  0.31093  0.38699  0.85588  1.0000
  C   C2146     1.0  0.31829  0.36496  0.86261  1.0000
  C   C2147     1.0  0.32318  0.35620  0.87223  1.0000
  C   C2148     1.0  0.31015  0.36145  0.85767  1.0000
  C   C2149     1.0  0.31943  0.34505  0.87713  1.0000
  H   H2587     1.0  0.41232  0.31308  0.96436  1.0000
  H   H2588     1.0  0.40018  0.34595  0.97799  1.0000
  C   C2150     1.0  0.35417  0.38624  0.97255  1.0000
  C   C2151     1.0  0.37345  0.46071  0.82738  1.0000
  H   H2589     1.0  0.36996  0.47040  0.82724  1.0000
  C   C2152     1.0  0.37965  0.45693  0.81654  1.0000
  C   C2153     1.0  0.38392  0.44449  0.81659  1.0000
  C   C2154     1.0  0.40748  0.33755  0.97709  1.0000
  H   H2590     1.0  0.38381  0.33387  0.79005  1.0000
  H   H2591     1.0  0.40243  0.33284  0.95152  1.0000
  C   C2155     1.0  0.41456  0.31920  0.96897  1.0000
  H   H2592     1.0  0.36825  0.39307  0.97580  1.0000
  C   C2156     1.0  0.30143  0.48238  0.80766  1.0000
  S   S573      1.0  0.32306  0.48317  0.86620  1.0000
  H   H2593     1.0  0.42343  0.32168  0.96364  1.0000
  S   S574      1.0  0.34742  0.48324  0.84333  1.0000
  C   C2157     1.0  0.32532  0.37095  0.78744  1.0000
  H   H2594     1.0  0.28754  0.48018  0.79987  1.0000
  H   H2595     1.0  0.25706  0.37134  0.85596  1.0000
  H   H2596     1.0  0.39669  0.37029  0.78392  1.0000
  H   H2597     1.0  0.31643  0.48186  0.81550  1.0000
  H   H2598     1.0  0.34096  0.47722  0.88562  1.0000
  H   H2599     1.0  0.36311  0.32999  0.97371  1.0000
  H   H2600     1.0  0.35432  0.37880  0.98058  1.0000
  C   C2158     1.0  0.39278  0.32646  0.97642  1.0000
  C   C2159     1.0  0.38902  0.33822  0.78156  1.0000
  H   H2601     1.0  0.35955  0.48494  0.88310  1.0000
  H   H2602     1.0  0.41627  0.31374  0.97804  1.0000
  C   C2160     1.0  0.37112  0.32685  0.97778  1.0000
  C   C2161     1.0  0.24863  0.36845  0.86117  1.0000
  Fe  Fe286     1.0  0.24792  0.40894  0.85811  1.0000
  C   C2162     1.0  0.34011  0.48638  0.88686  1.0000
  C   C2163     1.0  0.24547  0.36727  0.87380  1.0000
  S   S575      1.0  0.34729  0.95308  0.09321  1.0000
  S   S576      1.0  0.31385  0.95516  0.10709  1.0000
  S   S577      1.0  0.36074  0.97591  0.08966  1.0000
  Fe  Fe287     1.0  0.35196  0.96904  0.07856  1.0000
  S   S578      1.0  0.36247  0.96754  0.05948  1.0000
  Fe  Fe288     1.0  0.35429  0.96103  0.10480  1.0000
  S   S579      1.0  0.36566  0.94944  0.11818  1.0000
  S   S580      1.0  0.26139  0.88877  0.11196  1.0000
  Fe  Fe289     1.0  0.26966  0.92096  0.09636  1.0000
  S   S581      1.0  0.28223  0.90550  0.10595  1.0000
  S   S582      1.0  0.27548  0.93920  0.08749  1.0000
  Fe  Fe290     1.0  0.27721  0.89351  0.09684  1.0000
  S   S583      1.0  0.29240  0.87892  0.08961  1.0000
  Fe  Fe291     1.0  0.26553  0.90229  0.12026  1.0000
  S   S584      1.0  0.26860  0.90041  0.13913  1.0000
  S   S585      1.0  0.26597  0.90919  0.08579  1.0000
  Fe  Fe292     1.0  0.34447  0.89625  0.04069  1.0000
  S   S586      1.0  0.35408  0.87656  0.04454  1.0000
  S   S587      1.0  0.32458  0.90174  0.03995  1.0000
  Fe  Fe293     1.0  0.36700  0.90568  0.03837  1.0000
  S   S588      1.0  0.37868  0.88661  0.04171  1.0000
  S   S589      1.0  0.37529  0.92234  0.03384  1.0000
  Fe  Fe294     1.0  0.36916  0.88249  0.02913  1.0000
  S   S590      1.0  0.37946  0.87090  0.01493  1.0000
  Fe  Fe295     1.0  0.36252  0.88248  0.05673  1.0000
  S   S591      1.0  0.36378  0.87097  0.07567  1.0000
  S   S592      1.0  0.35893  0.90198  0.02448  1.0000
  S   S593      1.0  0.35147  0.90178  0.05413  1.0000
  C   C2164     1.0  0.31601  0.92179  0.06533  1.0000
  Fe  Fe296     1.0  0.35561  0.89153  0.13601  1.0000
  S   S594      1.0  0.33531  0.89870  0.13909  1.0000
  S   S595      1.0  0.36656  0.89627  0.11664  1.0000
  Fe  Fe297     1.0  0.33713  0.90363  0.15571  1.0000
  S   S596      1.0  0.32906  0.92207  0.16009  1.0000
  Fe  Fe298     1.0  0.33415  0.88034  0.15137  1.0000
  C   C2165     1.0  0.33942  0.91635  0.08265  1.0000
  S   S597      1.0  0.35765  0.89842  0.15152  1.0000
  S   S598      1.0  0.35457  0.87273  0.14746  1.0000
  C   C2166     1.0  0.37263  0.86671  0.00513  1.0000
  C   C2167     1.0  0.37982  0.85832  0.99788  1.0000
  C   C2168     1.0  0.37474  0.85451  0.99015  1.0000
  C   C2169     1.0  0.36235  0.85899  0.98964  1.0000
  C   C2170     1.0  0.35509  0.86722  0.99706  1.0000
  C   C2171     1.0  0.36022  0.87120  0.00464  1.0000
  H   H2603     1.0  0.38934  0.85463  0.99839  1.0000
  H   H2604     1.0  0.31291  0.94173  0.07695  1.0000
  H   H2605     1.0  0.34548  0.87068  0.99680  1.0000
  H   H2606     1.0  0.35459  0.87775  0.01007  1.0000
  C   C2172     1.0  0.36464  0.87811  0.08694  1.0000
  C   C2173     1.0  0.36438  0.87134  0.09898  1.0000
  C   C2174     1.0  0.36463  0.87690  0.10824  1.0000
  C   C2175     1.0  0.36512  0.88929  0.10551  1.0000
  C   C2176     1.0  0.36525  0.89607  0.09350  1.0000
  C   C2177     1.0  0.36507  0.89050  0.08423  1.0000
  H   H2607     1.0  0.36399  0.86175  0.10116  1.0000
  H   H2608     1.0  0.36457  0.87156  0.11745  1.0000
  H   H2609     1.0  0.36535  0.90570  0.09133  1.0000
  H   H2610     1.0  0.36521  0.89583  0.07501  1.0000
  C   C2178     1.0  0.28343  0.89233  0.14127  1.0000
  C   C2179     1.0  0.29015  0.88329  0.13472  1.0000
  C   C2180     1.0  0.30174  0.87659  0.13688  1.0000
  C   C2181     1.0  0.30697  0.87930  0.14513  1.0000
  C   C2182     1.0  0.37366  0.84810  0.05720  1.0000
  C   C2183     1.0  0.31189  0.89277  0.10685  1.0000
  H   H2611     1.0  0.28622  0.88114  0.12831  1.0000
  H   H2612     1.0  0.30664  0.86926  0.13216  1.0000
  H   H2613     1.0  0.36216  0.84694  0.01774  1.0000
  C   C2184     1.0  0.30118  0.88494  0.07556  1.0000
  C   C2185     1.0  0.31377  0.88002  0.07267  1.0000
  C   C2186     1.0  0.32103  0.88521  0.06177  1.0000
  C   C2187     1.0  0.31560  0.89490  0.05344  1.0000
  C   C2188     1.0  0.30291  0.89949  0.05609  1.0000
  C   C2189     1.0  0.29575  0.89468  0.06726  1.0000
  H   H2614     1.0  0.31796  0.87238  0.07902  1.0000
  H   H2615     1.0  0.33081  0.88166  0.05984  1.0000
  H   H2616     1.0  0.29867  0.90696  0.04964  1.0000
  H   H2617     1.0  0.28601  0.89839  0.06933  1.0000
  C   C2190     1.0  0.30437  0.95061  0.10020  1.0000
  C   C2191     1.0  0.30206  0.93874  0.10461  1.0000
  C   C2192     1.0  0.29340  0.93512  0.10067  1.0000
  C   C2193     1.0  0.28671  0.94342  0.09241  1.0000
  C   C2194     1.0  0.28913  0.95526  0.08778  1.0000
  C   C2195     1.0  0.29791  0.95887  0.09167  1.0000
  H   H2618     1.0  0.30667  0.93239  0.11143  1.0000
  H   H2619     1.0  0.29162  0.92604  0.10440  1.0000
  H   H2620     1.0  0.28401  0.96176  0.08135  1.0000
  H   H2621     1.0  0.29936  0.96814  0.08839  1.0000
  C   C2196     1.0  0.33823  0.93095  0.14860  1.0000
  C   C2197     1.0  0.34610  0.93647  0.15153  1.0000
  C   C2198     1.0  0.35465  0.94212  0.14218  1.0000
  C   C2199     1.0  0.35515  0.94237  0.12997  1.0000
  C   C2200     1.0  0.34705  0.93711  0.12708  1.0000
  C   C2201     1.0  0.33877  0.93121  0.13639  1.0000
  H   H2622     1.0  0.34583  0.93608  0.16099  1.0000
  H   H2623     1.0  0.36075  0.94640  0.14440  1.0000
  H   H2624     1.0  0.34732  0.93732  0.11768  1.0000
  H   H2625     1.0  0.33286  0.92679  0.13409  1.0000
  C   C2202     1.0  0.36539  0.95450  0.05314  1.0000
  C   C2203     1.0  0.36128  0.94366  0.05949  1.0000
  C   C2204     1.0  0.36387  0.93371  0.05366  1.0000
  C   C2205     1.0  0.37071  0.93456  0.04158  1.0000
  C   C2206     1.0  0.37487  0.94532  0.03546  1.0000
  C   C2207     1.0  0.37218  0.95521  0.04114  1.0000
  H   H2626     1.0  0.35608  0.94298  0.06880  1.0000
  H   H2627     1.0  0.36093  0.92530  0.05853  1.0000
  H   H2628     1.0  0.38026  0.94602  0.02620  1.0000
  H   H2629     1.0  0.37544  0.96347  0.03618  1.0000
  H   H2630     1.0  0.38643  0.91200  0.16297  1.0000
  H   H2631     1.0  0.36075  0.89897  0.98798  1.0000
  C   C2208     1.0  0.31915  0.94541  0.06890  1.0000
  H   H2632     1.0  0.30227  0.91536  0.14025  1.0000
  C   C2209     1.0  0.38599  0.90281  0.13346  1.0000
  S   S599      1.0  0.25283  0.91853  0.11116  1.0000
  C   C2210     1.0  0.38156  0.91498  0.13475  1.0000
  H   H2633     1.0  0.27060  0.88434  0.05496  1.0000
  Fe  Fe299     1.0  0.25009  0.90522  0.10144  1.0000
  S   S600      1.0  0.33415  0.88591  0.16848  1.0000
  C   C2211     1.0  0.31638  0.93115  0.04418  1.0000
  H   H2634     1.0  0.27663  0.86354  0.07542  1.0000
  C   C2212     1.0  0.27141  0.87269  0.07718  1.0000
  S   S601      1.0  0.36599  0.87009  0.17806  1.0000
  C   C2213     1.0  0.30374  0.94334  0.14292  1.0000
  H   H2635     1.0  0.28323  0.90150  0.15516  1.0000
  H   H2636     1.0  0.30895  0.94632  0.13346  1.0000
  H   H2637     1.0  0.39412  0.89070  0.16115  1.0000
  H   H2638     1.0  0.33783  0.96571  0.06066  1.0000
  H   H2639     1.0  0.26105  0.85594  0.09185  1.0000
  C   C2214     1.0  0.32965  0.94695  0.04767  1.0000
  H   H2640     1.0  0.37765  0.92189  0.12763  1.0000
  H   H2641     1.0  0.38390  0.88028  0.13009  1.0000
  H   H2642     1.0  0.31454  0.93970  0.03716  1.0000
  H   H2643     1.0  0.34232  0.95914  0.04113  1.0000
  H   H2644     1.0  0.28174  0.92064  0.14093  1.0000
  C   C2215     1.0  0.27171  0.93365  0.12856  1.0000
  C   C2216     1.0  0.32951  0.88336  0.11597  1.0000
  C   C2217     1.0  0.27650  0.95371  0.12160  1.0000
  H   H2645     1.0  0.32278  0.90818  0.11647  1.0000
  H   H2646     1.0  0.34013  0.87896  0.09352  1.0000
  H   H2647     1.0  0.37915  0.84992  0.06247  1.0000
  C   C2218     1.0  0.37126  0.84549  0.03808  1.0000
  C   C2219     1.0  0.32760  0.91006  0.10705  1.0000
  C   C2220     1.0  0.32985  0.90155  0.09950  1.0000
  H   H2648     1.0  0.32969  0.92755  0.10849  1.0000
  H   H2649     1.0  0.30811  0.88429  0.11018  1.0000
  H   H2650     1.0  0.26650  0.92722  0.12838  1.0000
  N   N146      1.0  0.38277  0.93029  0.08870  1.0000
  C   C2221     1.0  0.39173  0.92729  0.09664  1.0000
  C   C2222     1.0  0.38066  0.94372  0.08359  1.0000
  C   C2223     1.0  0.37094  0.92752  0.09639  1.0000
  C   C2224     1.0  0.38730  0.92279  0.07926  1.0000
  C   C2225     1.0  0.38936  0.90980  0.08274  1.0000
  C   C2226     1.0  0.38941  0.92802  0.06650  1.0000
  C   C2227     1.0  0.39272  0.90254  0.07404  1.0000
  C   C2228     1.0  0.39297  0.92064  0.05788  1.0000
  C   C2229     1.0  0.39443  0.90796  0.06163  1.0000
  H   H2651     1.0  0.40088  0.92888  0.09115  1.0000
  H   H2652     1.0  0.38864  0.93303  0.10367  1.0000
  H   H2653     1.0  0.39296  0.91759  0.10174  1.0000
  H   H2654     1.0  0.38927  0.94657  0.07799  1.0000
  H   H2655     1.0  0.37718  0.94906  0.09095  1.0000
  H   H2656     1.0  0.37366  0.94671  0.07785  1.0000
  H   H2657     1.0  0.37196  0.91800  0.10185  1.0000
  H   H2658     1.0  0.36685  0.93342  0.10319  1.0000
  H   H2659     1.0  0.36416  0.92880  0.09072  1.0000
  H   H2660     1.0  0.38789  0.90516  0.09227  1.0000
  H   H2661     1.0  0.38807  0.93779  0.06289  1.0000
  H   H2662     1.0  0.39370  0.89267  0.07694  1.0000
  H   H2663     1.0  0.39420  0.92480  0.04819  1.0000
  H   H2664     1.0  0.39672  0.90237  0.05488  1.0000
  H   H2665     1.0  0.34401  0.91883  0.07318  1.0000
  C   C2230     1.0  0.39077  0.89723  0.15354  1.0000
  C   C2231     1.0  0.37847  0.84738  0.04502  1.0000
  H   H2666     1.0  0.32646  0.88527  0.08734  1.0000
  H   H2667     1.0  0.38773  0.84870  0.04078  1.0000
  H   H2668     1.0  0.38979  0.87289  0.16145  1.0000
  C   C2232     1.0  0.34338  0.83385  0.04266  1.0000
  C   C2233     1.0  0.32520  0.95388  0.06994  1.0000
  H   H2669     1.0  0.30772  0.89838  0.11392  1.0000
  H   H2670     1.0  0.24677  0.84232  0.09969  1.0000
  H   H2671     1.0  0.33203  0.94451  0.03887  1.0000
  H   H2672     1.0  0.33632  0.85814  0.04151  1.0000
  H   H2673     1.0  0.33808  0.83209  0.03684  1.0000
  H   H2674     1.0  0.29818  0.94853  0.05342  1.0000
  C   C2234     1.0  0.30041  0.88859  0.15144  1.0000
  C   C2235     1.0  0.38640  0.90943  0.15469  1.0000
  H   H2675     1.0  0.32487  0.88815  0.12359  1.0000
  H   H2676     1.0  0.33640  0.83669  0.05061  1.0000
  H   H2677     1.0  0.31154  0.92579  0.13026  1.0000
  H   H2678     1.0  0.31065  0.93991  0.14879  1.0000
  H   H2679     1.0  0.34476  0.84520  0.06000  1.0000
  H   H2680     1.0  0.32356  0.95654  0.07860  1.0000
  H   H2681     1.0  0.25113  0.88781  0.08574  1.0000
  N   N147      1.0  0.29707  0.93378  0.14363  1.0000
  C   C2236     1.0  0.25344  0.88869  0.07565  1.0000
  C   C2237     1.0  0.28853  0.89483  0.14977  1.0000
  N   N148      1.0  0.25995  0.87675  0.07242  1.0000
  C   C2238     1.0  0.30036  0.93938  0.05953  1.0000
  C   C2239     1.0  0.26970  0.94551  0.12150  1.0000
  C   C2240     1.0  0.28539  0.95008  0.12871  1.0000
  H   H2682     1.0  0.29739  0.95151  0.14605  1.0000
  C   C2241     1.0  0.28055  0.92994  0.13570  1.0000
  H   H2683     1.0  0.29451  0.93355  0.05872  1.0000
  C   C2242     1.0  0.32092  0.94193  0.05765  1.0000
  C   C2243     1.0  0.26360  0.87856  0.05889  1.0000
  H   H2684     1.0  0.30427  0.89056  0.15801  1.0000
  Fe  Fe300     1.0  0.35478  0.88027  0.16345  1.0000
  H   H2685     1.0  0.32609  0.92626  0.04156  1.0000
  S   S602      1.0  0.32150  0.87064  0.14766  1.0000
  C   C2244     1.0  0.33325  0.95905  0.05986  1.0000
  S   S603      1.0  0.33345  0.98148  0.08302  1.0000
  C   C2245     1.0  0.38036  0.89280  0.98529  1.0000
  H   H2686     1.0  0.26956  0.87237  0.08716  1.0000
  H   H2687     1.0  0.29728  0.94073  0.06904  1.0000
  H   H2688     1.0  0.28696  0.92184  0.15817  1.0000
  C   C2246     1.0  0.30637  0.92314  0.13977  1.0000
  C   C2247     1.0  0.32995  0.88136  0.09590  1.0000
  S   S604      1.0  0.33609  0.97259  0.11148  1.0000
  H   H2689     1.0  0.27516  0.96281  0.11581  1.0000
  C   C2248     1.0  0.39061  0.89350  0.14293  1.0000
  H   H2690     1.0  0.30854  0.89790  0.09838  1.0000
  H   H2691     1.0  0.29057  0.95680  0.12802  1.0000
  C   C2249     1.0  0.33586  0.90507  0.08710  1.0000
  H   H2692     1.0  0.39709  0.86806  0.13034  1.0000
  C   C2250     1.0  0.35889  0.84430  0.04321  1.0000
  C   C2251     1.0  0.39374  0.87794  0.13068  1.0000
  H   H2693     1.0  0.37828  0.87558  0.15288  1.0000
  C   C2252     1.0  0.35756  0.83968  0.02406  1.0000
  C   C2253     1.0  0.34231  0.85527  0.03307  1.0000
  H   H2694     1.0  0.37550  0.84546  0.02860  1.0000
  H   H2695     1.0  0.35137  0.83831  0.01892  1.0000
  H   H2696     1.0  0.32740  0.87405  0.11930  1.0000
  C   C2254     1.0  0.35424  0.84527  0.05562  1.0000
  C   C2255     1.0  0.33721  0.92439  0.09035  1.0000
  H   H2697     1.0  0.31321  0.91951  0.14571  1.0000
  H   H2698     1.0  0.28362  0.93745  0.15976  1.0000
  C   C2256     1.0  0.29107  0.92990  0.15662  1.0000
  H   H2699     1.0  0.26309  0.94823  0.11568  1.0000
  H   H2700     1.0  0.31063  0.91542  0.06477  1.0000
  H   H2701     1.0  0.31058  0.92514  0.04366  1.0000
  C   C2257     1.0  0.38177  0.91828  0.14532  1.0000
  C   C2258     1.0  0.40838  0.87670  0.14238  1.0000
  H   H2702     1.0  0.25577  0.88335  0.05437  1.0000
  N   N149      1.0  0.39516  0.88046  0.14203  1.0000
  C   C2259     1.0  0.28774  0.93800  0.13598  1.0000
  C   C2260     1.0  0.33565  0.95543  0.04881  1.0000
  H   H2703     1.0  0.37821  0.92770  0.14630  1.0000
  C   C2261     1.0  0.38833  0.87262  0.15248  1.0000
  N   N150      1.0  0.31363  0.93370  0.05659  1.0000
  H   H2704     1.0  0.41005  0.87730  0.15116  1.0000
  H   H2705     1.0  0.31338  0.92278  0.07499  1.0000
  N   N151      1.0  0.32547  0.88993  0.10439  1.0000
  H   H2706     1.0  0.29777  0.92715  0.16271  1.0000
  H   H2707     1.0  0.36461  0.83104  0.02552  1.0000
  Fe  Fe301     1.0  0.32927  0.96567  0.09872  1.0000
  H   H2708     1.0  0.33806  0.89920  0.08068  1.0000
  H   H2709     1.0  0.32588  0.91719  0.06337  1.0000
  H   H2710     1.0  0.41379  0.88265  0.13488  1.0000
  H   H2711     1.0  0.33956  0.88225  0.11484  1.0000
  H   H2712     1.0  0.34941  0.82498  0.04603  1.0000
  N   N152      1.0  0.35075  0.84323  0.03583  1.0000
  H   H2713     1.0  0.34755  0.86260  0.02827  1.0000
  H   H2714     1.0  0.35778  0.84807  0.07186  1.0000
  C   C2262     1.0  0.33141  0.92121  0.10255  1.0000
  H   H2715     1.0  0.39103  0.86280  0.15188  1.0000
  C   C2263     1.0  0.36158  0.84702  0.06250  1.0000
  H   H2716     1.0  0.32676  0.87259  0.09997  1.0000
  H   H2717     1.0  0.33627  0.85521  0.02710  1.0000
  H   H2718     1.0  0.33992  0.93313  0.08684  1.0000
  H   H2719     1.0  0.39900  0.88314  0.12234  1.0000
  H   H2720     1.0  0.41224  0.86703  0.14142  1.0000
  H   H2721     1.0  0.38537  0.90091  0.12510  1.0000
  C   C2264     1.0  0.25351  0.85783  0.08735  1.0000
  C   C2265     1.0  0.24536  0.84987  0.09197  1.0000
  H   H2722     1.0  0.26756  0.86960  0.05608  1.0000
  H   H2723     1.0  0.27769  0.87917  0.07283  1.0000
  H   H2724     1.0  0.25909  0.89576  0.07161  1.0000
  C   C2266     1.0  0.25166  0.86800  0.07744  1.0000
  H   H2725     1.0  0.38098  0.89684  0.99244  1.0000
  H   H2726     1.0  0.38029  0.84784  0.98483  1.0000
  H   H2727     1.0  0.36706  0.89566  0.17554  1.0000
  H   H2728     1.0  0.39938  0.88527  0.98160  1.0000
  C   C2267     1.0  0.36893  0.89397  0.98283  1.0000
  Fe  Fe302     1.0  0.34202  0.98727  0.09542  1.0000
  H   H2729     1.0  0.24464  0.89241  0.07249  1.0000
  N   N153      1.0  0.40568  0.78900  0.36962  1.0000
  C   C2268     1.0  0.41963  0.84946  0.36421  1.0000
  H   H2730     1.0  0.40517  0.93114  0.27542  1.0000
  H   H2731     1.0  0.26060  0.63492  0.32860  1.0000
  Fe  Fe303     1.0  0.46395  0.88162  0.29474  1.0000
  S   S605      1.0  0.44878  0.87646  0.31042  1.0000
  S   S606      1.0  0.46161  0.88768  0.27503  1.0000
  Fe  Fe304     1.0  0.48281  0.87594  0.31142  1.0000
  S   S607      1.0  0.46887  0.87011  0.32817  1.0000
  Fe  Fe305     1.0  0.46327  0.86060  0.31682  1.0000
  S   S608      1.0  0.46161  0.84088  0.32303  1.0000
  Fe  Fe306     1.0  0.45586  0.88659  0.32009  1.0000
  S   S609      1.0  0.44292  0.89831  0.33264  1.0000
  S   S610      1.0  0.47819  0.86504  0.30053  1.0000
  S   S611      1.0  0.47003  0.89316  0.30393  1.0000
  Fe  Fe307     1.0  0.39456  0.88968  0.22485  1.0000
  S   S612      1.0  0.37968  0.89783  0.23916  1.0000
  S   S613      1.0  0.38899  0.89568  0.20630  1.0000
  Fe  Fe308     1.0  0.41252  0.88021  0.24266  1.0000
  S   S614      1.0  0.39871  0.88763  0.25785  1.0000
  S   S615      1.0  0.43120  0.87056  0.24689  1.0000
  Fe  Fe309     1.0  0.38561  0.88039  0.25210  1.0000
  S   S616      1.0  0.37100  0.87194  0.26606  1.0000
  Fe  Fe310     1.0  0.39437  0.90421  0.24330  1.0000
  S   S617      1.0  0.39262  0.92285  0.24647  1.0000
  S   S618      1.0  0.39963  0.87155  0.23773  1.0000
  S   S619      1.0  0.40903  0.89741  0.22823  1.0000
  Fe  Fe311     1.0  0.36218  0.94711  0.32972  1.0000
  S   S620      1.0  0.37056  0.94956  0.30954  1.0000
  S   S621      1.0  0.34843  0.96367  0.33551  1.0000
  Fe  Fe312     1.0  0.37490  0.92007  0.33498  1.0000
  S   S622      1.0  0.38420  0.92062  0.31541  1.0000
  S   S623      1.0  0.38024  0.90137  0.34681  1.0000
  Fe  Fe313     1.0  0.38782  0.93851  0.31564  1.0000
  S   S624      1.0  0.40668  0.94174  0.30602  1.0000
  Fe  Fe314     1.0  0.36615  0.93144  0.31126  1.0000
  S   S625      1.0  0.35854  0.92549  0.29848  1.0000
  S   S626      1.0  0.37990  0.93732  0.33569  1.0000
  S   S627      1.0  0.35638  0.92968  0.33092  1.0000
  Fe  Fe315     1.0  0.37109  0.84296  0.33777  1.0000
  S   S628      1.0  0.39028  0.84250  0.32654  1.0000
  S   S629      1.0  0.35763  0.86091  0.33874  1.0000
  Fe  Fe316     1.0  0.37496  0.81519  0.34610  1.0000
  S   S630      1.0  0.39440  0.81250  0.33541  1.0000
  S   S631      1.0  0.36897  0.79857  0.35938  1.0000
  Fe  Fe317     1.0  0.39581  0.82810  0.34244  1.0000
  S   S632      1.0  0.41150  0.82542  0.35143  1.0000
  Fe  Fe318     1.0  0.38699  0.82701  0.32059  1.0000
  S   S633      1.0  0.39445  0.82490  0.30124  1.0000
  S   S634      1.0  0.37690  0.82984  0.35426  1.0000
  S   S635      1.0  0.36729  0.82848  0.33056  1.0000
  Fe  Fe319     1.0  0.34383  0.74481  0.35485  1.0000
  S   S636      1.0  0.35286  0.73043  0.34377  1.0000
  S   S637      1.0  0.34203  0.76492  0.34555  1.0000
  C   C2269     1.0  0.42034  0.90632  0.29296  1.0000
  H   H2732     1.0  0.40019  0.74017  0.31767  1.0000
  Fe  Fe320     1.0  0.36272  0.72120  0.35896  1.0000
  S   S638      1.0  0.38282  0.71349  0.35330  1.0000
  H   H2733     1.0  0.36100  0.94926  0.20886  1.0000
  C   C2270     1.0  0.41566  0.79227  0.35906  1.0000
  H   H2734     1.0  0.42014  0.89058  0.33972  1.0000
  C   C2271     1.0  0.35195  0.93510  0.25358  1.0000
  H   H2735     1.0  0.39449  0.79475  0.31568  1.0000
  S   S639      1.0  0.30834  0.62191  0.36544  1.0000
  Fe  Fe321     1.0  0.29962  0.65560  0.36994  1.0000
  S   S640      1.0  0.29837  0.65101  0.35284  1.0000
  H   H2736     1.0  0.35325  0.62759  0.37836  1.0000
  Fe  Fe322     1.0  0.29009  0.63526  0.36516  1.0000
  S   S641      1.0  0.27163  0.63412  0.36222  1.0000
  Fe  Fe323     1.0  0.31654  0.63805  0.35431  1.0000
  S   S642      1.0  0.33174  0.63637  0.33769  1.0000
  S   S643      1.0  0.29489  0.67417  0.37477  1.0000
  S   S644      1.0  0.31846  0.64413  0.37017  1.0000
  Fe  Fe324     1.0  0.39464  0.63419  0.35388  1.0000
  S   S645      1.0  0.38358  0.63450  0.37288  1.0000
  S   S646      1.0  0.38631  0.63765  0.33751  1.0000
  Fe  Fe325     1.0  0.41930  0.62847  0.36136  1.0000
  C   C2272     1.0  0.29215  0.62798  0.32083  1.0000
  S   S647      1.0  0.44007  0.62320  0.35716  1.0000
  H   H2737     1.0  0.39757  0.80783  0.37119  1.0000
  Fe  Fe326     1.0  0.39702  0.64480  0.37382  1.0000
  H   H2738     1.0  0.34342  0.67520  0.34947  1.0000
  S   S648      1.0  0.40788  0.61654  0.35927  1.0000
  S   S649      1.0  0.40699  0.64612  0.35425  1.0000
  S   S650      1.0  0.47398  0.66178  0.34455  1.0000
  C   C2273     1.0  0.44934  0.63409  0.35343  1.0000
  C   C2274     1.0  0.44429  0.64668  0.35154  1.0000
  C   C2275     1.0  0.45196  0.65507  0.34884  1.0000
  C   C2276     1.0  0.46470  0.65094  0.34790  1.0000
  C   C2277     1.0  0.46972  0.63835  0.34978  1.0000
  C   C2278     1.0  0.46206  0.62997  0.35254  1.0000
  H   H2739     1.0  0.43453  0.64994  0.35205  1.0000
  H   H2740     1.0  0.44803  0.66481  0.34730  1.0000
  H   H2741     1.0  0.47950  0.63507  0.34907  1.0000
  H   H2742     1.0  0.46600  0.62023  0.35396  1.0000
  C   C2279     1.0  0.34668  0.63691  0.33833  1.0000
  C   C2280     1.0  0.35567  0.63736  0.32752  1.0000
  C   C2281     1.0  0.36769  0.63760  0.32751  1.0000
  C   C2282     1.0  0.37099  0.63718  0.33835  1.0000
  C   C2283     1.0  0.36207  0.63665  0.34928  1.0000
  C   C2284     1.0  0.34987  0.63666  0.34924  1.0000
  H   H2743     1.0  0.35333  0.63758  0.31906  1.0000
  H   H2744     1.0  0.37452  0.63804  0.31904  1.0000
  H   H2745     1.0  0.36456  0.63629  0.35769  1.0000
  H   H2746     1.0  0.34305  0.63620  0.35764  1.0000
  C   C2285     1.0  0.38579  0.69859  0.36207  1.0000
  C   C2286     1.0  0.39455  0.68930  0.35705  1.0000
  C   C2287     1.0  0.39625  0.67720  0.36391  1.0000
  C   C2288     1.0  0.26520  0.66544  0.37090  1.0000
  C   C2289     1.0  0.35219  0.98426  0.36246  1.0000
  C   C2290     1.0  0.30297  0.62489  0.33676  1.0000
  H   H2747     1.0  0.39983  0.69139  0.34782  1.0000
  H   H2748     1.0  0.40295  0.67002  0.36000  1.0000
  H   H2749     1.0  0.45988  0.84135  0.26491  1.0000
  H   H2750     1.0  0.39364  0.88208  0.36374  1.0000
  C   C2291     1.0  0.31304  0.68185  0.35564  1.0000
  H   H2751     1.0  0.37397  0.73969  0.32244  1.0000
  Fe  Fe327     1.0  0.33822  0.72018  0.35502  1.0000
  C   C2292     1.0  0.32094  0.68985  0.34913  1.0000
  H   H2752     1.0  0.41825  0.65097  0.37564  1.0000
  H   H2753     1.0  0.36668  0.75530  0.32204  1.0000
  H   H2754     1.0  0.40020  0.88112  0.37653  1.0000
  C   C2293     1.0  0.35531  0.60708  0.36250  1.0000
  H   H2755     1.0  0.44757  0.85490  0.34840  1.0000
  H   H2756     1.0  0.45100  0.91560  0.25468  1.0000
  C   C2294     1.0  0.36189  0.78930  0.35496  1.0000
  C   C2295     1.0  0.36177  0.77736  0.36186  1.0000
  C   C2296     1.0  0.35590  0.76979  0.35889  1.0000
  C   C2297     1.0  0.34976  0.77420  0.34924  1.0000
  C   C2298     1.0  0.34982  0.78619  0.34236  1.0000
  C   C2299     1.0  0.35600  0.79369  0.34512  1.0000
  H   H2757     1.0  0.32270  0.62743  0.31848  1.0000
  H   H2758     1.0  0.34337  0.92146  0.25216  1.0000
  H   H2759     1.0  0.34509  0.78968  0.33486  1.0000
  H   H2760     1.0  0.35593  0.80295  0.33983  1.0000
  C   C2300     1.0  0.37380  0.89012  0.34476  1.0000
  C   C2301     1.0  0.38035  0.87791  0.34598  1.0000
  C   C2302     1.0  0.37543  0.86890  0.34416  1.0000
  C   C2303     1.0  0.36379  0.87200  0.34141  1.0000
  C   C2304     1.0  0.35715  0.88415  0.34041  1.0000
  C   C2305     1.0  0.36223  0.89324  0.34187  1.0000
  H   H2761     1.0  0.38933  0.87538  0.34811  1.0000
  H   H2762     1.0  0.38059  0.85953  0.34499  1.0000
  H   H2763     1.0  0.34812  0.88658  0.33833  1.0000
  H   H2764     1.0  0.35707  0.90260  0.34101  1.0000
  C   C2306     1.0  0.37739  0.85852  0.27552  1.0000
  C   C2307     1.0  0.38958  0.85252  0.27199  1.0000
  C   C2308     1.0  0.39463  0.84187  0.27973  1.0000
  C   C2309     1.0  0.38768  0.83755  0.29122  1.0000
  C   C2310     1.0  0.37551  0.84361  0.29478  1.0000
  C   C2311     1.0  0.37030  0.85395  0.28683  1.0000
  H   H2765     1.0  0.39510  0.85596  0.26325  1.0000
  H   H2766     1.0  0.40399  0.83709  0.27691  1.0000
  H   H2767     1.0  0.37007  0.84025  0.30361  1.0000
  H   H2768     1.0  0.36084  0.85855  0.28956  1.0000
  C   C2312     1.0  0.38290  0.92401  0.26072  1.0000
  C   C2313     1.0  0.37511  0.91580  0.26628  1.0000
  C   C2314     1.0  0.36744  0.91657  0.27775  1.0000
  C   C2315     1.0  0.36793  0.92516  0.28395  1.0000
  C   C2316     1.0  0.37582  0.93330  0.27846  1.0000
  C   C2317     1.0  0.38311  0.93291  0.26670  1.0000
  H   H2769     1.0  0.37478  0.90903  0.26163  1.0000
  H   H2770     1.0  0.36119  0.91040  0.28190  1.0000
  H   H2771     1.0  0.37611  0.94004  0.28320  1.0000
  H   H2772     1.0  0.38908  0.93931  0.26235  1.0000
  C   C2318     1.0  0.45232  0.88333  0.26772  1.0000
  C   C2319     1.0  0.45675  0.88283  0.25537  1.0000
  C   C2320     1.0  0.44996  0.87938  0.24901  1.0000
  C   C2321     1.0  0.43837  0.87683  0.25474  1.0000
  C   C2322     1.0  0.43368  0.87762  0.26706  1.0000
  C   C2323     1.0  0.44071  0.88071  0.27359  1.0000
  H   H2773     1.0  0.46564  0.88489  0.25072  1.0000
  H   H2774     1.0  0.45378  0.87861  0.23961  1.0000
  H   H2775     1.0  0.42484  0.87542  0.27166  1.0000
  H   H2776     1.0  0.43720  0.88103  0.28311  1.0000
  C   C2324     1.0  0.44730  0.83704  0.33013  1.0000
  C   C2325     1.0  0.44725  0.82513  0.33702  1.0000
  C   C2326     1.0  0.43617  0.82161  0.34319  1.0000
  C   C2327     1.0  0.42499  0.82984  0.34219  1.0000
  C   C2328     1.0  0.42492  0.84169  0.33494  1.0000
  C   C2329     1.0  0.43612  0.84536  0.32900  1.0000
  H   H2777     1.0  0.45585  0.81867  0.33787  1.0000
  C   C2330     1.0  0.43801  0.85677  0.35311  1.0000
  H   H2778     1.0  0.41628  0.84817  0.33435  1.0000
  H   H2779     1.0  0.43610  0.85458  0.32367  1.0000
  C   C2331     1.0  0.43357  0.91110  0.32515  1.0000
  C   C2332     1.0  0.42268  0.91685  0.33197  1.0000
  C   C2333     1.0  0.41447  0.92634  0.32610  1.0000
  C   C2334     1.0  0.41741  0.93056  0.31345  1.0000
  C   C2335     1.0  0.42870  0.92537  0.30669  1.0000
  C   C2336     1.0  0.43663  0.91540  0.31249  1.0000
  H   H2780     1.0  0.42045  0.91384  0.34179  1.0000
  H   H2781     1.0  0.40596  0.93053  0.33142  1.0000
  H   H2782     1.0  0.43114  0.92883  0.29694  1.0000
  H   H2783     1.0  0.44515  0.91113  0.30720  1.0000
  H   H2784     1.0  0.44410  0.83672  0.30653  1.0000
  C   C2337     1.0  0.39724  0.77902  0.35792  1.0000
  C   C2338     1.0  0.36003  0.97284  0.36131  1.0000
  C   C2339     1.0  0.35909  0.96644  0.35301  1.0000
  C   C2340     1.0  0.35015  0.97135  0.34596  1.0000
  C   C2341     1.0  0.40179  0.77833  0.36831  1.0000
  H   H2785     1.0  0.36690  0.96896  0.36682  1.0000
  H   H2786     1.0  0.36516  0.95766  0.35219  1.0000
  H   H2787     1.0  0.41139  0.77634  0.31583  1.0000
  H   H2788     1.0  0.38956  0.77016  0.34863  1.0000
  C   C2342     1.0  0.37828  0.87019  0.19529  1.0000
  C   C2343     1.0  0.38339  0.87561  0.20169  1.0000
  C   C2344     1.0  0.38260  0.88829  0.19871  1.0000
  C   C2345     1.0  0.37674  0.89543  0.18917  1.0000
  C   C2346     1.0  0.37396  0.60563  0.34682  1.0000
  H   H2789     1.0  0.37895  0.86037  0.19768  1.0000
  H   H2790     1.0  0.38818  0.86994  0.20875  1.0000
  H   H2791     1.0  0.36230  0.94823  0.25269  1.0000
  H   H2792     1.0  0.34643  0.85515  0.23081  1.0000
  C   C2347     1.0  0.34674  0.86374  0.22428  1.0000
  C   C2348     1.0  0.25729  0.60863  0.34731  1.0000
  H   H2793     1.0  0.34869  0.68760  0.36075  1.0000
  H   H2794     1.0  0.31529  0.62853  0.30642  1.0000
  C   C2349     1.0  0.26639  0.62379  0.35685  1.0000
  C   C2350     1.0  0.27417  0.61329  0.35313  1.0000
  C   C2351     1.0  0.26966  0.60583  0.34832  1.0000
  C   C2352     1.0  0.38934  0.67452  0.37581  1.0000
  C   C2353     1.0  0.31381  0.70140  0.36511  1.0000
  H   H2795     1.0  0.28365  0.61092  0.35391  1.0000
  H   H2796     1.0  0.27580  0.59785  0.34529  1.0000
  N   N154      1.0  0.37289  0.93316  0.21696  1.0000
  C   C2354     1.0  0.39513  0.79966  0.36990  1.0000
  C   C2355     1.0  0.38612  0.92897  0.21726  1.0000
  C   C2356     1.0  0.36974  0.92465  0.21133  1.0000
  C   C2357     1.0  0.36554  0.93374  0.22947  1.0000
  H   H2797     1.0  0.44541  0.64181  0.37700  1.0000
  H   H2798     1.0  0.38956  0.93534  0.22050  1.0000
  H   H2799     1.0  0.31275  0.67438  0.35189  1.0000
  H   H2800     1.0  0.30124  0.64834  0.31197  1.0000
  S   S651      1.0  0.35482  0.73620  0.36934  1.0000
  C   C2358     1.0  0.37094  0.94551  0.20884  1.0000
  Fe  Fe328     1.0  0.39773  0.61786  0.37839  1.0000
  H   H2801     1.0  0.32453  0.77989  0.36755  1.0000
  C   C2359     1.0  0.42310  0.65607  0.37896  1.0000
  H   H2802     1.0  0.41935  0.79978  0.36008  1.0000
  H   H2803     1.0  0.37590  0.94532  0.19922  1.0000
  H   H2804     1.0  0.36001  0.92747  0.21038  1.0000
  H   H2805     1.0  0.37612  0.90523  0.18672  1.0000
  H   H2806     1.0  0.37143  0.91507  0.21672  1.0000
  C   C2360     1.0  0.37586  0.74904  0.32048  1.0000
  H   H2807     1.0  0.39528  0.89557  0.36672  1.0000
  C   C2361     1.0  0.36131  0.60657  0.35042  1.0000
  N   N155      1.0  0.30289  0.63035  0.32371  1.0000
  H   H2808     1.0  0.33973  0.65888  0.36469  1.0000
  C   C2362     1.0  0.26975  0.63086  0.32416  1.0000
  H   H2809     1.0  0.37555  0.92426  0.20201  1.0000
  C   C2363     1.0  0.30213  0.64374  0.32151  1.0000
  H   H2810     1.0  0.36158  0.68937  0.34828  1.0000
  C   C2364     1.0  0.27117  0.62242  0.31709  1.0000
  H   H2811     1.0  0.37295  0.79249  0.32131  1.0000
  H   H2812     1.0  0.34702  0.93540  0.26291  1.0000
  H   H2813     1.0  0.35417  0.66155  0.34565  1.0000
  H   H2814     1.0  0.42818  0.89230  0.35644  1.0000
  C   C2365     1.0  0.41314  0.86151  0.36443  1.0000
  H   H2815     1.0  0.39191  0.73034  0.32983  1.0000
  C   C2366     1.0  0.38068  0.60504  0.35532  1.0000
  H   H2816     1.0  0.30206  0.61469  0.30923  1.0000
  S   S652      1.0  0.32792  0.73561  0.36456  1.0000
  H   H2817     1.0  0.31403  0.70897  0.36875  1.0000
  H   H2818     1.0  0.42136  0.88635  0.37202  1.0000
  C   C2367     1.0  0.37313  0.66552  0.35192  1.0000
  H   H2819     1.0  0.33241  0.75852  0.37252  1.0000
  H   H2820     1.0  0.32665  0.68854  0.34034  1.0000
  H   H2821     1.0  0.40982  0.90651  0.26262  1.0000
  C   C2368     1.0  0.28289  0.61682  0.31172  1.0000
  C   C2369     1.0  0.31488  0.62504  0.31639  1.0000
  H   H2822     1.0  0.39631  0.78733  0.35095  1.0000
  H   H2823     1.0  0.35605  0.60743  0.34369  1.0000
  H   H2824     1.0  0.37450  0.86370  0.22858  1.0000
  C   C2370     1.0  0.42663  0.90783  0.25011  1.0000
  C   C2371     1.0  0.34249  0.86512  0.21371  1.0000
  N   N156      1.0  0.35626  0.87193  0.23697  1.0000
  H   H2825     1.0  0.37469  0.65563  0.35191  1.0000
  H   H2826     1.0  0.35599  0.76063  0.36419  1.0000
  H   H2827     1.0  0.41717  0.93018  0.28289  1.0000
  H   H2828     1.0  0.34746  0.89343  0.19900  1.0000
  H   H2829     1.0  0.43701  0.83776  0.35847  1.0000
  H   H2830     1.0  0.42388  0.89644  0.29284  1.0000
  H   H2831     1.0  0.35300  0.88160  0.25143  1.0000
  H   H2832     1.0  0.35258  0.89133  0.23683  1.0000
  H   H2833     1.0  0.33919  0.85777  0.21236  1.0000
  H   H2834     1.0  0.41421  0.90716  0.30204  1.0000
  C   C2372     1.0  0.41110  0.89052  0.34617  1.0000
  C   C2373     1.0  0.40295  0.90738  0.28517  1.0000
  H   H2835     1.0  0.38019  0.75142  0.31060  1.0000
  C   C2374     1.0  0.44188  0.91380  0.25652  1.0000
  H   H2836     1.0  0.40599  0.88571  0.34284  1.0000
  C   C2375     1.0  0.41869  0.90849  0.26146  1.0000
  C   C2376     1.0  0.38032  0.78438  0.32137  1.0000
  H   H2837     1.0  0.37491  0.73853  0.34439  1.0000
  H   H2838     1.0  0.39713  0.90784  0.29444  1.0000
  C   C2377     1.0  0.35019  0.88265  0.24271  1.0000
  H   H2839     1.0  0.35954  0.85222  0.24320  1.0000
  H   H2840     1.0  0.45693  0.85708  0.26631  1.0000
  H   H2841     1.0  0.32868  0.80022  0.35965  1.0000
  C   C2378     1.0  0.40955  0.92588  0.28324  1.0000
  H   H2842     1.0  0.27839  0.63953  0.33233  1.0000
  H   H2843     1.0  0.43656  0.87603  0.34840  1.0000
  H   H2844     1.0  0.34001  0.88386  0.24481  1.0000
  C   C2379     1.0  0.43206  0.84710  0.35873  1.0000
  C   C2380     1.0  0.37761  0.77273  0.32453  1.0000
  H   H2845     1.0  0.38791  0.91990  0.22357  1.0000
  C   C2381     1.0  0.37896  0.69588  0.37398  1.0000
  C   C2382     1.0  0.39990  0.88576  0.36687  1.0000
  C   C2383     1.0  0.35158  0.88388  0.21661  1.0000
  H   H2846     1.0  0.42828  0.91011  0.29255  1.0000
  H   H2847     1.0  0.47158  0.84740  0.26723  1.0000
  C   C2384     1.0  0.34233  0.98276  0.34711  1.0000
  H   H2848     1.0  0.36815  0.75440  0.34244  1.0000
  H   H2849     1.0  0.40264  0.92727  0.29177  1.0000
  H   H2850     1.0  0.37433  0.95220  0.21166  1.0000
  H   H2851     1.0  0.43440  0.63251  0.38087  1.0000
  C   C2385     1.0  0.36053  0.94237  0.24778  1.0000
  C   C2386     1.0  0.29328  0.61954  0.31349  1.0000
  C   C2387     1.0  0.40238  0.76707  0.37713  1.0000
  H   H2852     1.0  0.39683  0.91251  0.27876  1.0000
  H   H2853     1.0  0.34542  0.60841  0.36468  1.0000
  H   H2854     1.0  0.35550  0.89118  0.21702  1.0000
  C   C2388     1.0  0.37233  0.87734  0.18583  1.0000
  C   C2389     1.0  0.32155  0.69947  0.35395  1.0000
  H   H2855     1.0  0.27103  0.67166  0.37088  1.0000
  H   H2856     1.0  0.43630  0.81251  0.34887  1.0000
  C   C2390     1.0  0.37479  0.60548  0.36744  1.0000
  C   C2391     1.0  0.39398  0.75830  0.36533  1.0000
  H   H2857     1.0  0.24785  0.63454  0.35886  1.0000
  C   C2392     1.0  0.36727  0.94170  0.23594  1.0000
  H   H2858     1.0  0.37666  0.67025  0.34241  1.0000
  C   C2393     1.0  0.35330  0.67090  0.34701  1.0000
  N   N157      1.0  0.41388  0.91273  0.28281  1.0000
  C   C2394     1.0  0.34265  0.87584  0.20471  1.0000
  S   S653      1.0  0.33206  0.70886  0.34571  1.0000
  C   C2395     1.0  0.35660  0.92650  0.23562  1.0000
  H   H2859     1.0  0.36804  0.77223  0.32691  1.0000
  C   C2396     1.0  0.39935  0.76354  0.32151  1.0000
  H   H2860     1.0  0.42343  0.78426  0.35799  1.0000
  C   C2397     1.0  0.36186  0.60658  0.37140  1.0000
  C   C2398     1.0  0.38703  0.76194  0.32465  1.0000
  H   H2861     1.0  0.35785  0.86030  0.25474  1.0000
  H   H2862     1.0  0.36397  0.68419  0.36351  1.0000
  C   C2399     1.0  0.43396  0.91462  0.26784  1.0000
  H   H2863     1.0  0.39049  0.60456  0.35241  1.0000
  H   H2864     1.0  0.37183  0.88000  0.22674  1.0000
  C   C2400     1.0  0.43824  0.91038  0.24768  1.0000
  H   H2865     1.0  0.38247  0.74870  0.34729  1.0000
  C   C2401     1.0  0.40195  0.77527  0.31834  1.0000
  H   H2866     1.0  0.37909  0.66636  0.35756  1.0000
  H   H2867     1.0  0.35467  0.92012  0.23153  1.0000
  H   H2868     1.0  0.42231  0.83614  0.31307  1.0000
  S   S654      1.0  0.34878  0.70994  0.36953  1.0000
  C   C2402     1.0  0.39896  0.97683  0.31911  1.0000
  C   C2403     1.0  0.30524  0.68381  0.36675  1.0000
  H   H2869     1.0  0.40714  0.75591  0.32136  1.0000
  C   C2404     1.0  0.43161  0.86885  0.35321  1.0000
  N   N158      1.0  0.38385  0.74972  0.32825  1.0000
  H   H2870     1.0  0.33962  0.87675  0.19639  1.0000
  H   H2871     1.0  0.44448  0.90956  0.23898  1.0000
  H   H2872     1.0  0.29425  0.64831  0.32779  1.0000
  H   H2873     1.0  0.31673  0.61484  0.31849  1.0000
  H   H2874     1.0  0.36621  0.77398  0.36956  1.0000
  H   H2875     1.0  0.40844  0.97252  0.31590  1.0000
  C   C2405     1.0  0.34503  0.65787  0.37138  1.0000
  H   H2876     1.0  0.43019  0.65944  0.37108  1.0000
  C   C2406     1.0  0.30554  0.69368  0.37141  1.0000
  H   H2877     1.0  0.41493  0.84190  0.36806  1.0000
  N   N159      1.0  0.35992  0.67062  0.35641  1.0000
  H   H2878     1.0  0.28390  0.61012  0.30639  1.0000
  H   H2879     1.0  0.37415  0.94718  0.23206  1.0000
  C   C2407     1.0  0.39852  0.75723  0.37559  1.0000
  H   H2880     1.0  0.29467  0.62911  0.34291  1.0000
  H   H2881     1.0  0.29938  0.69535  0.37990  1.0000
  C   C2408     1.0  0.41902  0.87160  0.35910  1.0000
  H   H2882     1.0  0.26314  0.61996  0.31609  1.0000
  H   H2883     1.0  0.39188  0.96296  0.31577  1.0000
  H   H2884     1.0  0.31044  0.64572  0.32307  1.0000
  C   C2409     1.0  0.28004  0.63352  0.32613  1.0000
  C   C2410     1.0  0.25400  0.62650  0.35599  1.0000
  H   H2885     1.0  0.31112  0.62612  0.33926  1.0000
  N   N160      1.0  0.37791  0.88126  0.30152  1.0000
  C   C2411     1.0  0.36713  0.89061  0.30582  1.0000
  C   C2412     1.0  0.37999  0.88380  0.28799  1.0000
  C   C2413     1.0  0.37470  0.86909  0.30658  1.0000
  C   C2414     1.0  0.38916  0.88113  0.30533  1.0000
  C   C2415     1.0  0.38914  0.88806  0.31372  1.0000
  C   C2416     1.0  0.40052  0.87347  0.30105  1.0000
  C   C2417     1.0  0.39984  0.88744  0.31743  1.0000
  C   C2418     1.0  0.41119  0.87288  0.30485  1.0000
  C   C2419     1.0  0.41083  0.87981  0.31308  1.0000
  H   H2886     1.0  0.36910  0.89997  0.30272  1.0000
  H   H2887     1.0  0.35893  0.89093  0.30238  1.0000
  H   H2888     1.0  0.36420  0.88861  0.31594  1.0000
  H   H2889     1.0  0.38336  0.89244  0.28379  1.0000
  H   H2890     1.0  0.37141  0.88478  0.28488  1.0000
  H   H2891     1.0  0.38667  0.87628  0.28402  1.0000
  H   H2892     1.0  0.37372  0.86661  0.31666  1.0000
  H   H2893     1.0  0.38182  0.86168  0.30281  1.0000
  H   H2894     1.0  0.38091  0.89394  0.31771  1.0000
  H   H2895     1.0  0.40116  0.86769  0.29491  1.0000
  H   H2896     1.0  0.39947  0.89285  0.32385  1.0000
  H   H2897     1.0  0.41973  0.86689  0.30154  1.0000
  H   H2898     1.0  0.41906  0.87922  0.31616  1.0000
  H   H2899     1.0  0.40597  0.90023  0.34548  1.0000
  C   C2420     1.0  0.41933  0.89118  0.36290  1.0000
  C   C2421     1.0  0.37707  0.74779  0.34115  1.0000
  C   C2422     1.0  0.35849  0.68346  0.35732  1.0000
  C   C2423     1.0  0.36964  0.87147  0.23319  1.0000
  C   C2424     1.0  0.46156  0.84752  0.26985  1.0000
  C   C2425     1.0  0.39246  0.78566  0.31825  1.0000
  C   C2426     1.0  0.42221  0.91167  0.27080  1.0000
  H   H2900     1.0  0.41414  0.90069  0.36350  1.0000
  N   N161      1.0  0.41239  0.88449  0.35886  1.0000
  C   C2427     1.0  0.35540  0.66328  0.36861  1.0000
  H   H2901     1.0  0.40348  0.86268  0.36864  1.0000
  H   H2902     1.0  0.37854  0.60570  0.33736  1.0000
  C   C2428     1.0  0.33561  0.80033  0.37495  1.0000
  C   C2429     1.0  0.35140  0.87314  0.22606  1.0000
  H   H2903     1.0  0.42381  0.90519  0.24321  1.0000
  H   H2904     1.0  0.43718  0.91757  0.27423  1.0000
  H   H2905     1.0  0.37373  0.87020  0.24119  1.0000
  C   C2430     1.0  0.35439  0.86072  0.24653  1.0000
  H   H2906     1.0  0.40568  0.89760  0.28443  1.0000
  H   H2907     1.0  0.30323  0.61488  0.33890  1.0000
  C   C2431     1.0  0.38965  0.97139  0.31903  1.0000
  C   C2432     1.0  0.34709  0.88523  0.20620  1.0000
  H   H2908     1.0  0.34448  0.86043  0.24974  1.0000
  N   N162      1.0  0.45728  0.84373  0.28329  1.0000
  C   C2433     1.0  0.46008  0.85231  0.28904  1.0000
  C   C2434     1.0  0.46454  0.83126  0.28730  1.0000
  C   C2435     1.0  0.44399  0.84373  0.28714  1.0000
  C   C2436     1.0  0.43863  0.83973  0.29964  1.0000
  C   C2437     1.0  0.43601  0.84765  0.27878  1.0000
  C   C2438     1.0  0.42616  0.83944  0.30350  1.0000
  C   C2439     1.0  0.42352  0.84750  0.28276  1.0000
  C   C2440     1.0  0.41862  0.84328  0.29507  1.0000
  H   H2909     1.0  0.46993  0.85288  0.28606  1.0000
  H   H2910     1.0  0.45458  0.86173  0.28664  1.0000
  H   H2911     1.0  0.45809  0.84955  0.29916  1.0000
  H   H2912     1.0  0.46311  0.82835  0.29743  1.0000
  H   H2913     1.0  0.47459  0.83077  0.28392  1.0000
  H   H2914     1.0  0.46205  0.82434  0.28391  1.0000
  H   H2915     1.0  0.43914  0.85092  0.26909  1.0000
  H   H2916     1.0  0.41764  0.85058  0.27618  1.0000
  H   H2917     1.0  0.40898  0.84295  0.29809  1.0000
  H   H2918     1.0  0.35696  0.67641  0.33794  1.0000
  H   H2919     1.0  0.36584  0.86889  0.30468  1.0000
  H   H2920     1.0  0.40068  0.73870  0.33350  1.0000
  C   C2441     1.0  0.39469  0.73937  0.32721  1.0000
  H   H2921     1.0  0.27144  0.65655  0.36951  1.0000
  H   H2922     1.0  0.39085  0.75071  0.36431  1.0000
  H   H2923     1.0  0.33783  0.80929  0.37103  1.0000
  C   C2442     1.0  0.32815  0.78339  0.37324  1.0000
  H   H2924     1.0  0.37233  0.70306  0.37794  1.0000
  C   C2443     1.0  0.24946  0.61896  0.35131  1.0000
  Fe  Fe329     1.0  0.33968  0.72601  0.37832  1.0000
  S   S655      1.0  0.25221  0.59931  0.34053  1.0000
  H   H2925     1.0  0.39197  0.92798  0.20810  1.0000
  H   H2926     1.0  0.38715  0.79742  0.37730  1.0000
  C   C2444     1.0  0.37745  0.97672  0.32323  1.0000
  C   C2445     1.0  0.34998  0.92719  0.24752  1.0000
  H   H2927     1.0  0.39181  0.80272  0.36126  1.0000
  C   C2446     1.0  0.33048  0.79519  0.36854  1.0000
  H   H2928     1.0  0.41247  0.79570  0.35031  1.0000
  H   H2929     1.0  0.31635  0.76380  0.37890  1.0000
  H   H2930     1.0  0.37023  0.97240  0.32323  1.0000
  H   H2931     1.0  0.36899  0.66569  0.37697  1.0000
  C   C2447     1.0  0.36136  0.66152  0.37830  1.0000
  H   H2932     1.0  0.33538  0.98659  0.34170  1.0000
  C   C2448     1.0  0.39336  0.76917  0.35650  1.0000
  H   H2933     1.0  0.34018  0.62224  0.37799  1.0000
  H   H2934     1.0  0.48740  0.86461  0.34525  1.0000
  H   H2935     1.0  0.49294  0.88818  0.33045  1.0000
  H   H2936     1.0  0.26107  0.66938  0.36270  1.0000
  C   C2449     1.0  0.37162  0.89001  0.18278  1.0000
  H   H2937     1.0  0.38057  0.60517  0.37346  1.0000
  H   H2938     1.0  0.25395  0.64664  0.37953  1.0000
  C   C2450     1.0  0.38080  0.68387  0.38088  1.0000
  C   C2451     1.0  0.37448  0.98749  0.32761  1.0000
  C   C2452     1.0  0.41031  0.78680  0.38092  1.0000
  S   S656      1.0  0.41016  0.62812  0.38098  1.0000
  C   C2453     1.0  0.24821  0.65575  0.38099  1.0000
  H   H2939     1.0  0.41855  0.77917  0.38115  1.0000
  C   C2454     1.0  0.32532  0.75859  0.38118  1.0000
  Fe  Fe330     1.0  0.35390  0.62516  0.56704  1.0000
  C   C2455     1.0  0.29926  0.61265  0.56987  1.0000
  C   C2456     1.0  0.40943  0.62722  0.41398  1.0000
  Fe  Fe331     1.0  0.36100  0.62603  0.53948  1.0000
  S   S657      1.0  0.35707  0.60759  0.54164  1.0000
  S   S658      1.0  0.36698  0.63693  0.52046  1.0000
  Fe  Fe332     1.0  0.34022  0.61407  0.55510  1.0000
  S   S659      1.0  0.32228  0.60994  0.55535  1.0000
  Fe  Fe333     1.0  0.36642  0.60205  0.55741  1.0000
  S   S660      1.0  0.37861  0.58370  0.56267  1.0000
  S   S661      1.0  0.34346  0.63290  0.55192  1.0000
  S   S662      1.0  0.37194  0.62000  0.55427  1.0000
  S   S663      1.0  0.33103  0.72396  0.39830  1.0000
  Fe  Fe334     1.0  0.33904  0.64901  0.46360  1.0000
  S   S664      1.0  0.33635  0.63460  0.45558  1.0000
  S   S665      1.0  0.33154  0.64738  0.48400  1.0000
  Fe  Fe335     1.0  0.35152  0.66216  0.43885  1.0000
  S   S666      1.0  0.35005  0.64874  0.42882  1.0000
  S   S667      1.0  0.36154  0.67718  0.42813  1.0000
  Fe  Fe336     1.0  0.33099  0.65001  0.44033  1.0000
  S   S668      1.0  0.31469  0.65266  0.43210  1.0000
  Fe  Fe337     1.0  0.35563  0.63452  0.44484  1.0000
  S   S669      1.0  0.36843  0.61612  0.44448  1.0000
  S   S670      1.0  0.33192  0.66464  0.44917  1.0000
  S   S671      1.0  0.35881  0.64773  0.45400  1.0000
  N   N163      1.0  0.32886  0.76374  0.38979  1.0000
  H   H2940     1.0  0.48886  0.67967  0.38916  1.0000
  C   C2457     1.0  0.37495  0.61256  0.43002  1.0000
  C   C2458     1.0  0.37962  0.60025  0.42932  1.0000
  C   C2459     1.0  0.38506  0.59706  0.41798  1.0000
  C   C2460     1.0  0.38618  0.60618  0.40729  1.0000
  C   C2461     1.0  0.38161  0.61853  0.40796  1.0000
  C   C2462     1.0  0.37585  0.62172  0.41931  1.0000
  H   H2941     1.0  0.37898  0.59315  0.43756  1.0000
  H   H2942     1.0  0.38859  0.58752  0.41751  1.0000
  H   H2943     1.0  0.37545  0.68175  0.39008  1.0000
  H   H2944     1.0  0.37244  0.63125  0.41979  1.0000
  C   C2463     1.0  0.31579  0.64278  0.42257  1.0000
  C   C2464     1.0  0.32492  0.63205  0.42226  1.0000
  H   H2945     1.0  0.29909  0.60398  0.56816  1.0000
  C   C2465     1.0  0.26076  0.64687  0.40074  1.0000
  C   C2466     1.0  0.30799  0.63836  0.40718  1.0000
  C   C2467     1.0  0.30727  0.64582  0.41511  1.0000
  H   H2946     1.0  0.33148  0.62960  0.42807  1.0000
  H   H2947     1.0  0.34282  0.62253  0.39228  1.0000
  H   H2948     1.0  0.30144  0.64089  0.40139  1.0000
  H   H2949     1.0  0.30008  0.65399  0.41545  1.0000
  C   C2468     1.0  0.33949  0.71124  0.40692  1.0000
  C   C2469     1.0  0.33380  0.70528  0.41840  1.0000
  C   C2470     1.0  0.34050  0.69481  0.42506  1.0000
  C   C2471     1.0  0.35295  0.69047  0.42032  1.0000
  C   C2472     1.0  0.35868  0.69672  0.40904  1.0000
  C   C2473     1.0  0.35192  0.70695  0.40226  1.0000
  H   H2950     1.0  0.32419  0.70860  0.42207  1.0000
  H   H2951     1.0  0.33605  0.69012  0.43384  1.0000
  H   H2952     1.0  0.36835  0.69353  0.40549  1.0000
  H   H2953     1.0  0.35640  0.71164  0.39351  1.0000
  C   C2474     1.0  0.35756  0.63893  0.51012  1.0000
  C   C2475     1.0  0.34615  0.63559  0.51417  1.0000
  C   C2476     1.0  0.33819  0.63844  0.50610  1.0000
  C   C2477     1.0  0.34180  0.64409  0.49381  1.0000
  C   C2478     1.0  0.35336  0.64708  0.48965  1.0000
  C   C2479     1.0  0.36115  0.64465  0.49783  1.0000
  H   H2954     1.0  0.34337  0.63106  0.52359  1.0000
  H   H2955     1.0  0.32925  0.63615  0.50937  1.0000
  H   H2956     1.0  0.35618  0.65155  0.48021  1.0000
  H   H2957     1.0  0.36994  0.64730  0.49465  1.0000
  H   H2958     1.0  0.33024  0.58964  0.57442  1.0000
  C   C2480     1.0  0.30958  0.61783  0.56451  1.0000
  Fe  Fe338     1.0  0.30898  0.62904  0.38137  1.0000
  H   H2959     1.0  0.32548  0.57522  0.57966  1.0000
  H   H2960     1.0  0.34233  0.59978  0.39900  1.0000
  C   C2481     1.0  0.30968  0.62911  0.56665  1.0000
  H   H2961     1.0  0.30303  0.72273  0.40104  1.0000
  N   N164      1.0  0.35515  0.60809  0.38387  1.0000
  C   C2482     1.0  0.35632  0.55391  0.57540  1.0000
  H   H2962     1.0  0.40943  0.61752  0.41734  1.0000
  C   C2483     1.0  0.37034  0.57204  0.56684  1.0000
  C   C2484     1.0  0.35918  0.57401  0.56335  1.0000
  C   C2485     1.0  0.26889  0.66523  0.39565  1.0000
  H   H2963     1.0  0.44232  0.65868  0.38625  1.0000
  H   H2964     1.0  0.35582  0.58261  0.55756  1.0000
  N   N165      1.0  0.32477  0.66298  0.53275  1.0000
  C   C2486     1.0  0.33632  0.66299  0.52326  1.0000
  C   C2487     1.0  0.32009  0.65217  0.53294  1.0000
  C   C2488     1.0  0.31575  0.67427  0.52893  1.0000
  C   C2489     1.0  0.32638  0.66257  0.54508  1.0000
  C   C2490     1.0  0.31644  0.66154  0.55536  1.0000
  C   C2491     1.0  0.33769  0.66318  0.54731  1.0000
  C   C2492     1.0  0.31789  0.66062  0.56715  1.0000
  C   C2493     1.0  0.33904  0.66214  0.55917  1.0000
  C   C2494     1.0  0.32920  0.66076  0.56906  1.0000
  H   H2965     1.0  0.34359  0.65484  0.52579  1.0000
  H   H2966     1.0  0.33507  0.66263  0.51420  1.0000
  H   H2967     1.0  0.33991  0.67138  0.52180  1.0000
  H   H2968     1.0  0.32634  0.64346  0.53625  1.0000
  H   H2969     1.0  0.31930  0.65195  0.52367  1.0000
  H   H2970     1.0  0.31085  0.65196  0.53893  1.0000
  H   H2971     1.0  0.30653  0.67445  0.53509  1.0000
  H   H2972     1.0  0.31878  0.68259  0.52897  1.0000
  H   H2973     1.0  0.31457  0.67508  0.51953  1.0000
  H   H2974     1.0  0.30752  0.66120  0.55441  1.0000
  H   H2975     1.0  0.34581  0.66395  0.54015  1.0000
  H   H2976     1.0  0.44312  0.63205  0.39182  1.0000
  H   H2977     1.0  0.34789  0.66195  0.56079  1.0000
  H   H2978     1.0  0.33773  0.77748  0.39999  1.0000
  H   H2979     1.0  0.39223  0.63279  0.42604  1.0000
  C   C2495     1.0  0.31730  0.67346  0.40081  1.0000
  C   C2496     1.0  0.24747  0.67577  0.38361  1.0000
  H   H2980     1.0  0.30892  0.68006  0.42522  1.0000
  H   H2981     1.0  0.32116  0.76678  0.40811  1.0000
  C   C2497     1.0  0.34707  0.59914  0.38940  1.0000
  H   H2982     1.0  0.33932  0.74560  0.39608  1.0000
  H   H2983     1.0  0.27888  0.64519  0.42010  1.0000
  H   H2984     1.0  0.33707  0.69268  0.39088  1.0000
  H   H2985     1.0  0.31159  0.66965  0.40962  1.0000
  N   N166      1.0  0.42856  0.64817  0.38937  1.0000
  C   C2498     1.0  0.33814  0.79383  0.38627  1.0000
  H   H2986     1.0  0.37601  0.50735  0.55237  1.0000
  H   H2987     1.0  0.40570  0.76562  0.38533  1.0000
  C   C2499     1.0  0.31887  0.76370  0.40090  1.0000
  H   H2988     1.0  0.33954  0.60077  0.38454  1.0000
  H   H2989     1.0  0.26626  0.63317  0.41613  1.0000
  H   H2990     1.0  0.34372  0.56636  0.56466  1.0000
  H   H2991     1.0  0.27021  0.67407  0.39004  1.0000
  H   H2992     1.0  0.38336  0.55921  0.57684  1.0000
  H   H2993     1.0  0.49437  0.69262  0.38963  1.0000
  C   C2500     1.0  0.41883  0.64372  0.39957  1.0000
  H   H2994     1.0  0.41312  0.79505  0.38156  1.0000
  H   H2995     1.0  0.42608  0.62388  0.40107  1.0000
  H   H2996     1.0  0.36965  0.59720  0.39309  1.0000
  C   C2501     1.0  0.41896  0.63104  0.40456  1.0000
  C   C2502     1.0  0.31688  0.62747  0.40705  1.0000
  H   H2997     1.0  0.31029  0.65953  0.57492  1.0000
  C   C2503     1.0  0.39967  0.63580  0.41886  1.0000
  H   H2998     1.0  0.39507  0.57872  0.57848  1.0000
  H   H2999     1.0  0.31100  0.67828  0.39445  1.0000
  H   H3000     1.0  0.39158  0.65495  0.41793  1.0000
  C   C2504     1.0  0.39936  0.64827  0.41433  1.0000
  N   N167      1.0  0.35730  0.60711  0.48295  1.0000
  C   C2505     1.0  0.36978  0.59940  0.47990  1.0000
  C   C2506     1.0  0.34941  0.60437  0.47629  1.0000
  C   C2507     1.0  0.35831  0.62010  0.47830  1.0000
  C   C2508     1.0  0.35175  0.60510  0.49621  1.0000
  C   C2509     1.0  0.35823  0.59734  0.50524  1.0000
  C   C2510     1.0  0.33953  0.61123  0.50046  1.0000
  C   C2511     1.0  0.35269  0.59576  0.51769  1.0000
  C   C2512     1.0  0.33405  0.60946  0.51292  1.0000
  C   C2513     1.0  0.34063  0.60179  0.52152  1.0000
  H   H3001     1.0  0.36971  0.58947  0.48315  1.0000
  H   H3002     1.0  0.37349  0.60097  0.46981  1.0000
  H   H3003     1.0  0.37646  0.60166  0.48382  1.0000
  H   H3004     1.0  0.35362  0.60521  0.46636  1.0000
  H   H3005     1.0  0.34032  0.61081  0.47676  1.0000
  H   H3006     1.0  0.34781  0.59490  0.48002  1.0000
  H   H3007     1.0  0.36338  0.62283  0.48366  1.0000
  H   H3008     1.0  0.36319  0.62186  0.46854  1.0000
  H   H3009     1.0  0.34918  0.62643  0.47877  1.0000
  H   H3010     1.0  0.36764  0.59253  0.50296  1.0000
  H   H3011     1.0  0.33421  0.61770  0.49418  1.0000
  H   H3012     1.0  0.35783  0.58995  0.52446  1.0000
  H   H3013     1.0  0.32475  0.61432  0.51595  1.0000
  H   H3014     1.0  0.33642  0.60068  0.53120  1.0000
  H   H3015     1.0  0.25263  0.68274  0.38319  1.0000
  C   C2514     1.0  0.30432  0.71334  0.40622  1.0000
  H   H3016     1.0  0.36278  0.65284  0.39689  1.0000
  H   H3017     1.0  0.31702  0.75432  0.40498  1.0000
  H   H3018     1.0  0.33217  0.61582  0.41468  1.0000
  C   C2515     1.0  0.34020  0.75536  0.39321  1.0000
  H   H3019     1.0  0.41628  0.66431  0.38139  1.0000
  H   H3020     1.0  0.33046  0.65957  0.57826  1.0000
  H   H3021     1.0  0.31018  0.76992  0.39875  1.0000
  H   H3022     1.0  0.40792  0.66197  0.40150  1.0000
  C   C2516     1.0  0.40881  0.65219  0.40489  1.0000
  C   C2517     1.0  0.34768  0.64893  0.39219  1.0000
  H   H3023     1.0  0.32350  0.66551  0.39719  1.0000
  H   H3024     1.0  0.43851  0.65003  0.40166  1.0000
  H   H3025     1.0  0.34481  0.64337  0.40116  1.0000
  C   C2518     1.0  0.31300  0.70415  0.40099  1.0000
  C   C2519     1.0  0.32532  0.62428  0.41467  1.0000
  H   H3026     1.0  0.38254  0.62565  0.39976  1.0000
  H   H3027     1.0  0.35807  0.60710  0.40179  1.0000
  C   C2520     1.0  0.43466  0.65551  0.39356  1.0000
  H   H3028     1.0  0.35260  0.51352  0.57826  1.0000
  C   C2521     1.0  0.28932  0.61841  0.57781  1.0000
  H   H3029     1.0  0.31799  0.70703  0.39180  1.0000
  C   C2522     1.0  0.37358  0.49738  0.57156  1.0000
  N   N168      1.0  0.32418  0.68181  0.40235  1.0000
  S   S672      1.0  0.31753  0.61800  0.39725  1.0000
  C   C2523     1.0  0.33273  0.67479  0.41054  1.0000
  C   C2524     1.0  0.31528  0.69183  0.40767  1.0000
  C   C2525     1.0  0.30805  0.68928  0.41970  1.0000
  C   C2526     1.0  0.29943  0.69855  0.42485  1.0000
  C   C2527     1.0  0.29760  0.71057  0.41813  1.0000
  C   C2528     1.0  0.35232  0.56482  0.56739  1.0000
  S   S673      1.0  0.34921  0.60676  0.57111  1.0000
  C   C2529     1.0  0.37647  0.48868  0.55365  1.0000
  H   H3030     1.0  0.33836  0.68067  0.41153  1.0000
  H   H3031     1.0  0.33919  0.66693  0.40698  1.0000
  H   H3032     1.0  0.32801  0.67086  0.41983  1.0000
  H   H3033     1.0  0.31761  0.63315  0.56259  1.0000
  H   H3034     1.0  0.29417  0.69635  0.43410  1.0000
  H   H3035     1.0  0.29100  0.71776  0.42218  1.0000
  C   C2530     1.0  0.27396  0.64896  0.41273  1.0000
  S   S674      1.0  0.39313  0.60187  0.39323  1.0000
  C   C2531     1.0  0.33190  0.68612  0.39027  1.0000
  C   C2532     1.0  0.27496  0.66045  0.40534  1.0000
  H   H3036     1.0  0.42821  0.66388  0.39618  1.0000
  H   H3037     1.0  0.33326  0.64692  0.38509  1.0000
  H   H3038     1.0  0.28072  0.66560  0.40692  1.0000
  C   C2533     1.0  0.26684  0.64221  0.41046  1.0000
  C   C2534     1.0  0.33571  0.78209  0.39114  1.0000
  H   H3039     1.0  0.35242  0.58959  0.38947  1.0000
  H   H3040     1.0  0.34251  0.75732  0.40105  1.0000
  C   C2535     1.0  0.33091  0.77637  0.38464  1.0000
  H   H3041     1.0  0.32424  0.74895  0.38513  1.0000
  H   H3042     1.0  0.31445  0.58917  0.58090  1.0000
  S   S675      1.0  0.29009  0.64086  0.38230  1.0000
  H   H3043     1.0  0.25566  0.64100  0.39937  1.0000
  S   S676      1.0  0.39082  0.65955  0.38450  1.0000
  C   C2536     1.0  0.43825  0.63816  0.38464  1.0000
  C   C2537     1.0  0.28942  0.62966  0.57999  1.0000
  C   C2538     1.0  0.26168  0.65856  0.39295  1.0000
  C   C2539     1.0  0.37466  0.56083  0.57426  1.0000
  N   N169      1.0  0.37209  0.50776  0.57732  1.0000
  H   H3044     1.0  0.25281  0.64474  0.58033  1.0000
  H   H3045     1.0  0.40309  0.78475  0.38926  1.0000
  H   H3046     1.0  0.36778  0.52288  0.56240  1.0000
  H   H3047     1.0  0.33878  0.67840  0.38679  1.0000
  H   H3048     1.0  0.34216  0.79790  0.39118  1.0000
  C   C2540     1.0  0.37542  0.49869  0.55871  1.0000
  C   C2541     1.0  0.36332  0.60638  0.39235  1.0000
  H   H3049     1.0  0.29966  0.64372  0.57602  1.0000
  C   C2542     1.0  0.37454  0.51920  0.56843  1.0000
  H   H3050     1.0  0.36889  0.61355  0.38940  1.0000
  H   H3051     1.0  0.37786  0.48985  0.54384  1.0000
  H   H3052     1.0  0.37356  0.52673  0.57312  1.0000
  H   H3053     1.0  0.32634  0.69057  0.38322  1.0000
  C   C2543     1.0  0.36752  0.55192  0.57879  1.0000
  N   N170      1.0  0.25570  0.66370  0.38234  1.0000
  H   H3054     1.0  0.34822  0.75598  0.38541  1.0000
  C   C2544     1.0  0.35772  0.65428  0.38981  1.0000
  H   H3055     1.0  0.39896  0.74875  0.38246  1.0000
  H   H3056     1.0  0.38401  0.51776  0.56272  1.0000
  C   C2545     1.0  0.34752  0.62067  0.38308  1.0000
  C   C2546     1.0  0.29949  0.63514  0.57419  1.0000
  C   C2547     1.0  0.34123  0.65090  0.38306  1.0000
  H   H3057     1.0  0.34691  0.49321  0.61190  1.0000
  H   H3058     1.0  0.32374  0.57286  0.66101  1.0000
  S   S677      1.0  0.36561  0.52693  0.60741  1.0000
  Fe  Fe339     1.0  0.35599  0.51245  0.62012  1.0000
  Fe  Fe340     1.0  0.24865  0.61190  0.62091  1.0000
  C   C2548     1.0  0.32775  0.49278  0.64043  1.0000
  Fe  Fe341     1.0  0.35754  0.53770  0.62208  1.0000
  S   S678      1.0  0.36847  0.54984  0.62452  1.0000
  H   H3059     1.0  0.37454  0.62311  0.58464  1.0000
  C   C2549     1.0  0.34127  0.59759  0.62410  1.0000
  S   S679      1.0  0.34945  0.52252  0.63555  1.0000
  C   C2550     1.0  0.35839  0.67690  0.77884  1.0000
  Fe  Fe342     1.0  0.27264  0.59417  0.61375  1.0000
  S   S680      1.0  0.28422  0.60594  0.61549  1.0000
  S   S681      1.0  0.28115  0.57715  0.60629  1.0000
  S   S682      1.0  0.25820  0.62517  0.62369  1.0000
  Fe  Fe343     1.0  0.27120  0.62146  0.60622  1.0000
  H   H3060     1.0  0.30945  0.49518  0.63808  1.0000
  Fe  Fe344     1.0  0.27043  0.60856  0.63276  1.0000
  S   S683      1.0  0.27682  0.60575  0.65027  1.0000
  S   S684      1.0  0.26085  0.60943  0.60287  1.0000
  S   S685      1.0  0.25962  0.59549  0.63172  1.0000
  Fe  Fe345     1.0  0.34926  0.59347  0.66592  1.0000
  S   S686      1.0  0.36686  0.59914  0.66410  1.0000
  S   S687      1.0  0.34599  0.57428  0.67039  1.0000
  Fe  Fe346     1.0  0.33513  0.61963  0.65916  1.0000
  S   S688      1.0  0.35148  0.62768  0.65694  1.0000
  S   S689      1.0  0.31730  0.63139  0.65434  1.0000
  Fe  Fe347     1.0  0.36189  0.61249  0.64706  1.0000
  S   S690      1.0  0.37471  0.61471  0.62838  1.0000
  Fe  Fe348     1.0  0.35512  0.61387  0.67427  1.0000
  S   S691      1.0  0.35755  0.61679  0.69235  1.0000
  S   S692      1.0  0.34536  0.60550  0.64828  1.0000
  S   S693      1.0  0.33770  0.60712  0.67710  1.0000
  Fe  Fe349     1.0  0.38809  0.63857  0.73585  1.0000
  S   S694      1.0  0.37124  0.64536  0.74934  1.0000
  S   S695      1.0  0.38880  0.63919  0.71571  1.0000
  Fe  Fe350     1.0  0.40447  0.63098  0.75512  1.0000
  S   S696      1.0  0.38864  0.63656  0.77000  1.0000
  S   S697      1.0  0.42351  0.62156  0.75902  1.0000
  Fe  Fe351     1.0  0.37792  0.62813  0.76230  1.0000
  H   H3061     1.0  0.25373  0.57891  0.61924  1.0000
  Fe  Fe352     1.0  0.38346  0.65328  0.75584  1.0000
  S   S698      1.0  0.37844  0.67196  0.76058  1.0000
  S   S699      1.0  0.39411  0.62085  0.74868  1.0000
  S   S700      1.0  0.39993  0.64822  0.74113  1.0000
  C   C2551     1.0  0.32005  0.61995  0.60005  1.0000
  C   C2552     1.0  0.43050  0.62667  0.76810  1.0000
  H   H3062     1.0  0.31925  0.56697  0.60226  1.0000
  H   H3063     1.0  0.38153  0.56243  0.59923  1.0000
  C   C2553     1.0  0.33365  0.60029  0.59825  1.0000
  H   H3064     1.0  0.26372  0.56287  0.61041  1.0000
  C   C2554     1.0  0.42615  0.63829  0.77090  1.0000
  H   H3065     1.0  0.40481  0.58133  0.58679  1.0000
  H   H3066     1.0  0.33899  0.61559  0.60089  1.0000
  H   H3067     1.0  0.24543  0.59384  0.59584  1.0000
  H   H3068     1.0  0.41851  0.64452  0.76728  1.0000
  H   H3069     1.0  0.37271  0.59580  0.60013  1.0000
  H   H3070     1.0  0.31854  0.62920  0.60135  1.0000
  C   C2555     1.0  0.32355  0.65678  0.70354  1.0000
  C   C2556     1.0  0.38927  0.58568  0.61584  1.0000
  H   H3071     1.0  0.32727  0.61273  0.62958  1.0000
  C   C2557     1.0  0.38111  0.59277  0.59335  1.0000
  H   H3072     1.0  0.30784  0.58075  0.60282  1.0000
  H   H3073     1.0  0.30176  0.68200  0.70959  1.0000
  Fe  Fe353     1.0  0.34782  0.53500  0.60142  1.0000
  H   H3074     1.0  0.44408  0.60981  0.77061  1.0000
  C   C2558     1.0  0.37755  0.57242  0.59829  1.0000
  H   H3075     1.0  0.38808  0.60050  0.76949  1.0000
  C   C2559     1.0  0.36645  0.62311  0.69852  1.0000
  C   C2560     1.0  0.37561  0.62932  0.69122  1.0000
  C   C2561     1.0  0.38226  0.63424  0.69662  1.0000
  C   C2562     1.0  0.37988  0.63303  0.70939  1.0000
  C   C2563     1.0  0.37072  0.62681  0.71669  1.0000
  C   C2564     1.0  0.36406  0.62193  0.71129  1.0000
  H   H3076     1.0  0.37759  0.63035  0.68140  1.0000
  H   H3077     1.0  0.38930  0.63902  0.69084  1.0000
  H   H3078     1.0  0.36879  0.62573  0.72652  1.0000
  H   H3079     1.0  0.35702  0.61714  0.71708  1.0000
  C   C2565     1.0  0.36763  0.62063  0.61565  1.0000
  C   C2566     1.0  0.37464  0.61980  0.60386  1.0000
  C   C2567     1.0  0.33887  0.57605  0.59429  1.0000
  H   H3080     1.0  0.33159  0.65104  0.70679  1.0000
  S   S701      1.0  0.27755  0.63637  0.59078  1.0000
  C   C2568     1.0  0.30269  0.67226  0.69592  1.0000
  H   H3081     1.0  0.34967  0.62705  0.62608  1.0000
  H   H3082     1.0  0.30155  0.62177  0.59878  1.0000
  H   H3083     1.0  0.33153  0.62417  0.69358  1.0000
  C   C2569     1.0  0.39907  0.56129  0.62561  1.0000
  H   H3084     1.0  0.29894  0.58914  0.64425  1.0000
  H   H3085     1.0  0.32165  0.65073  0.67063  1.0000
  H   H3086     1.0  0.31256  0.60021  0.64133  1.0000
  C   C2570     1.0  0.28839  0.61279  0.65086  1.0000
  C   C2571     1.0  0.29413  0.60840  0.66087  1.0000
  C   C2572     1.0  0.30346  0.61364  0.66165  1.0000
  C   C2573     1.0  0.30678  0.62366  0.65266  1.0000
  C   C2574     1.0  0.30100  0.62810  0.64266  1.0000
  C   C2575     1.0  0.29200  0.62254  0.64163  1.0000
  H   H3087     1.0  0.29135  0.60091  0.66807  1.0000
  H   H3088     1.0  0.30776  0.61021  0.66944  1.0000
  H   H3089     1.0  0.30347  0.63590  0.63572  1.0000
  H   H3090     1.0  0.28763  0.62601  0.63389  1.0000
  C   C2576     1.0  0.30435  0.54665  0.62985  1.0000
  C   C2577     1.0  0.30633  0.54727  0.61732  1.0000
  C   C2578     1.0  0.29884  0.55641  0.61025  1.0000
  C   C2579     1.0  0.28976  0.56532  0.61556  1.0000
  C   C2580     1.0  0.28782  0.56477  0.62808  1.0000
  C   C2581     1.0  0.29493  0.55526  0.63527  1.0000
  H   H3091     1.0  0.31356  0.54062  0.61308  1.0000
  H   H3092     1.0  0.30034  0.55679  0.60057  1.0000
  H   H3093     1.0  0.28076  0.57157  0.63226  1.0000
  H   H3094     1.0  0.30841  0.57008  0.66521  1.0000
  C   C2582     1.0  0.31759  0.57657  0.60336  1.0000
  H   H3095     1.0  0.34504  0.63807  0.67799  1.0000
  C   C2583     1.0  0.36261  0.55601  0.63770  1.0000
  C   C2584     1.0  0.35420  0.55090  0.64759  1.0000
  C   C2585     1.0  0.34930  0.55638  0.65777  1.0000
  C   C2586     1.0  0.35262  0.56709  0.65796  1.0000
  C   C2587     1.0  0.36104  0.57214  0.64808  1.0000
  C   C2588     1.0  0.36609  0.56652  0.63806  1.0000
  H   H3096     1.0  0.35152  0.54272  0.64742  1.0000
  H   H3097     1.0  0.34286  0.55240  0.66546  1.0000
  H   H3098     1.0  0.36366  0.58039  0.64816  1.0000
  H   H3099     1.0  0.37238  0.57062  0.63040  1.0000
  H   H3100     1.0  0.24760  0.66300  0.58906  1.0000
  H   H3101     1.0  0.25818  0.58126  0.59719  1.0000
  H   H3102     1.0  0.34283  0.59489  0.59825  1.0000
  C   C2589     1.0  0.35660  0.62938  0.59513  1.0000
  S   S702      1.0  0.31389  0.53541  0.63868  1.0000
  H   H3103     1.0  0.30546  0.66135  0.68309  1.0000
  H   H3104     1.0  0.35336  0.58092  0.62013  1.0000
  H   H3105     1.0  0.40254  0.55179  0.62959  1.0000
  Fe  Fe354     1.0  0.33286  0.53100  0.62726  1.0000
  N   N171      1.0  0.31552  0.57515  0.64577  1.0000
  C   C2590     1.0  0.32399  0.58440  0.58174  1.0000
  H   H3106     1.0  0.26982  0.54075  0.61276  1.0000
  H   H3107     1.0  0.38441  0.61605  0.60260  1.0000
  H   H3108     1.0  0.31262  0.55658  0.65110  1.0000
  H   H3109     1.0  0.33230  0.63178  0.70453  1.0000
  C   C2591     1.0  0.32119  0.59567  0.63652  1.0000
  C   C2592     1.0  0.39569  0.56437  0.61431  1.0000
  H   H3110     1.0  0.25471  0.52855  0.61419  1.0000
  C   C2593     1.0  0.31973  0.65438  0.69396  1.0000
  C   C2594     1.0  0.31054  0.61576  0.59850  1.0000
  H   H3111     1.0  0.33898  0.56800  0.63126  1.0000
  C   C2595     1.0  0.32424  0.59585  0.59624  1.0000
  H   H3112     1.0  0.37076  0.54349  0.58482  1.0000
  H   H3113     1.0  0.37001  0.57346  0.60643  1.0000
  C   C2596     1.0  0.32962  0.60295  0.62983  1.0000
  C   C2597     1.0  0.36908  0.62385  0.59368  1.0000
  H   H3114     1.0  0.35787  0.51804  0.58916  1.0000
  C   C2598     1.0  0.31712  0.66664  0.70908  1.0000
  C   C2599     1.0  0.30318  0.57972  0.64279  1.0000
  H   H3115     1.0  0.32712  0.63461  0.67431  1.0000
  H   H3116     1.0  0.31853  0.57619  0.61272  1.0000
  H   H3117     1.0  0.29459  0.67830  0.69298  1.0000
  H   H3118     1.0  0.39672  0.55697  0.60987  1.0000
  N   N172      1.0  0.42311  0.61691  0.71593  1.0000
  C   C2600     1.0  0.42272  0.62460  0.70347  1.0000
  C   C2601     1.0  0.42078  0.62529  0.72431  1.0000
  C   C2602     1.0  0.43570  0.60924  0.71558  1.0000
  C   C2603     1.0  0.41399  0.60898  0.72044  1.0000
  C   C2604     1.0  0.41356  0.60070  0.73198  1.0000
  C   C2605     1.0  0.40517  0.60939  0.71378  1.0000
  C   C2606     1.0  0.40480  0.59340  0.73661  1.0000
  C   C2607     1.0  0.39644  0.60206  0.71850  1.0000
  C   C2608     1.0  0.39623  0.59412  0.72989  1.0000
  H   H3119     1.0  0.41369  0.63115  0.70326  1.0000
  H   H3120     1.0  0.42975  0.63034  0.70029  1.0000
  H   H3121     1.0  0.42442  0.61888  0.69665  1.0000
  H   H3122     1.0  0.41134  0.63108  0.72488  1.0000
  H   H3123     1.0  0.42728  0.63160  0.72119  1.0000
  H   H3124     1.0  0.42166  0.62032  0.73377  1.0000
  H   H3125     1.0  0.44282  0.61488  0.71160  1.0000
  H   H3126     1.0  0.43726  0.60432  0.72484  1.0000
  H   H3127     1.0  0.43751  0.60226  0.70999  1.0000
  H   H3128     1.0  0.41975  0.60011  0.73771  1.0000
  H   H3129     1.0  0.40451  0.61558  0.70507  1.0000
  H   H3130     1.0  0.40446  0.58738  0.74557  1.0000
  H   H3131     1.0  0.38959  0.60281  0.71339  1.0000
  H   H3132     1.0  0.38928  0.58865  0.73359  1.0000
  H   H3133     1.0  0.32057  0.56077  0.63566  1.0000
  C   C2609     1.0  0.31261  0.60397  0.59640  1.0000
  H   H3134     1.0  0.39129  0.58956  0.63220  1.0000
  C   C2610     1.0  0.30906  0.66243  0.69029  1.0000
  C   C2611     1.0  0.32699  0.63234  0.69766  1.0000
  C   C2612     1.0  0.33956  0.64550  0.68281  1.0000
  H   H3135     1.0  0.31214  0.64092  0.68182  1.0000
  H   H3136     1.0  0.31754  0.63124  0.70257  1.0000
  C   C2613     1.0  0.32411  0.58278  0.63752  1.0000
  C   C2614     1.0  0.31945  0.56199  0.64509  1.0000
  C   C2615     1.0  0.34971  0.63072  0.60684  1.0000
  C   C2616     1.0  0.33586  0.57770  0.63103  1.0000
  H   H3137     1.0  0.32820  0.55759  0.64822  1.0000
  C   C2617     1.0  0.39270  0.58251  0.62711  1.0000
  C   C2618     1.0  0.32163  0.64259  0.67837  1.0000
  N   N173      1.0  0.32677  0.64392  0.68823  1.0000
  H   H3138     1.0  0.32657  0.50226  0.64094  1.0000
  S   S703      1.0  0.34044  0.54696  0.61506  1.0000
  H   H3139     1.0  0.29657  0.57401  0.64870  1.0000
  H   H3140     1.0  0.32027  0.66829  0.71635  1.0000
  S   S704      1.0  0.36455  0.61698  0.77472  1.0000
  H   H3141     1.0  0.34110  0.57463  0.60335  1.0000
  H   H3142     1.0  0.34466  0.64511  0.68980  1.0000
  C   C2619     1.0  0.25677  0.55799  0.61106  1.0000
  C   C2620     1.0  0.31455  0.57588  0.65854  1.0000
  H   H3143     1.0  0.33999  0.56678  0.59258  1.0000
  H   H3144     1.0  0.34801  0.60317  0.61944  1.0000
  H   H3145     1.0  0.31084  0.58540  0.66000  1.0000
  H   H3146     1.0  0.30504  0.60129  0.59479  1.0000
  H   H3147     1.0  0.30358  0.57983  0.63310  1.0000
  H   H3148     1.0  0.25091  0.64134  0.60109  1.0000
  H   H3149     1.0  0.38533  0.59522  0.61281  1.0000
  C   C2621     1.0  0.33157  0.61225  0.59984  1.0000
  H   H3150     1.0  0.35302  0.67778  0.77223  1.0000
  H   H3151     1.0  0.33979  0.65438  0.67609  1.0000
  C   C2622     1.0  0.39061  0.57667  0.60909  1.0000
  C   C2623     1.0  0.39755  0.57035  0.63201  1.0000
  C   C2624     1.0  0.34428  0.58505  0.62450  1.0000
  C   C2625     1.0  0.35513  0.62612  0.61709  1.0000
  C   C2626     1.0  0.30671  0.67436  0.70528  1.0000
  S   S705      1.0  0.33863  0.51968  0.61296  1.0000
  N   N174      1.0  0.38674  0.57960  0.59730  1.0000
  H   H3152     1.0  0.29328  0.55470  0.64499  1.0000
  H   H3153     1.0  0.34009  0.63518  0.60802  1.0000
  H   H3154     1.0  0.39989  0.56793  0.64090  1.0000
  C   C2627     1.0  0.44058  0.61880  0.77276  1.0000
  N   N175      1.0  0.32623  0.58343  0.59396  1.0000
  C   C2628     1.0  0.31813  0.48876  0.63879  1.0000
  C   C2629     1.0  0.37120  0.67351  0.77569  1.0000
  H   H3155     1.0  0.38770  0.59871  0.59190  1.0000
  C   C2630     1.0  0.26037  0.54527  0.61237  1.0000
  S   S706      1.0  0.36722  0.49304  0.62227  1.0000
  H   H3156     1.0  0.37793  0.49746  0.59415  1.0000
  H   H3157     1.0  0.42863  0.65118  0.77992  1.0000
  H   H3158     1.0  0.37337  0.57537  0.59012  1.0000
  H   H3159     1.0  0.28159  0.61412  0.58224  1.0000
  H   H3160     1.0  0.34585  0.58040  0.58704  1.0000
  C   C2631     1.0  0.25188  0.53842  0.61318  1.0000
  H   H3161     1.0  0.35679  0.50253  0.59139  1.0000
  H   H3162     1.0  0.24676  0.58085  0.58957  1.0000
  C   C2632     1.0  0.24814  0.58366  0.59744  1.0000
  H   H3163     1.0  0.34645  0.48784  0.64246  1.0000
  C   C2633     1.0  0.39755  0.57634  0.58758  1.0000
  H   H3164     1.0  0.40170  0.56637  0.58930  1.0000
  C   C2634     1.0  0.44609  0.62242  0.78029  1.0000
  S   S707      1.0  0.34939  0.63521  0.58249  1.0000
  C   C2635     1.0  0.38386  0.59778  0.77902  1.0000
  H   H3165     1.0  0.35785  0.64038  0.78027  1.0000
  C   C2636     1.0  0.43188  0.64204  0.77812  1.0000
  H   H3166     1.0  0.37827  0.59466  0.58446  1.0000
  H   H3167     1.0  0.38070  0.51246  0.58931  1.0000
  C   C2637     1.0  0.38059  0.50446  0.58583  1.0000
  C   C2638     1.0  0.35930  0.51055  0.58434  1.0000
  S   S708      1.0  0.34691  0.54318  0.58175  1.0000
  H   H3168     1.0  0.36648  0.70299  0.77989  1.0000
  H   H3169     1.0  0.39017  0.50084  0.58126  1.0000
  Fe  Fe355     1.0  0.37089  0.75882  0.88389  1.0000
  S   S709      1.0  0.38193  0.76795  0.86653  1.0000
  S   S710      1.0  0.37050  0.73859  0.88661  1.0000
  Fe  Fe356     1.0  0.36330  0.78241  0.89430  1.0000
  S   S711      1.0  0.37344  0.79320  0.87736  1.0000
  S   S712      1.0  0.35203  0.79348  0.90857  1.0000
  Fe  Fe357     1.0  0.36599  0.78392  0.86729  1.0000
  S   S713      1.0  0.35975  0.79268  0.84972  1.0000
  Fe  Fe358     1.0  0.38834  0.77628  0.87830  1.0000
  S   S714      1.0  0.40815  0.77732  0.87427  1.0000
  S   S715      1.0  0.35439  0.77448  0.88401  1.0000
  S   S716      1.0  0.37879  0.76582  0.89590  1.0000
  Fe  Fe359     1.0  0.37264  0.82904  0.94588  1.0000
  S   S717      1.0  0.38059  0.84223  0.92964  1.0000
  S   S718      1.0  0.37707  0.80971  0.94248  1.0000
  Fe  Fe360     1.0  0.36490  0.84810  0.96234  1.0000
  S   S719      1.0  0.37224  0.86247  0.94692  1.0000
  H   H3170     1.0  0.37688  0.81371  0.89564  1.0000
  Fe  Fe361     1.0  0.36368  0.85597  0.93535  1.0000
  S   S720      1.0  0.35543  0.86923  0.92010  1.0000
  Fe  Fe362     1.0  0.38834  0.84733  0.94271  1.0000
  S   S721      1.0  0.40779  0.84921  0.93974  1.0000
  S   S722      1.0  0.35499  0.84255  0.95095  1.0000
  S   S723      1.0  0.38169  0.83322  0.95879  1.0000
  Fe  Fe363     1.0  0.31667  0.85137  0.85827  1.0000
  S   S724      1.0  0.31732  0.86978  0.84588  1.0000
  S   S725      1.0  0.31352  0.83639  0.85152  1.0000
  Fe  Fe364     1.0  0.31868  0.85941  0.88018  1.0000
  S   S726      1.0  0.31910  0.87879  0.86988  1.0000
  S   S727      1.0  0.31994  0.85065  0.89972  1.0000
  Fe  Fe365     1.0  0.30425  0.87701  0.86167  1.0000
  S   S728      1.0  0.28671  0.89114  0.85974  1.0000
  Fe  Fe366     1.0  0.33210  0.86986  0.85499  1.0000
  S   S729      1.0  0.34975  0.87524  0.84378  1.0000
  S   S730      1.0  0.30259  0.85847  0.87349  1.0000
  S   S731      1.0  0.33272  0.85064  0.86586  1.0000
  Fe  Fe367     1.0  0.42374  0.84128  0.85393  1.0000
  S   S732      1.0  0.41653  0.86124  0.84683  1.0000
  S   S733      1.0  0.42322  0.82721  0.84414  1.0000
  Fe  Fe368     1.0  0.43188  0.84631  0.87449  1.0000
  S   S734      1.0  0.42508  0.86664  0.86941  1.0000
  S   S735      1.0  0.44165  0.83784  0.88990  1.0000
  Fe  Fe369     1.0  0.40867  0.86164  0.86662  1.0000
  S   S736      1.0  0.38904  0.86950  0.87481  1.0000
  Fe  Fe370     1.0  0.43365  0.86432  0.85017  1.0000
  S   S737      1.0  0.44651  0.87519  0.83573  1.0000
  S   S738      1.0  0.41485  0.84141  0.87350  1.0000
  S   S739      1.0  0.44156  0.84419  0.85553  1.0000
  C   C2639     1.0  0.25104  0.86131  0.85794  1.0000
  H   H3171     1.0  0.42104  0.86837  0.95974  1.0000
  S   S740      1.0  0.32881  0.51655  0.84706  1.0000
  H   H3172     1.0  0.35969  0.92169  0.88232  1.0000
  Fe  Fe371     1.0  0.45859  0.62874  0.80730  1.0000
  S   S741      1.0  0.44604  0.62077  0.82408  1.0000
  Fe  Fe372     1.0  0.48024  0.62072  0.82101  1.0000
  S   S742      1.0  0.46885  0.61181  0.83838  1.0000
  Fe  Fe373     1.0  0.46158  0.60473  0.82614  1.0000
  S   S743      1.0  0.45730  0.58615  0.82904  1.0000
  Fe  Fe374     1.0  0.45442  0.62874  0.83442  1.0000
  S   S744      1.0  0.44246  0.63830  0.84917  1.0000
  S   S745      1.0  0.47414  0.61218  0.80880  1.0000
  S   S746      1.0  0.46602  0.63809  0.81764  1.0000
  Fe  Fe375     1.0  0.36600  0.58787  0.84601  1.0000
  S   S747      1.0  0.38530  0.58838  0.83623  1.0000
  S   S748      1.0  0.35376  0.60691  0.84478  1.0000
  Fe  Fe376     1.0  0.37138  0.55958  0.85214  1.0000
  S   S749      1.0  0.39146  0.55840  0.84317  1.0000
  S   S750      1.0  0.36584  0.54094  0.85986  1.0000
  Fe  Fe377     1.0  0.39065  0.57376  0.85188  1.0000
  S   S751      1.0  0.40484  0.57723  0.85991  1.0000
  Fe  Fe378     1.0  0.38439  0.57323  0.82834  1.0000
  S   S752      1.0  0.39292  0.57275  0.80865  1.0000
  S   S753      1.0  0.37116  0.57379  0.86242  1.0000
  S   S754      1.0  0.36445  0.57374  0.83668  1.0000
  Fe  Fe379     1.0  0.38593  0.68123  0.83348  1.0000
  S   S755      1.0  0.37775  0.67999  0.85340  1.0000
  S   S756      1.0  0.40536  0.68288  0.82512  1.0000
  Fe  Fe380     1.0  0.36187  0.68227  0.82704  1.0000
  S   S757      1.0  0.35153  0.68167  0.84650  1.0000
  S   S758      1.0  0.35144  0.68266  0.81303  1.0000
  Fe  Fe381     1.0  0.36244  0.69501  0.84703  1.0000
  S   S759      1.0  0.35537  0.71428  0.85099  1.0000
  Fe  Fe382     1.0  0.36780  0.66678  0.85091  1.0000
  S   S760      1.0  0.36789  0.64767  0.86268  1.0000
  S   S761      1.0  0.37133  0.69672  0.82708  1.0000
  S   S762      1.0  0.37744  0.66688  0.83145  1.0000
  C   C2640     1.0  0.37310  0.59095  0.80375  1.0000
  S   S763      1.0  0.47720  0.90599  0.84877  1.0000
  C   C2641     1.0  0.35824  0.61816  0.84936  1.0000
  C   C2642     1.0  0.35350  0.63067  0.84508  1.0000
  C   C2643     1.0  0.35678  0.63980  0.84870  1.0000
  C   C2644     1.0  0.36436  0.63648  0.85713  1.0000
  C   C2645     1.0  0.36897  0.62397  0.86152  1.0000
  C   C2646     1.0  0.36618  0.61486  0.85744  1.0000
  H   H3173     1.0  0.34707  0.63333  0.83913  1.0000
  H   H3174     1.0  0.35301  0.64939  0.84539  1.0000
  H   H3175     1.0  0.37464  0.62128  0.86823  1.0000
  H   H3176     1.0  0.36977  0.60527  0.86093  1.0000
  C   C2647     1.0  0.43188  0.65048  0.84261  1.0000
  C   C2648     1.0  0.42144  0.65624  0.85001  1.0000
  C   C2649     1.0  0.41307  0.66607  0.84466  1.0000
  C   C2650     1.0  0.41542  0.67040  0.83198  1.0000
  C   C2651     1.0  0.42587  0.66468  0.82463  1.0000
  C   C2652     1.0  0.43391  0.65454  0.82992  1.0000
  H   H3177     1.0  0.41978  0.65302  0.85983  1.0000
  H   H3178     1.0  0.40493  0.67039  0.85038  1.0000
  H   H3179     1.0  0.42759  0.66786  0.81480  1.0000
  H   H3180     1.0  0.44176  0.65003  0.82411  1.0000
  C   C2653     1.0  0.44222  0.58478  0.83707  1.0000
  C   C2654     1.0  0.43797  0.58677  0.84897  1.0000
  C   C2655     1.0  0.42648  0.58447  0.85580  1.0000
  C   C2656     1.0  0.41902  0.58035  0.85075  1.0000
  C   C2657     1.0  0.42307  0.57872  0.83869  1.0000
  C   C2658     1.0  0.43472  0.58077  0.83193  1.0000
  H   H3181     1.0  0.44374  0.58968  0.85307  1.0000
  H   H3182     1.0  0.42344  0.58569  0.86512  1.0000
  H   H3183     1.0  0.41743  0.57545  0.83475  1.0000
  H   H3184     1.0  0.43802  0.57904  0.82280  1.0000
  H   H3185     1.0  0.32496  0.62177  0.79458  1.0000
  H   H3186     1.0  0.36277  0.65173  0.78411  1.0000
  H   H3187     1.0  0.34441  0.70300  0.82609  1.0000
  H   H3188     1.0  0.28811  0.85559  0.85227  1.0000
  H   H3189     1.0  0.34758  0.71641  0.82844  1.0000
  H   H3190     1.0  0.40394  0.65983  0.81976  1.0000
  C   C2659     1.0  0.35268  0.90161  0.85739  1.0000
  H   H3191     1.0  0.36899  0.58861  0.81333  1.0000
  H   H3192     1.0  0.42680  0.62820  0.80714  1.0000
  C   C2660     1.0  0.33994  0.52306  0.84962  1.0000
  C   C2661     1.0  0.34981  0.51587  0.85485  1.0000
  C   C2662     1.0  0.35796  0.52148  0.85743  1.0000
  C   C2663     1.0  0.35643  0.53433  0.85474  1.0000
  C   C2664     1.0  0.34683  0.54151  0.84909  1.0000
  C   C2665     1.0  0.33859  0.53591  0.84665  1.0000
  H   H3193     1.0  0.35099  0.50599  0.85718  1.0000
  H   H3194     1.0  0.36537  0.51581  0.86175  1.0000
  H   H3195     1.0  0.34544  0.55140  0.84706  1.0000
  H   H3196     1.0  0.33099  0.54157  0.84260  1.0000
  C   C2666     1.0  0.45452  0.88427  0.83932  1.0000
  C   C2667     1.0  0.45107  0.88783  0.85054  1.0000
  C   C2668     1.0  0.45792  0.89477  0.85317  1.0000
  C   C2669     1.0  0.46862  0.89764  0.84491  1.0000
  C   C2670     1.0  0.47216  0.89394  0.83376  1.0000
  C   C2671     1.0  0.46494  0.88757  0.83085  1.0000
  H   H3197     1.0  0.44297  0.88547  0.85706  1.0000
  H   H3198     1.0  0.45495  0.89792  0.86165  1.0000
  H   H3199     1.0  0.48026  0.89631  0.82723  1.0000
  H   H3200     1.0  0.46754  0.88504  0.82206  1.0000
  C   C2672     1.0  0.27871  0.88964  0.84950  1.0000
  C   C2673     1.0  0.26587  0.89308  0.85191  1.0000
  C   C2674     1.0  0.25925  0.89174  0.84402  1.0000
  C   C2675     1.0  0.26545  0.88705  0.83360  1.0000
  C   C2676     1.0  0.27831  0.88376  0.83110  1.0000
  C   C2677     1.0  0.28493  0.88501  0.83904  1.0000
  H   H3201     1.0  0.26100  0.89655  0.86005  1.0000
  H   H3202     1.0  0.28319  0.88012  0.82305  1.0000
  H   H3203     1.0  0.29484  0.88245  0.83702  1.0000
  C   C2678     1.0  0.36066  0.87355  0.85242  1.0000
  C   C2679     1.0  0.37263  0.87490  0.84646  1.0000
  C   C2680     1.0  0.38143  0.87363  0.85325  1.0000
  C   C2681     1.0  0.37821  0.87124  0.86602  1.0000
  C   C2682     1.0  0.36613  0.87025  0.87194  1.0000
  C   C2683     1.0  0.35744  0.87115  0.86518  1.0000
  H   H3204     1.0  0.37513  0.87685  0.83658  1.0000
  H   H3205     1.0  0.39065  0.87463  0.84859  1.0000
  H   H3206     1.0  0.36350  0.86867  0.88176  1.0000
  H   H3207     1.0  0.34819  0.87021  0.86984  1.0000
  C   C2684     1.0  0.41706  0.84663  0.92564  1.0000
  C   C2685     1.0  0.41203  0.84898  0.91536  1.0000
  C   C2686     1.0  0.41964  0.84663  0.90423  1.0000
  C   C2687     1.0  0.43222  0.84175  0.90344  1.0000
  C   C2688     1.0  0.43726  0.83958  0.91367  1.0000
  C   C2689     1.0  0.42970  0.84211  0.92473  1.0000
  H   H3208     1.0  0.40233  0.85277  0.91594  1.0000
  H   H3209     1.0  0.41571  0.84847  0.89631  1.0000
  H   H3210     1.0  0.44698  0.83584  0.91308  1.0000
  H   H3211     1.0  0.43362  0.84036  0.93265  1.0000
  C   C2690     1.0  0.34543  0.86399  0.91469  1.0000
  C   C2691     1.0  0.34054  0.85376  0.92136  1.0000
  C   C2692     1.0  0.33251  0.84985  0.91683  1.0000
  C   C2693     1.0  0.32956  0.85600  0.90549  1.0000
  C   C2694     1.0  0.33467  0.86604  0.89870  1.0000
  C   C2695     1.0  0.34248  0.87008  0.90336  1.0000
  H   H3212     1.0  0.34277  0.84899  0.93010  1.0000
  H   H3213     1.0  0.32863  0.84202  0.92208  1.0000
  H   H3214     1.0  0.33256  0.87074  0.88990  1.0000
  H   H3215     1.0  0.34640  0.87780  0.89805  1.0000
  C   C2696     1.0  0.35910  0.79784  0.91799  1.0000
  C   C2697     1.0  0.37123  0.79246  0.91903  1.0000
  C   C2698     1.0  0.37652  0.79603  0.92672  1.0000
  C   C2699     1.0  0.36994  0.80538  0.93305  1.0000
  C   C2700     1.0  0.35787  0.81090  0.93186  1.0000
  C   C2701     1.0  0.35239  0.80694  0.92458  1.0000
  H   H3216     1.0  0.37644  0.78532  0.91413  1.0000
  H   H3217     1.0  0.38576  0.79149  0.92772  1.0000
  H   H3218     1.0  0.35264  0.81800  0.93679  1.0000
  H   H3219     1.0  0.34295  0.81106  0.92394  1.0000
  C   C2702     1.0  0.41150  0.79148  0.86576  1.0000
  C   C2703     1.0  0.42127  0.79159  0.85559  1.0000
  C   C2704     1.0  0.42475  0.80261  0.84908  1.0000
  C   C2705     1.0  0.41884  0.81355  0.85297  1.0000
  C   C2706     1.0  0.40914  0.81347  0.86325  1.0000
  C   C2707     1.0  0.40528  0.80247  0.86951  1.0000
  H   H3220     1.0  0.42618  0.78311  0.85275  1.0000
  H   H3221     1.0  0.43222  0.80262  0.84112  1.0000
  H   H3222     1.0  0.40459  0.82187  0.86632  1.0000
  H   H3223     1.0  0.39788  0.80238  0.87752  1.0000
  C   C2708     1.0  0.34646  0.80425  0.85102  1.0000
  C   C2709     1.0  0.34345  0.81102  0.86011  1.0000
  C   C2710     1.0  0.33337  0.82101  0.86024  1.0000
  C   C2711     1.0  0.32617  0.82401  0.85149  1.0000
  C   C2712     1.0  0.32904  0.81703  0.84263  1.0000
  C   C2713     1.0  0.33929  0.80729  0.84227  1.0000
  H   H3224     1.0  0.34899  0.80870  0.86688  1.0000
  H   H3225     1.0  0.33099  0.82618  0.86728  1.0000
  H   H3226     1.0  0.32351  0.81933  0.83585  1.0000
  H   H3227     1.0  0.34169  0.80212  0.83518  1.0000
  C   C2714     1.0  0.36644  0.73203  0.87644  1.0000
  C   C2715     1.0  0.36719  0.71928  0.87914  1.0000
  C   C2716     1.0  0.36401  0.71370  0.87137  1.0000
  C   C2717     1.0  0.35996  0.72081  0.86083  1.0000
  C   C2718     1.0  0.35921  0.73355  0.85814  1.0000
  C   C2719     1.0  0.36252  0.73912  0.86582  1.0000
  H   H3228     1.0  0.37010  0.71372  0.88737  1.0000
  H   H3229     1.0  0.36442  0.70393  0.87371  1.0000
  H   H3230     1.0  0.35601  0.73918  0.85008  1.0000
  H   H3231     1.0  0.36189  0.74893  0.86362  1.0000
  N   N176      1.0  0.33634  0.52306  0.89150  1.0000
  H   H3232     1.0  0.39973  0.85630  0.97683  1.0000
  C   C2720     1.0  0.36182  0.72081  0.80516  1.0000
  C   C2721     1.0  0.33786  0.51045  0.88988  1.0000
  H   H3233     1.0  0.41844  0.65041  0.80331  1.0000
  C   C2722     1.0  0.32739  0.50571  0.89109  1.0000
  H   H3234     1.0  0.34649  0.70704  0.79316  1.0000
  H   H3235     1.0  0.35959  0.65361  0.80461  1.0000
  H   H3236     1.0  0.38393  0.70983  0.78237  1.0000
  H   H3237     1.0  0.34356  0.65334  0.80838  1.0000
  H   H3238     1.0  0.25908  0.93964  0.80256  1.0000
  C   C2723     1.0  0.34955  0.50259  0.88699  1.0000
  C   C2724     1.0  0.48224  0.86644  0.87909  1.0000
  H   H3239     1.0  0.49175  0.59920  0.82447  1.0000
  H   H3240     1.0  0.33958  0.63498  0.78689  1.0000
  C   C2725     1.0  0.39027  0.88017  0.96994  1.0000
  H   H3241     1.0  0.45384  0.61629  0.78378  1.0000
  N   N177      1.0  0.36877  0.83287  0.89493  1.0000
  C   C2726     1.0  0.36977  0.84282  0.90017  1.0000
  C   C2727     1.0  0.35613  0.83071  0.89991  1.0000
  C   C2728     1.0  0.37187  0.83628  0.88142  1.0000
  C   C2729     1.0  0.36368  0.83692  0.87397  1.0000
  C   C2730     1.0  0.38341  0.83921  0.87531  1.0000
  C   C2731     1.0  0.36672  0.84095  0.86128  1.0000
  C   C2732     1.0  0.38643  0.84301  0.86263  1.0000
  C   C2733     1.0  0.37800  0.84414  0.85568  1.0000
  H   H3242     1.0  0.36354  0.85155  0.89696  1.0000
  H   H3243     1.0  0.36717  0.84071  0.91035  1.0000
  H   H3244     1.0  0.37918  0.84461  0.89769  1.0000
  H   H3245     1.0  0.34920  0.83884  0.89666  1.0000
  H   H3246     1.0  0.35372  0.82915  0.91005  1.0000
  H   H3247     1.0  0.35501  0.82251  0.89744  1.0000
  H   H3248     1.0  0.39005  0.83894  0.88037  1.0000
  H   H3249     1.0  0.39515  0.84563  0.85820  1.0000
  H   H3250     1.0  0.38008  0.84793  0.84599  1.0000
  H   H3251     1.0  0.40269  0.82256  0.82180  1.0000
  H   H3252     1.0  0.33322  0.51733  0.91107  1.0000
  C   C2734     1.0  0.35058  0.49076  0.88548  1.0000
  H   H3253     1.0  0.46995  0.83411  0.85453  1.0000
  C   C2735     1.0  0.39091  0.88601  0.97899  1.0000
  H   H3254     1.0  0.47264  0.86667  0.84791  1.0000
  C   C2736     1.0  0.44679  0.67676  0.82922  1.0000
  H   H3255     1.0  0.38795  0.55243  0.80128  1.0000
  H   H3256     1.0  0.39470  0.61062  0.78993  1.0000
  C   C2737     1.0  0.46855  0.85187  0.88813  1.0000
  H   H3257     1.0  0.39346  0.65154  0.79660  1.0000
  H   H3258     1.0  0.36849  0.62547  0.80929  1.0000
  H   H3259     1.0  0.25990  0.83161  0.87279  1.0000
  C   C2738     1.0  0.45836  0.86129  0.88638  1.0000
  H   H3260     1.0  0.46277  0.85624  0.85569  1.0000
  C   C2739     1.0  0.37763  0.82821  0.83237  1.0000
  H   H3261     1.0  0.46434  0.67434  0.80111  1.0000
  H   H3262     1.0  0.49121  0.88622  0.86254  1.0000
  H   H3263     1.0  0.35179  0.85785  0.82712  1.0000
  C   C2740     1.0  0.35453  0.51572  0.82182  1.0000
  H   H3264     1.0  0.27074  0.92677  0.82358  1.0000
  H   H3265     1.0  0.32802  0.53352  0.90556  1.0000
  H   H3266     1.0  0.46855  0.66728  0.85371  1.0000
  H   H3267     1.0  0.46392  0.84798  0.83757  1.0000
  H   H3268     1.0  0.38830  0.81167  0.81846  1.0000
  C   C2741     1.0  0.25439  0.84058  0.87001  1.0000
  N   N178      1.0  0.47954  0.84853  0.84415  1.0000
  H   H3269     1.0  0.44922  0.85939  0.88922  1.0000
  N   N179      1.0  0.37296  0.54558  0.81456  1.0000
  C   C2742     1.0  0.33687  0.90014  0.87577  1.0000
  C   C2743     1.0  0.37817  0.54466  0.82518  1.0000
  C   C2744     1.0  0.26649  0.92161  0.81966  1.0000
  C   C2745     1.0  0.36646  0.53548  0.81702  1.0000
  C   C2746     1.0  0.35389  0.53755  0.81657  1.0000
  H   H3270     1.0  0.38236  0.52077  0.82032  1.0000
  C   C2747     1.0  0.34809  0.52777  0.81893  1.0000
  H   H3271     1.0  0.37004  0.56534  0.81061  1.0000
  C   C2748     1.0  0.39977  0.81909  0.83181  1.0000
  H   H3272     1.0  0.35720  0.55936  0.82020  1.0000
  C   C2749     1.0  0.35732  0.90172  0.87676  1.0000
  C   C2750     1.0  0.33026  0.62251  0.80063  1.0000
  H   H3273     1.0  0.38492  0.53595  0.82728  1.0000
  H   H3274     1.0  0.37082  0.54532  0.83354  1.0000
  H   H3275     1.0  0.38311  0.55213  0.82361  1.0000
  C   C2751     1.0  0.36093  0.90213  0.86397  1.0000
  C   C2752     1.0  0.40037  0.85975  0.96684  1.0000
  C   C2753     1.0  0.39296  0.64257  0.80244  1.0000
  H   H3276     1.0  0.34823  0.54661  0.81466  1.0000
  H   H3277     1.0  0.46283  0.64867  0.85225  1.0000
  N   N180      1.0  0.38708  0.81695  0.83518  1.0000
  C   C2754     1.0  0.40470  0.60952  0.78922  1.0000
  C   C2755     1.0  0.32880  0.61563  0.81258  1.0000
  H   H3278     1.0  0.32607  0.73491  0.81816  1.0000
  H   H3279     1.0  0.33485  0.73784  0.80269  1.0000
  H   H3280     1.0  0.48599  0.86903  0.82775  1.0000
  H   H3281     1.0  0.32094  0.71694  0.81680  1.0000
  N   N181      1.0  0.40098  0.70778  0.84867  1.0000
  C   C2756     1.0  0.39182  0.70954  0.84124  1.0000
  C   C2757     1.0  0.41312  0.70158  0.84239  1.0000
  C   C2758     1.0  0.39734  0.69934  0.86050  1.0000
  C   C2759     1.0  0.40168  0.71990  0.85003  1.0000
  C   C2760     1.0  0.39774  0.72360  0.86142  1.0000
  C   C2761     1.0  0.40617  0.72855  0.83966  1.0000
  C   C2762     1.0  0.39861  0.73510  0.86234  1.0000
  C   C2763     1.0  0.40703  0.74001  0.84070  1.0000
  C   C2764     1.0  0.40332  0.74325  0.85204  1.0000
  H   H3282     1.0  0.39440  0.71498  0.83184  1.0000
  H   H3283     1.0  0.39077  0.70063  0.84022  1.0000
  H   H3284     1.0  0.38263  0.71441  0.84552  1.0000
  H   H3285     1.0  0.41572  0.70620  0.83265  1.0000
  H   H3286     1.0  0.41315  0.69203  0.84218  1.0000
  H   H3287     1.0  0.42047  0.70114  0.84707  1.0000
  H   H3288     1.0  0.38788  0.70291  0.86534  1.0000
  H   H3289     1.0  0.39724  0.69020  0.85922  1.0000
  H   H3290     1.0  0.40377  0.69780  0.86662  1.0000
  H   H3291     1.0  0.39379  0.71790  0.86978  1.0000
  H   H3292     1.0  0.40895  0.72654  0.83064  1.0000
  H   H3293     1.0  0.39542  0.73778  0.87111  1.0000
  H   H3294     1.0  0.41049  0.74648  0.83268  1.0000
  H   H3295     1.0  0.40395  0.75215  0.85285  1.0000
  N   N182      1.0  0.27232  0.84814  0.85411  1.0000
  C   C2765     1.0  0.27829  0.85639  0.85716  1.0000
  C   C2766     1.0  0.27949  0.83542  0.85728  1.0000
  C   C2767     1.0  0.27318  0.85117  0.84069  1.0000
  C   C2768     1.0  0.25926  0.84987  0.86065  1.0000
  H   H3296     1.0  0.48320  0.83378  0.85959  1.0000
  C   C2769     1.0  0.37212  0.60406  0.78376  1.0000
  H   H3297     1.0  0.25416  0.91894  0.80493  1.0000
  H   H3298     1.0  0.27370  0.86616  0.85466  1.0000
  C   C2770     1.0  0.32854  0.49384  0.88966  1.0000
  C   C2771     1.0  0.45007  0.67840  0.81655  1.0000
  C   C2772     1.0  0.32986  0.53196  0.88224  1.0000
  H   H3299     1.0  0.26760  0.91195  0.82494  1.0000
  H   H3300     1.0  0.27546  0.82870  0.85524  1.0000
  H   H3301     1.0  0.28915  0.83442  0.85193  1.0000
  H   H3302     1.0  0.35335  0.52048  0.89713  1.0000
  H   H3303     1.0  0.26929  0.86097  0.83721  1.0000
  H   H3304     1.0  0.28289  0.84950  0.83553  1.0000
  H   H3305     1.0  0.26816  0.84567  0.83808  1.0000
  H   H3306     1.0  0.48972  0.88733  0.87807  1.0000
  H   H3307     1.0  0.36966  0.62409  0.79406  1.0000
  H   H3308     1.0  0.40609  0.63332  0.78943  1.0000
  H   H3309     1.0  0.39223  0.85822  0.96459  1.0000
  H   H3310     1.0  0.47840  0.64110  0.85263  1.0000
  N   N183      1.0  0.35529  0.63881  0.79970  1.0000
  H   H3311     1.0  0.33838  0.52950  0.81897  1.0000
  H   H3312     1.0  0.34664  0.65277  0.78627  1.0000
  H   H3313     1.0  0.47164  0.64055  0.84062  1.0000
  C   C2773     1.0  0.34597  0.63114  0.80398  1.0000
  H   H3314     1.0  0.48460  0.57397  0.83056  1.0000
  H   H3315     1.0  0.36925  0.88257  0.89055  1.0000
  H   H3316     1.0  0.47209  0.88521  0.87295  1.0000
  C   C2774     1.0  0.37843  0.88134  0.96789  1.0000
  C   C2775     1.0  0.49369  0.86214  0.83049  1.0000
  C   C2776     1.0  0.40176  0.87699  0.94977  1.0000
  H   H3317     1.0  0.38106  0.72112  0.79854  1.0000
  N   N184      1.0  0.47641  0.65776  0.83877  1.0000
  H   H3318     1.0  0.43741  0.68028  0.83356  1.0000
  C   C2777     1.0  0.34072  0.90050  0.86328  1.0000
  N   N185      1.0  0.31764  0.81527  0.90080  1.0000
  C   C2778     1.0  0.32922  0.81978  0.89680  1.0000
  C   C2779     1.0  0.30739  0.82575  0.90350  1.0000
  C   C2780     1.0  0.31798  0.80598  0.91244  1.0000
  C   C2781     1.0  0.31645  0.80976  0.89120  1.0000
  C   C2782     1.0  0.30768  0.81539  0.88372  1.0000
  C   C2783     1.0  0.32461  0.79871  0.88867  1.0000
  C   C2784     1.0  0.30699  0.81006  0.87455  1.0000
  C   C2785     1.0  0.32379  0.79346  0.87950  1.0000
  C   C2786     1.0  0.31502  0.79913  0.87245  1.0000
  H   H3319     1.0  0.33078  0.82348  0.90402  1.0000
  H   H3320     1.0  0.33735  0.81243  0.89456  1.0000
  H   H3321     1.0  0.32903  0.82730  0.88849  1.0000
  H   H3322     1.0  0.30727  0.83370  0.89556  1.0000
  H   H3323     1.0  0.30832  0.82939  0.91108  1.0000
  H   H3324     1.0  0.29835  0.82306  0.90624  1.0000
  H   H3325     1.0  0.30982  0.80175  0.91533  1.0000
  H   H3326     1.0  0.32629  0.79847  0.91179  1.0000
  H   H3327     1.0  0.31827  0.81004  0.91999  1.0000
  H   H3328     1.0  0.30149  0.82409  0.88452  1.0000
  H   H3329     1.0  0.33191  0.79419  0.89355  1.0000
  H   H3330     1.0  0.30058  0.81470  0.86865  1.0000
  H   H3331     1.0  0.33024  0.78513  0.87758  1.0000
  H   H3332     1.0  0.31474  0.79524  0.86506  1.0000
  N   N186      1.0  0.41460  0.80757  0.92238  1.0000
  C   C2787     1.0  0.40462  0.81869  0.92200  1.0000
  C   C2788     1.0  0.41041  0.79812  0.93309  1.0000
  C   C2789     1.0  0.42546  0.81047  0.92457  1.0000
  C   C2790     1.0  0.41775  0.80372  0.91056  1.0000
  C   C2791     1.0  0.42311  0.81124  0.89966  1.0000
  C   C2792     1.0  0.41539  0.79270  0.90941  1.0000
  C   C2793     1.0  0.42656  0.80762  0.88848  1.0000
  C   C2794     1.0  0.41880  0.78922  0.89813  1.0000
  C   C2795     1.0  0.42459  0.79654  0.88776  1.0000
  H   H3333     1.0  0.39621  0.81686  0.92056  1.0000
  H   H3334     1.0  0.40204  0.82194  0.93072  1.0000
  H   H3335     1.0  0.40726  0.82643  0.91455  1.0000
  H   H3336     1.0  0.40166  0.79620  0.93268  1.0000
  H   H3337     1.0  0.40837  0.80123  0.94183  1.0000
  H   H3338     1.0  0.41745  0.78941  0.93384  1.0000
  H   H3339     1.0  0.42848  0.81838  0.91769  1.0000
  H   H3340     1.0  0.42347  0.81306  0.93357  1.0000
  H   H3341     1.0  0.43340  0.80251  0.92431  1.0000
  H   H3342     1.0  0.42472  0.82000  0.89966  1.0000
  H   H3343     1.0  0.41093  0.78660  0.91705  1.0000
  H   H3344     1.0  0.43079  0.81344  0.88030  1.0000
  H   H3345     1.0  0.41692  0.78081  0.89734  1.0000
  H   H3346     1.0  0.42741  0.79368  0.87910  1.0000
  H   H3347     1.0  0.35476  0.83468  0.87773  1.0000
  C   C2796     1.0  0.47947  0.83577  0.85123  1.0000
  H   H3348     1.0  0.34149  0.73646  0.81542  1.0000
  H   H3349     1.0  0.27801  0.85436  0.86714  1.0000
  H   H3350     1.0  0.47875  0.58509  0.83974  1.0000
  S   S764      1.0  0.31954  0.49017  0.83802  1.0000
  H   H3351     1.0  0.27202  0.92116  0.81027  1.0000
  H   H3352     1.0  0.37357  0.85929  0.82051  1.0000
  H   H3353     1.0  0.36013  0.84204  0.85579  1.0000
  N   N187      1.0  0.40728  0.60913  0.80116  1.0000
  C   C2797     1.0  0.42049  0.60883  0.79946  1.0000
  C   C2798     1.0  0.40485  0.59741  0.80938  1.0000
  C   C2799     1.0  0.47259  0.85695  0.85245  1.0000
  C   C2800     1.0  0.39982  0.62014  0.80583  1.0000
  H   H3354     1.0  0.37758  0.67513  0.80219  1.0000
  C   C2801     1.0  0.39213  0.61950  0.81771  1.0000
  C   C2802     1.0  0.45990  0.87317  0.88091  1.0000
  C   C2803     1.0  0.38492  0.63010  0.82166  1.0000
  C   C2804     1.0  0.38524  0.64159  0.81399  1.0000
  H   H3355     1.0  0.42309  0.60749  0.80834  1.0000
  C   C2805     1.0  0.34497  0.90086  0.88242  1.0000
  H   H3356     1.0  0.40741  0.59592  0.81831  1.0000
  H   H3357     1.0  0.41028  0.58933  0.80541  1.0000
  H   H3358     1.0  0.39502  0.59706  0.81096  1.0000
  C   C2806     1.0  0.35357  0.71061  0.79458  1.0000
  H   H3359     1.0  0.35390  0.64267  0.81734  1.0000
  C   C2807     1.0  0.37811  0.67284  0.78417  1.0000
  H   H3360     1.0  0.40133  0.88703  0.94675  1.0000
  H   H3361     1.0  0.39149  0.61095  0.82414  1.0000
  H   H3362     1.0  0.32231  0.60965  0.81586  1.0000
  H   H3363     1.0  0.37905  0.62940  0.83074  1.0000
  H   H3364     1.0  0.45216  0.66853  0.84618  1.0000
  H   H3365     1.0  0.35759  0.60532  0.79976  1.0000
  H   H3366     1.0  0.39158  0.80313  0.85096  1.0000
  C   C2808     1.0  0.36665  0.60047  0.79607  1.0000
  C   C2809     1.0  0.38478  0.58458  0.79902  1.0000
  H   H3367     1.0  0.40660  0.81050  0.83428  1.0000
  H   H3368     1.0  0.42296  0.61747  0.79364  1.0000
  H   H3369     1.0  0.39393  0.79932  0.83020  1.0000
  C   C2810     1.0  0.38053  0.83986  0.82645  1.0000
  H   H3370     1.0  0.37785  0.80492  0.83135  1.0000
  H   H3371     1.0  0.40783  0.61713  0.78196  1.0000
  C   C2811     1.0  0.36686  0.51337  0.82228  1.0000
  H   H3372     1.0  0.48997  0.62091  0.84617  1.0000
  H   H3373     1.0  0.32041  0.49044  0.89056  1.0000
  H   H3374     1.0  0.38986  0.84116  0.82348  1.0000
  H   H3375     1.0  0.33486  0.61086  0.82954  1.0000
  C   C2812     1.0  0.37125  0.85039  0.82462  1.0000
  C   C2813     1.0  0.32892  0.52427  0.90387  1.0000
  H   H3376     1.0  0.41370  0.86964  0.97504  1.0000
  C   C2814     1.0  0.47726  0.66521  0.84696  1.0000
  H   H3377     1.0  0.38803  0.67071  0.78159  1.0000
  H   H3378     1.0  0.42643  0.60127  0.79497  1.0000
  H   H3379     1.0  0.36217  0.81917  0.83977  1.0000
  H   H3380     1.0  0.29734  0.49191  0.80795  1.0000
  H   H3381     1.0  0.35406  0.52622  0.88096  1.0000
  N   N188      1.0  0.40783  0.62234  0.84848  1.0000
  C   C2815     1.0  0.40003  0.62922  0.85790  1.0000
  C   C2816     1.0  0.40195  0.61228  0.84892  1.0000
  C   C2817     1.0  0.41989  0.61693  0.85194  1.0000
  C   C2818     1.0  0.40966  0.63006  0.83597  1.0000
  C   C2819     1.0  0.41708  0.62485  0.82599  1.0000
  C   C2820     1.0  0.40472  0.64290  0.83335  1.0000
  C   C2821     1.0  0.42027  0.63217  0.81439  1.0000
  C   C2822     1.0  0.40758  0.65003  0.82157  1.0000
  C   C2823     1.0  0.41566  0.64474  0.81223  1.0000
  H   H3382     1.0  0.39080  0.63349  0.85590  1.0000
  H   H3383     1.0  0.39856  0.62317  0.86718  1.0000
  H   H3384     1.0  0.40423  0.63656  0.85851  1.0000
  H   H3385     1.0  0.39298  0.61598  0.84612  1.0000
  H   H3386     1.0  0.40019  0.60642  0.85829  1.0000
  H   H3387     1.0  0.40775  0.60596  0.84292  1.0000
  H   H3388     1.0  0.42468  0.62423  0.85150  1.0000
  H   H3389     1.0  0.41893  0.61118  0.86138  1.0000
  H   H3390     1.0  0.42613  0.61096  0.84581  1.0000
  H   H3391     1.0  0.42112  0.61515  0.82729  1.0000
  H   H3392     1.0  0.39889  0.64774  0.84028  1.0000
  H   H3393     1.0  0.38464  0.90282  0.88268  1.0000
  H   H3394     1.0  0.38714  0.82253  0.89639  1.0000
  C   C2824     1.0  0.37744  0.82149  0.89924  1.0000
  H   H3395     1.0  0.37541  0.81874  0.90937  1.0000
  H   H3396     1.0  0.25554  0.94599  0.81595  1.0000
  H   H3397     1.0  0.36109  0.72547  0.81229  1.0000
  H   H3398     1.0  0.48440  0.66035  0.85243  1.0000
  C   C2825     1.0  0.33534  0.73271  0.81220  1.0000
  C   C2826     1.0  0.32981  0.71496  0.81019  1.0000
  H   H3399     1.0  0.37375  0.89050  0.89926  1.0000
  H   H3400     1.0  0.48936  0.64735  0.82606  1.0000
  H   H3401     1.0  0.47079  0.86044  0.82954  1.0000
  C   C2827     1.0  0.49332  0.58643  0.85501  1.0000
  C   C2828     1.0  0.36670  0.89110  0.89413  1.0000
  N   N189      1.0  0.33962  0.71933  0.81274  1.0000
  H   H3402     1.0  0.32811  0.71944  0.80088  1.0000
  C   C2829     1.0  0.24857  0.92000  0.81416  1.0000
  H   H3403     1.0  0.35796  0.89081  0.90102  1.0000
  H   H3404     1.0  0.47659  0.85503  0.86060  1.0000
  H   H3405     1.0  0.47847  0.84532  0.82708  1.0000
  H   H3406     1.0  0.33219  0.71444  0.83218  1.0000
  C   C2830     1.0  0.41299  0.87363  0.96533  1.0000
  C   C2831     1.0  0.33870  0.63017  0.79633  1.0000
  H   H3407     1.0  0.38266  0.89466  0.87268  1.0000
  H   H3408     1.0  0.36727  0.91402  0.89485  1.0000
  H   H3409     1.0  0.31942  0.52303  0.90524  1.0000
  C   C2832     1.0  0.36510  0.70817  0.78684  1.0000
  C   C2833     1.0  0.37842  0.90279  0.87688  1.0000
  C   C2834     1.0  0.35160  0.71692  0.80410  1.0000
  C   C2835     1.0  0.39010  0.58787  0.78661  1.0000
  H   H3410     1.0  0.40856  0.85383  0.96213  1.0000
  C   C2836     1.0  0.40017  0.63205  0.79841  1.0000
  N   N190      1.0  0.36578  0.90218  0.88410  1.0000
  H   H3411     1.0  0.35193  0.91289  0.89600  1.0000
  H   H3412     1.0  0.37017  0.90248  0.85886  1.0000
  C   C2837     1.0  0.36095  0.91318  0.88955  1.0000
  C   C2838     1.0  0.34102  0.71306  0.82537  1.0000
  H   H3413     1.0  0.44329  0.68328  0.81107  1.0000
  H   H3414     1.0  0.25981  0.91862  0.84275  1.0000
  H   H3415     1.0  0.25403  0.86882  0.85100  1.0000
  H   H3416     1.0  0.37851  0.91121  0.86950  1.0000
  H   H3417     1.0  0.35571  0.90150  0.84773  1.0000
  H   H3418     1.0  0.34157  0.90045  0.89211  1.0000
  C   C2839     1.0  0.44185  0.63414  0.78293  1.0000
  C   C2840     1.0  0.46755  0.66488  0.83098  1.0000
  H   H3419     1.0  0.37490  0.63617  0.79646  1.0000
  N   N191      1.0  0.40121  0.87282  0.96313  1.0000
  C   C2841     1.0  0.34815  0.52655  0.89019  1.0000
  C   C2842     1.0  0.38679  0.80785  0.82849  1.0000
  H   H3420     1.0  0.37557  0.80859  0.85168  1.0000
  H   H3421     1.0  0.32760  0.89907  0.88036  1.0000
  C   C2843     1.0  0.37331  0.71833  0.79736  1.0000
  H   H3422     1.0  0.35806  0.50540  0.88567  1.0000
  Fe  Fe383     1.0  0.32965  0.49618  0.84879  1.0000
  H   H3423     1.0  0.28011  0.83281  0.86706  1.0000
  H   H3424     1.0  0.48480  0.82897  0.84553  1.0000
  C   C2844     1.0  0.47299  0.85063  0.83415  1.0000
  H   H3425     1.0  0.37966  0.54492  0.79556  1.0000
  H   H3426     1.0  0.33455  0.89963  0.85817  1.0000
  H   H3427     1.0  0.37711  0.87667  0.96164  1.0000
  H   H3428     1.0  0.39418  0.87495  0.94700  1.0000
  C   C2845     1.0  0.36493  0.55799  0.81222  1.0000
  H   H3429     1.0  0.31821  0.51121  0.89300  1.0000
  C   C2846     1.0  0.35296  0.64743  0.80787  1.0000
  H   H3430     1.0  0.37958  0.64975  0.81703  1.0000
  C   C2847     1.0  0.37279  0.52307  0.81985  1.0000
  H   H3431     1.0  0.33472  0.53072  0.87288  1.0000
  H   H3432     1.0  0.48468  0.58355  0.85768  1.0000
  H   H3433     1.0  0.47970  0.67408  0.84159  1.0000
  C   C2848     1.0  0.45532  0.67000  0.83637  1.0000
  H   H3434     1.0  0.39915  0.58297  0.78293  1.0000
  C   C2849     1.0  0.38450  0.81151  0.84849  1.0000
  S   S765      1.0  0.44903  0.63959  0.79157  1.0000
  H   H3435     1.0  0.36118  0.55967  0.80392  1.0000
  C   C2850     1.0  0.47215  0.64657  0.84640  1.0000
  C   C2851     1.0  0.38313  0.54469  0.80367  1.0000
  C   C2852     1.0  0.25033  0.92316  0.84285  1.0000
  C   C2853     1.0  0.46192  0.67334  0.81096  1.0000
  H   H3436     1.0  0.41408  0.88331  0.96292  1.0000
  H   H3437     1.0  0.34676  0.53614  0.89123  1.0000
  S   S766      1.0  0.25743  0.88476  0.82377  1.0000
  H   H3438     1.0  0.32033  0.53091  0.88343  1.0000
  C   C2854     1.0  0.36761  0.63078  0.79995  1.0000
  H   H3439     1.0  0.40069  0.82570  0.83674  1.0000
  H   H3440     1.0  0.34623  0.83767  0.83646  1.0000
  C   C2855     1.0  0.35937  0.67884  0.79886  1.0000
  H   H3441     1.0  0.33222  0.70482  0.81106  1.0000
  N   N192      1.0  0.25335  0.92741  0.81965  1.0000
  C   C2856     1.0  0.34431  0.62391  0.81604  1.0000
  C   C2857     1.0  0.33583  0.61633  0.82027  1.0000
  H   H3442     1.0  0.41033  0.87220  0.94435  1.0000
  H   H3443     1.0  0.45191  0.88043  0.87946  1.0000
  C   C2858     1.0  0.48654  0.57729  0.83784  1.0000
  C   C2859     1.0  0.35583  0.83828  0.83368  1.0000
  H   H3444     1.0  0.37178  0.50397  0.82468  1.0000
  H   H3445     1.0  0.39025  0.53613  0.80515  1.0000
  C   C2860     1.0  0.36502  0.82774  0.83562  1.0000
  C   C2861     1.0  0.35894  0.84962  0.82833  1.0000
  H   H3446     1.0  0.38435  0.81812  0.85394  1.0000
  C   C2862     1.0  0.37220  0.67544  0.79578  1.0000
  C   C2863     1.0  0.48035  0.85435  0.88451  1.0000
  C   C2864     1.0  0.49203  0.85103  0.83900  1.0000
  H   H3447     1.0  0.34983  0.50823  0.82397  1.0000
  C   C2865     1.0  0.25285  0.93986  0.81169  1.0000
  H   H3448     1.0  0.24936  0.89409  0.84621  1.0000
  C   C2866     1.0  0.48903  0.65388  0.83169  1.0000
  H   H3449     1.0  0.46722  0.84260  0.89228  1.0000
  H   H3450     1.0  0.34975  0.62387  0.82227  1.0000
  S   S767      1.0  0.35542  0.85384  0.98059  1.0000
  H   H3451     1.0  0.40955  0.60104  0.78574  1.0000
  H   H3452     1.0  0.32930  0.54164  0.88249  1.0000
  C   C2867     1.0  0.47162  0.87578  0.87725  1.0000
  C   C2868     1.0  0.47060  0.66670  0.81800  1.0000
  H   H3453     1.0  0.24635  0.91946  0.86255  1.0000
  H   H3454     1.0  0.35899  0.88868  0.97265  1.0000
  H   H3455     1.0  0.48798  0.84672  0.88592  1.0000
  H   H3456     1.0  0.47952  0.66284  0.81306  1.0000
  C   C2869     1.0  0.37496  0.71197  0.78825  1.0000
  C   C2870     1.0  0.35555  0.64624  0.78706  1.0000
  C   C2871     1.0  0.36796  0.88821  0.97418  1.0000
  H   H3457     1.0  0.34260  0.68212  0.79268  1.0000
  H   H3458     1.0  0.24872  0.91061  0.81993  1.0000
  H   H3459     1.0  0.48620  0.56969  0.84608  1.0000
  H   H3460     1.0  0.49273  0.66187  0.82561  1.0000
  H   H3461     1.0  0.49005  0.59141  0.87238  1.0000
  C   C2872     1.0  0.35251  0.67944  0.79040  1.0000
  C   C2873     1.0  0.24569  0.92824  0.83199  1.0000
  H   H3462     1.0  0.63067  0.11212  0.02072  1.0000
  C   C2874     1.0  0.61506  0.10478  0.03187  1.0000
  S   S768      1.0  0.53522  0.38462  0.12477  1.0000
  H   H3463     1.0  0.58774  0.38504  0.15289  1.0000
  H   H3464     1.0  0.59982  0.09855  0.04511  1.0000
  H   H3465     1.0  0.59688  0.12528  0.00784  1.0000
  Fe  Fe384     1.0  0.52814  0.37376  0.11593  1.0000
  S   S769      1.0  0.54095  0.36250  0.10294  1.0000
  H   H3466     1.0  0.63081  0.16049  0.03009  1.0000
  Fe  Fe385     1.0  0.62126  0.32283  0.12632  1.0000
  S   S770      1.0  0.63082  0.32381  0.10656  1.0000
  S   S771      1.0  0.63087  0.32214  0.14105  1.0000
  Fe  Fe386     1.0  0.59691  0.32313  0.12135  1.0000
  S   S772      1.0  0.60407  0.32478  0.10114  1.0000
  S   S773      1.0  0.57768  0.32229  0.13165  1.0000
  Fe  Fe387     1.0  0.62005  0.31013  0.10652  1.0000
  S   S774      1.0  0.62784  0.29217  0.09969  1.0000
  Fe  Fe388     1.0  0.61404  0.33828  0.10294  1.0000
  S   S775      1.0  0.61445  0.35694  0.09024  1.0000
  S   S776      1.0  0.61223  0.30785  0.12677  1.0000
  S   S777      1.0  0.60519  0.33790  0.12266  1.0000
  Fe  Fe389     1.0  0.59357  0.43710  0.12532  1.0000
  S   S778      1.0  0.61373  0.43207  0.11777  1.0000
  S   S779      1.0  0.58640  0.44056  0.14416  1.0000
  Fe  Fe390     1.0  0.58636  0.43609  0.10263  1.0000
  S   S780      1.0  0.60612  0.43151  0.09269  1.0000
  S   S781      1.0  0.56999  0.43922  0.09421  1.0000
  Fe  Fe391     1.0  0.60876  0.41831  0.11045  1.0000
  S   S782      1.0  0.61826  0.39825  0.11474  1.0000
  Fe  Fe392     1.0  0.60934  0.44577  0.10091  1.0000
  S   S783      1.0  0.61950  0.46126  0.09070  1.0000
  S   S784      1.0  0.58889  0.42218  0.11975  1.0000
  S   S785      1.0  0.58927  0.45149  0.10906  1.0000
  H   H3467     1.0  0.67044  0.18167  0.02573  1.0000
  S   S786      1.0  0.73202  0.10556  0.12281  1.0000
  Fe  Fe393     1.0  0.63344  0.15001  0.99954  1.0000
  H   H3468     1.0  0.63330  0.23955  0.00075  1.0000
  S   S787      1.0  0.64279  0.13455  0.01263  1.0000
  Fe  Fe394     1.0  0.60799  0.16441  0.99699  1.0000
  C   C2875     1.0  0.54317  0.42353  0.14873  1.0000
  S   S788      1.0  0.58814  0.16550  0.00584  1.0000
  H   H3469     1.0  0.57301  0.23437  0.04596  1.0000
  Fe  Fe395     1.0  0.62867  0.17783  0.99188  1.0000
  S   S789      1.0  0.63469  0.19295  0.99646  1.0000
  S   S790      1.0  0.61997  0.14807  0.98982  1.0000
  S   S791      1.0  0.62059  0.16500  0.00816  1.0000
  Fe  Fe396     1.0  0.61317  0.23193  0.04746  1.0000
  S   S792      1.0  0.62219  0.21481  0.05877  1.0000
  S   S793      1.0  0.60779  0.23144  0.03021  1.0000
  Fe  Fe397     1.0  0.61299  0.24790  0.06518  1.0000
  S   S794      1.0  0.62187  0.23163  0.07782  1.0000
  S   S795      1.0  0.60765  0.26760  0.06813  1.0000
  Fe  Fe398     1.0  0.63397  0.22634  0.06055  1.0000
  S   S796      1.0  0.65416  0.21818  0.05750  1.0000
  Fe  Fe399     1.0  0.60918  0.22164  0.07480  1.0000
  S   S797      1.0  0.59997  0.20802  0.08973  1.0000
  S   S798      1.0  0.62606  0.24320  0.04795  1.0000
  S   S799      1.0  0.59916  0.23824  0.06345  1.0000
  Fe  Fe400     1.0  0.67023  0.14559  0.05955  1.0000
  S   S800      1.0  0.67564  0.12530  0.06655  1.0000
  S   S801      1.0  0.66932  0.15611  0.04032  1.0000
  Fe  Fe401     1.0  0.66566  0.15110  0.08452  1.0000
  S   S802      1.0  0.67042  0.13133  0.09395  1.0000
  S   S803      1.0  0.65895  0.16665  0.09425  1.0000
  Fe  Fe402     1.0  0.68617  0.13003  0.07774  1.0000
  S   S804      1.0  0.70618  0.12115  0.07756  1.0000
  Fe  Fe403     1.0  0.65943  0.12831  0.08213  1.0000
  S   S805      1.0  0.64636  0.11537  0.08893  1.0000
  S   S806      1.0  0.68216  0.15012  0.06925  1.0000
  S   S807      1.0  0.65326  0.14819  0.07428  1.0000
  Fe  Fe404     1.0  0.55237  0.14628  0.09022  1.0000
  S   S808      1.0  0.55929  0.15421  0.07042  1.0000
  S   S809      1.0  0.53197  0.14774  0.09802  1.0000
  Fe  Fe405     1.0  0.57755  0.14044  0.09613  1.0000
  S   S810      1.0  0.58648  0.14770  0.07706  1.0000
  S   S811      1.0  0.58938  0.13233  0.10997  1.0000
  Fe  Fe406     1.0  0.57014  0.16323  0.07726  1.0000
  S   S812      1.0  0.57358  0.18174  0.06664  1.0000
  Fe  Fe407     1.0  0.57512  0.13811  0.07169  1.0000
  S   S813      1.0  0.58575  0.12816  0.05681  1.0000
  S   S814      1.0  0.56194  0.15683  0.09707  1.0000
  S   S815      1.0  0.56746  0.12925  0.09092  1.0000
  C   C2876     1.0  0.63050  0.12064  0.09427  1.0000
  C   C2877     1.0  0.62374  0.11211  0.10203  1.0000
  C   C2878     1.0  0.61113  0.11576  0.10661  1.0000
  C   C2879     1.0  0.60502  0.12791  0.10318  1.0000
  C   C2880     1.0  0.61166  0.13646  0.09508  1.0000
  C   C2881     1.0  0.62445  0.13286  0.09074  1.0000
  H   H3470     1.0  0.62834  0.10267  0.10476  1.0000
  H   H3471     1.0  0.60610  0.10914  0.11291  1.0000
  H   H3472     1.0  0.60702  0.14591  0.09252  1.0000
  H   H3473     1.0  0.62958  0.13950  0.08470  1.0000
  C   C2882     1.0  0.59176  0.20127  0.08367  1.0000
  C   C2883     1.0  0.58592  0.19185  0.09109  1.0000
  C   C2884     1.0  0.58032  0.18569  0.08597  1.0000
  C   C2885     1.0  0.58034  0.18916  0.07349  1.0000
  C   C2886     1.0  0.58596  0.19871  0.06616  1.0000
  C   C2887     1.0  0.59161  0.20480  0.07122  1.0000
  H   H3474     1.0  0.58568  0.18935  0.10078  1.0000
  H   H3475     1.0  0.57589  0.17838  0.09169  1.0000
  H   H3476     1.0  0.58638  0.20103  0.05644  1.0000
  H   H3477     1.0  0.59611  0.21201  0.06541  1.0000
  C   C2888     1.0  0.65582  0.20389  0.06773  1.0000
  C   C2889     1.0  0.66553  0.19419  0.06484  1.0000
  C   C2890     1.0  0.66646  0.18265  0.07286  1.0000
  C   C2891     1.0  0.65790  0.18091  0.08395  1.0000
  C   C2892     1.0  0.64833  0.19067  0.08689  1.0000
  C   C2893     1.0  0.64716  0.20206  0.07870  1.0000
  H   H3478     1.0  0.67228  0.19555  0.05639  1.0000
  H   H3479     1.0  0.67399  0.17522  0.07061  1.0000
  H   H3480     1.0  0.64175  0.18944  0.09547  1.0000
  H   H3481     1.0  0.63967  0.20947  0.08105  1.0000
  C   C2894     1.0  0.62524  0.20210  0.00693  1.0000
  C   C2895     1.0  0.62715  0.19972  0.01888  1.0000
  C   C2896     1.0  0.62161  0.20842  0.02633  1.0000
  C   C2897     1.0  0.61426  0.21964  0.02179  1.0000
  C   C2898     1.0  0.61214  0.22184  0.00999  1.0000
  C   C2899     1.0  0.61766  0.21319  0.00259  1.0000
  H   H3482     1.0  0.63332  0.19136  0.02217  1.0000
  H   H3483     1.0  0.62330  0.20660  0.03540  1.0000
  H   H3484     1.0  0.60659  0.23051  0.00635  1.0000
  H   H3485     1.0  0.61648  0.21536  0.99328  1.0000
  C   C2900     1.0  0.58623  0.13839  0.04258  1.0000
  C   C2901     1.0  0.59711  0.13761  0.03365  1.0000
  C   C2902     1.0  0.59770  0.14594  0.02236  1.0000
  C   C2903     1.0  0.58735  0.15499  0.01992  1.0000
  C   C2904     1.0  0.57643  0.15571  0.02879  1.0000
  C   C2905     1.0  0.57590  0.14746  0.04016  1.0000
  H   H3486     1.0  0.60513  0.13066  0.03551  1.0000
  H   H3487     1.0  0.60615  0.14524  0.01554  1.0000
  H   H3488     1.0  0.56839  0.16264  0.02692  1.0000
  H   H3489     1.0  0.56740  0.14793  0.04691  1.0000
  C   C2906     1.0  0.65097  0.14014  0.01987  1.0000
  C   C2907     1.0  0.65306  0.15204  0.01546  1.0000
  C   C2908     1.0  0.65906  0.15670  0.02158  1.0000
  C   C2909     1.0  0.66274  0.14962  0.03232  1.0000
  C   C2910     1.0  0.66066  0.13772  0.03677  1.0000
  C   C2911     1.0  0.65501  0.13290  0.03041  1.0000
  H   H3490     1.0  0.65006  0.15768  0.00730  1.0000
  H   H3491     1.0  0.66072  0.16585  0.01803  1.0000
  H   H3492     1.0  0.66359  0.13216  0.04499  1.0000
  H   H3493     1.0  0.65382  0.12357  0.03365  1.0000
  C   C2912     1.0  0.72459  0.11082  0.11032  1.0000
  C   C2913     1.0  0.71181  0.11215  0.11233  1.0000
  C   C2914     1.0  0.70588  0.11585  0.10239  1.0000
  C   C2915     1.0  0.71277  0.11803  0.09040  1.0000
  C   C2916     1.0  0.72548  0.11684  0.08845  1.0000
  C   C2917     1.0  0.73131  0.11341  0.09835  1.0000
  H   H3494     1.0  0.70651  0.11018  0.12157  1.0000
  H   H3495     1.0  0.69608  0.11663  0.10399  1.0000
  H   H3496     1.0  0.73085  0.11846  0.07920  1.0000
  H   H3497     1.0  0.69449  0.13998  0.11192  1.0000
  C   C2918     1.0  0.51239  0.11649  0.10370  1.0000
  C   C2919     1.0  0.52528  0.11433  0.10059  1.0000
  C   C2920     1.0  0.53140  0.12394  0.09830  1.0000
  C   C2921     1.0  0.52467  0.13574  0.09937  1.0000
  C   C2922     1.0  0.51178  0.13794  0.10225  1.0000
  H   H3498     1.0  0.64227  0.15025  0.10627  1.0000
  H   H3499     1.0  0.53053  0.10517  0.10004  1.0000
  H   H3500     1.0  0.54131  0.12215  0.09589  1.0000
  C   C2923     1.0  0.69771  0.15238  0.09454  1.0000
  C   C2924     1.0  0.62654  0.46889  0.09744  1.0000
  C   C2925     1.0  0.63548  0.47004  0.11372  1.0000
  C   C2926     1.0  0.62955  0.46384  0.10890  1.0000
  H   H3501     1.0  0.55816  0.43299  0.12660  1.0000
  H   H3502     1.0  0.62742  0.45510  0.11400  1.0000
  C   C2927     1.0  0.62146  0.28547  0.09143  1.0000
  C   C2928     1.0  0.62492  0.27271  0.09224  1.0000
  C   C2929     1.0  0.62039  0.26705  0.08557  1.0000
  C   C2930     1.0  0.61276  0.27413  0.07757  1.0000
  C   C2931     1.0  0.60915  0.28686  0.07691  1.0000
  C   C2932     1.0  0.61335  0.29249  0.08388  1.0000
  H   H3503     1.0  0.63109  0.26718  0.09813  1.0000
  H   H3504     1.0  0.62278  0.25721  0.08662  1.0000
  H   H3505     1.0  0.60317  0.29245  0.07084  1.0000
  H   H3506     1.0  0.61062  0.30232  0.08311  1.0000
  C   C2933     1.0  0.61597  0.36844  0.09678  1.0000
  C   C2934     1.0  0.61456  0.38071  0.09030  1.0000
  C   C2935     1.0  0.61481  0.39007  0.09580  1.0000
  C   C2936     1.0  0.61680  0.38713  0.10770  1.0000
  C   C2937     1.0  0.61831  0.37487  0.11405  1.0000
  C   C2938     1.0  0.61795  0.36558  0.10864  1.0000
  H   H3507     1.0  0.61323  0.38300  0.08103  1.0000
  H   H3508     1.0  0.61380  0.39948  0.09074  1.0000
  H   H3509     1.0  0.61977  0.37246  0.12325  1.0000
  H   H3510     1.0  0.61936  0.35618  0.11364  1.0000
  C   C2939     1.0  0.53457  0.42442  0.10796  1.0000
  C   C2940     1.0  0.53486  0.43612  0.10061  1.0000
  C   C2941     1.0  0.54571  0.44052  0.09687  1.0000
  C   C2942     1.0  0.55642  0.43347  0.10068  1.0000
  C   C2943     1.0  0.55614  0.42187  0.10847  1.0000
  C   C2944     1.0  0.54523  0.41729  0.11202  1.0000
  H   H3511     1.0  0.65799  0.18816  0.04354  1.0000
  H   H3512     1.0  0.54584  0.44943  0.09081  1.0000
  H   H3513     1.0  0.56443  0.41625  0.11129  1.0000
  H   H3514     1.0  0.54511  0.40825  0.11775  1.0000
  C   C2945     1.0  0.55080  0.35084  0.11091  1.0000
  C   C2946     1.0  0.56165  0.34461  0.10448  1.0000
  C   C2947     1.0  0.57003  0.33593  0.11084  1.0000
  C   C2948     1.0  0.56730  0.33309  0.12362  1.0000
  C   C2949     1.0  0.55624  0.33898  0.13004  1.0000
  C   C2950     1.0  0.54814  0.34809  0.12369  1.0000
  H   H3515     1.0  0.56366  0.34663  0.09460  1.0000
  H   H3516     1.0  0.57842  0.33122  0.10583  1.0000
  H   H3517     1.0  0.55401  0.33667  0.13993  1.0000
  H   H3518     1.0  0.53982  0.35288  0.12872  1.0000
  C   C2951     1.0  0.61786  0.32318  0.17671  1.0000
  C   C2952     1.0  0.58699  0.37796  0.14882  1.0000
  N   N193      1.0  0.57547  0.34798  0.15877  1.0000
  C   C2953     1.0  0.55537  0.38401  0.17184  1.0000
  N   N194      1.0  0.56835  0.22146  0.03840  1.0000
  S   S816      1.0  0.51550  0.36624  0.13299  1.0000
  C   C2954     1.0  0.63708  0.13336  0.11560  1.0000
  C   C2955     1.0  0.59520  0.42867  0.15305  1.0000
  C   C2956     1.0  0.58359  0.33632  0.15590  1.0000
  C   C2957     1.0  0.58214  0.36793  0.15625  1.0000
  H   H3519     1.0  0.59466  0.38665  0.13051  1.0000
  H   H3520     1.0  0.56415  0.34922  0.14629  1.0000
  H   H3521     1.0  0.60419  0.17131  0.03140  1.0000
  C   C2958     1.0  0.57193  0.19916  0.03691  1.0000
  C   C2959     1.0  0.56062  0.23061  0.03039  1.0000
  H   H3522     1.0  0.50652  0.14705  0.10304  1.0000
  H   H3523     1.0  0.61498  0.34567  0.14565  1.0000
  H   H3524     1.0  0.55548  0.23862  0.03456  1.0000
  C   C2960     1.0  0.56021  0.21793  0.05049  1.0000
  C   C2961     1.0  0.58377  0.21263  0.02141  1.0000
  C   C2962     1.0  0.58958  0.20304  0.01532  1.0000
  H   H3525     1.0  0.56536  0.21072  0.05687  1.0000
  H   H3526     1.0  0.55597  0.22583  0.05504  1.0000
  H   H3527     1.0  0.55249  0.21443  0.04967  1.0000
  H   H3528     1.0  0.58631  0.22138  0.01735  1.0000
  H   H3529     1.0  0.59637  0.20450  0.00687  1.0000
  H   H3530     1.0  0.59109  0.18422  0.01516  1.0000
  N   N195      1.0  0.58581  0.28765  0.11590  1.0000
  C   C2963     1.0  0.59276  0.27518  0.11430  1.0000
  C   C2964     1.0  0.59467  0.29455  0.11635  1.0000
  C   C2965     1.0  0.57696  0.28627  0.12785  1.0000
  C   C2966     1.0  0.57925  0.29453  0.10596  1.0000
  C   C2967     1.0  0.58056  0.29008  0.09531  1.0000
  C   C2968     1.0  0.57158  0.30628  0.10658  1.0000
  C   C2969     1.0  0.57455  0.29704  0.08593  1.0000
  C   C2970     1.0  0.56554  0.31313  0.09720  1.0000
  C   C2971     1.0  0.56705  0.30853  0.08688  1.0000
  H   H3531     1.0  0.59747  0.27019  0.12197  1.0000
  H   H3532     1.0  0.58662  0.26948  0.11384  1.0000
  H   H3533     1.0  0.60016  0.27559  0.10588  1.0000
  H   H3534     1.0  0.59003  0.30353  0.11881  1.0000
  H   H3535     1.0  0.60100  0.29651  0.10733  1.0000
  H   H3536     1.0  0.60040  0.28942  0.12317  1.0000
  H   H3537     1.0  0.56955  0.28197  0.12761  1.0000
  H   H3538     1.0  0.58155  0.28053  0.13540  1.0000
  H   H3539     1.0  0.57254  0.29521  0.13059  1.0000
  H   H3540     1.0  0.58633  0.28134  0.09387  1.0000
  H   H3541     1.0  0.57033  0.31035  0.11429  1.0000
  H   H3542     1.0  0.57585  0.29352  0.07782  1.0000
  H   H3543     1.0  0.55976  0.32211  0.09790  1.0000
  H   H3544     1.0  0.56245  0.31392  0.07956  1.0000
  H   H3545     1.0  0.56620  0.23427  0.02136  1.0000
  H   H3546     1.0  0.66821  0.23748  0.06245  1.0000
  H   H3547     1.0  0.62943  0.14857  0.04372  1.0000
  C   C2972     1.0  0.61286  0.14671  0.11943  1.0000
  H   H3548     1.0  0.64463  0.19374  0.03684  1.0000
  C   C2973     1.0  0.61027  0.48632  0.12814  1.0000
  H   H3549     1.0  0.61705  0.36939  0.15088  1.0000
  C   C2974     1.0  0.70619  0.15836  0.08570  1.0000
  C   C2975     1.0  0.53783  0.37630  0.16434  1.0000
  H   H3550     1.0  0.56589  0.41287  0.13935  1.0000
  H   H3551     1.0  0.60215  0.15394  0.04958  1.0000
  H   H3552     1.0  0.61260  0.10304  0.02425  1.0000
  C   C2976     1.0  0.65281  0.19627  0.03796  1.0000
  C   C2977     1.0  0.60919  0.17508  0.03599  1.0000
  C   C2978     1.0  0.60794  0.10219  0.04361  1.0000
  C   C2979     1.0  0.63475  0.16795  0.04961  1.0000
  H   H3553     1.0  0.64329  0.34155  0.12989  1.0000
  C   C2980     1.0  0.51957  0.10708  0.13321  1.0000
  C   C2981     1.0  0.52263  0.41272  0.15336  1.0000
  C   C2982     1.0  0.54536  0.38374  0.15587  1.0000
  N   N196      1.0  0.54123  0.12748  0.13112  1.0000
  C   C2983     1.0  0.54614  0.12119  0.14226  1.0000
  C   C2984     1.0  0.55061  0.12418  0.12032  1.0000
  C   C2985     1.0  0.53945  0.14091  0.12993  1.0000
  C   C2986     1.0  0.52984  0.12353  0.13189  1.0000
  H   H3554     1.0  0.55458  0.12415  0.14212  1.0000
  H   H3555     1.0  0.53921  0.12316  0.15062  1.0000
  H   H3556     1.0  0.54872  0.11107  0.14324  1.0000
  H   H3557     1.0  0.54695  0.12830  0.11188  1.0000
  H   H3558     1.0  0.55348  0.11414  0.12089  1.0000
  H   H3559     1.0  0.55913  0.12753  0.11907  1.0000
  H   H3560     1.0  0.53288  0.14405  0.13798  1.0000
  H   H3561     1.0  0.54821  0.14361  0.12913  1.0000
  H   H3562     1.0  0.53604  0.14617  0.12151  1.0000
  C   C2987     1.0  0.63790  0.37082  0.15606  1.0000
  C   C2988     1.0  0.64381  0.37608  0.12285  1.0000
  C   C2989     1.0  0.64853  0.36939  0.11363  1.0000
  H   H3563     1.0  0.63470  0.37634  0.16323  1.0000
  H   H3564     1.0  0.63472  0.36211  0.16044  1.0000
  H   H3565     1.0  0.64811  0.36868  0.15397  1.0000
  H   H3566     1.0  0.64377  0.38576  0.12009  1.0000
  H   H3567     1.0  0.65193  0.37397  0.10434  1.0000
  H   H3568     1.0  0.70930  0.08693  0.10878  1.0000
  H   H3569     1.0  0.59300  0.33533  0.15719  1.0000
  H   H3570     1.0  0.70356  0.16414  0.07738  1.0000
  C   C2990     1.0  0.55643  0.43735  0.13450  1.0000
  H   H3571     1.0  0.68275  0.47909  0.10933  1.0000
  H   H3572     1.0  0.56471  0.44112  0.13321  1.0000
  C   C2991     1.0  0.73474  0.08531  0.07937  1.0000
  H   H3573     1.0  0.57385  0.42147  0.14411  1.0000
  H   H3574     1.0  0.61590  0.48505  0.13465  1.0000
  H   H3575     1.0  0.52061  0.42243  0.13523  1.0000
  C   C2992     1.0  0.71325  0.08839  0.08939  1.0000
  H   H3576     1.0  0.55373  0.42837  0.16519  1.0000
  H   H3577     1.0  0.66886  0.47665  0.10042  1.0000
  H   H3578     1.0  0.50027  0.11237  0.13328  1.0000
  H   H3579     1.0  0.62464  0.41725  0.15685  1.0000
  H   H3580     1.0  0.58009  0.32816  0.16185  1.0000
  C   C2993     1.0  0.53950  0.41558  0.16006  1.0000
  H   H3581     1.0  0.53805  0.43181  0.13092  1.0000
  H   H3582     1.0  0.70365  0.09081  0.08885  1.0000
  C   C2994     1.0  0.71646  0.08624  0.10060  1.0000
  S   S817      1.0  0.64247  0.16278  0.98351  1.0000
  C   C2995     1.0  0.52586  0.42061  0.14220  1.0000
  H   H3583     1.0  0.71978  0.08977  0.07009  1.0000
  C   C2996     1.0  0.74351  0.14292  0.08955  1.0000
  N   N197      1.0  0.62382  0.11293  0.06225  1.0000
  C   C2997     1.0  0.61311  0.12174  0.06756  1.0000
  C   C2998     1.0  0.62609  0.10162  0.07178  1.0000
  C   C2999     1.0  0.63475  0.11850  0.05896  1.0000
  C   C3000     1.0  0.62116  0.10995  0.05176  1.0000
  C   C3001     1.0  0.62827  0.11242  0.03965  1.0000
  C   C3002     1.0  0.61095  0.10465  0.05343  1.0000
  H   H3584     1.0  0.60484  0.11772  0.07169  1.0000
  H   H3585     1.0  0.61498  0.12483  0.07500  1.0000
  H   H3586     1.0  0.61047  0.12995  0.06044  1.0000
  H   H3587     1.0  0.61785  0.09755  0.07577  1.0000
  H   H3588     1.0  0.62872  0.10345  0.07956  1.0000
  H   H3589     1.0  0.63369  0.09454  0.06799  1.0000
  H   H3590     1.0  0.63358  0.12723  0.05205  1.0000
  H   H3591     1.0  0.63647  0.12070  0.06702  1.0000
  H   H3592     1.0  0.64325  0.11214  0.05536  1.0000
  H   H3593     1.0  0.63611  0.11654  0.03736  1.0000
  H   H3594     1.0  0.60491  0.10281  0.06230  1.0000
  N   N198      1.0  0.57289  0.37914  0.09623  1.0000
  C   C3003     1.0  0.58582  0.37851  0.09634  1.0000
  C   C3004     1.0  0.56669  0.37456  0.10899  1.0000
  C   C3005     1.0  0.57303  0.37075  0.08856  1.0000
  C   C3006     1.0  0.56626  0.39162  0.09137  1.0000
  C   C3007     1.0  0.55360  0.39383  0.09130  1.0000
  C   C3008     1.0  0.57209  0.40177  0.08637  1.0000
  C   C3009     1.0  0.54714  0.40550  0.08670  1.0000
  C   C3010     1.0  0.56555  0.41338  0.08169  1.0000
  C   C3011     1.0  0.55311  0.41524  0.08187  1.0000
  H   H3595     1.0  0.58651  0.38474  0.10180  1.0000
  H   H3596     1.0  0.59041  0.36909  0.10037  1.0000
  H   H3597     1.0  0.59136  0.38083  0.08691  1.0000
  H   H3598     1.0  0.56578  0.38101  0.11490  1.0000
  H   H3599     1.0  0.57175  0.36537  0.11306  1.0000
  H   H3600     1.0  0.55737  0.37334  0.10958  1.0000
  H   H3601     1.0  0.57739  0.37404  0.07884  1.0000
  H   H3602     1.0  0.57827  0.36131  0.09169  1.0000
  H   H3603     1.0  0.56363  0.36993  0.08876  1.0000
  H   H3604     1.0  0.54857  0.38655  0.09484  1.0000
  H   H3605     1.0  0.58166  0.40108  0.08604  1.0000
  H   H3606     1.0  0.53738  0.40706  0.08711  1.0000
  H   H3607     1.0  0.57007  0.42110  0.07825  1.0000
  H   H3608     1.0  0.54803  0.42435  0.07856  1.0000
  H   H3609     1.0  0.54427  0.38683  0.14651  1.0000
  H   H3610     1.0  0.64615  0.23876  0.06828  1.0000
  H   H3611     1.0  0.68854  0.15354  0.09312  1.0000
  H   H3612     1.0  0.60522  0.35274  0.16523  1.0000
  S   S818      1.0  0.52064  0.41935  0.11152  1.0000
  H   H3613     1.0  0.52008  0.09760  0.13318  1.0000
  H   H3614     1.0  0.55888  0.34150  0.16163  1.0000
  C   C3012     1.0  0.61030  0.34342  0.16539  1.0000
  C   C3013     1.0  0.58984  0.41919  0.16088  1.0000
  H   H3615     1.0  0.64941  0.20336  0.04355  1.0000
  H   H3616     1.0  0.67712  0.19589  0.03288  1.0000
  C   C3014     1.0  0.61574  0.33938  0.15432  1.0000
  H   H3617     1.0  0.64341  0.22135  0.99174  1.0000
  H   H3618     1.0  0.71490  0.13688  0.11535  1.0000
  C   C3015     1.0  0.62351  0.31927  0.16575  1.0000
  H   H3619     1.0  0.62880  0.30999  0.16599  1.0000
  H   H3620     1.0  0.49886  0.42599  0.10097  1.0000
  H   H3621     1.0  0.63783  0.46599  0.12254  1.0000
  C   C3016     1.0  0.52937  0.41030  0.16231  1.0000
  C   C3017     1.0  0.59689  0.12634  0.99827  1.0000
  H   H3622     1.0  0.65569  0.20366  0.00254  1.0000
  H   H3623     1.0  0.62955  0.11749  0.12517  1.0000
  H   H3624     1.0  0.57555  0.18065  0.03437  1.0000
  N   N199      1.0  0.63310  0.37738  0.14486  1.0000
  H   H3625     1.0  0.58450  0.22059  0.04478  1.0000
  Fe  Fe408     1.0  0.52143  0.37846  0.14147  1.0000
  C   C3018     1.0  0.57478  0.21099  0.03243  1.0000
  C   C3019     1.0  0.58079  0.35860  0.15121  1.0000
  H   H3626     1.0  0.60153  0.16898  0.10575  1.0000
  H   H3627     1.0  0.56517  0.19698  0.04516  1.0000
  H   H3628     1.0  0.58304  0.35373  0.13378  1.0000
  C   C3020     1.0  0.66543  0.18976  0.01993  1.0000
  C   C3021     1.0  0.61496  0.41775  0.15792  1.0000
  C   C3022     1.0  0.62180  0.17062  0.05088  1.0000
  C   C3023     1.0  0.61480  0.17877  0.05861  1.0000
  C   C3024     1.0  0.62037  0.18383  0.06476  1.0000
  C   C3025     1.0  0.64021  0.17299  0.05588  1.0000
  C   C3026     1.0  0.63307  0.18096  0.06339  1.0000
  H   H3629     1.0  0.60224  0.18207  0.04057  1.0000
  H   H3630     1.0  0.59854  0.16544  0.05814  1.0000
  H   H3631     1.0  0.60495  0.18122  0.05996  1.0000
  H   H3632     1.0  0.61482  0.19002  0.07063  1.0000
  H   H3633     1.0  0.65009  0.17062  0.05495  1.0000
  H   H3634     1.0  0.63740  0.18489  0.06816  1.0000
  C   C3027     1.0  0.51823  0.13180  0.13194  1.0000
  C   C3028     1.0  0.63895  0.28790  0.06131  1.0000
  H   H3635     1.0  0.51710  0.14154  0.13098  1.0000
  C   C3029     1.0  0.58428  0.36016  0.13830  1.0000
  H   H3636     1.0  0.60393  0.10717  0.99830  1.0000
  C   C3030     1.0  0.63456  0.14605  0.11115  1.0000
  H   H3637     1.0  0.64089  0.16193  0.04391  1.0000
  C   C3031     1.0  0.58660  0.19158  0.01997  1.0000
  S   S819      1.0  0.59656  0.37406  0.17712  1.0000
  H   H3638     1.0  0.65176  0.35188  0.10895  1.0000
  H   H3639     1.0  0.57936  0.36780  0.16591  1.0000
  C   C3032     1.0  0.57365  0.34696  0.17213  1.0000
  C   C3033     1.0  0.62522  0.10987  0.02990  1.0000
  N   N200      1.0  0.61561  0.16523  0.04467  1.0000
  C   C3034     1.0  0.60637  0.15891  0.05379  1.0000
  H   H3640     1.0  0.61578  0.17993  0.02874  1.0000
  H   H3641     1.0  0.61056  0.15217  0.06116  1.0000
  H   H3642     1.0  0.58238  0.23234  0.03153  1.0000
  C   C3035     1.0  0.53952  0.37227  0.17643  1.0000
  C   C3036     1.0  0.59074  0.37895  0.13623  1.0000
  C   C3037     1.0  0.62758  0.12737  0.12201  1.0000
  C   C3038     1.0  0.64837  0.35697  0.11618  1.0000
  C   C3039     1.0  0.57740  0.22740  0.04025  1.0000
  C   C3040     1.0  0.57784  0.18962  0.03076  1.0000
  H   H3643     1.0  0.64643  0.12810  0.11386  1.0000
  C   C3041     1.0  0.62417  0.15613  0.03775  1.0000
  H   H3644     1.0  0.61926  0.15180  0.03360  1.0000
  H   H3645     1.0  0.63166  0.39475  0.14928  1.0000
  C   C3042     1.0  0.60780  0.42792  0.15145  1.0000
  H   H3646     1.0  0.61200  0.43518  0.14520  1.0000
  H   H3647     1.0  0.74333  0.14953  0.08066  1.0000
  C   C3043     1.0  0.58939  0.37006  0.13099  1.0000
  C   C3044     1.0  0.72879  0.08389  0.10126  1.0000
  H   H3648     1.0  0.72429  0.16166  0.08036  1.0000
  C   C3045     1.0  0.63876  0.37045  0.13501  1.0000
  H   H3649     1.0  0.55383  0.22647  0.02859  1.0000
  H   H3650     1.0  0.67414  0.25107  0.05937  1.0000
  C   C3046     1.0  0.63547  0.38997  0.14152  1.0000
  H   H3651     1.0  0.63093  0.39591  0.13401  1.0000
  C   C3047     1.0  0.66624  0.24675  0.06456  1.0000
  H   H3652     1.0  0.66590  0.24501  0.07453  1.0000
  H   H3653     1.0  0.63604  0.27387  0.05461  1.0000
  H   H3654     1.0  0.64352  0.24828  0.07895  1.0000
  H   H3655     1.0  0.63115  0.29449  0.05828  1.0000
  H   H3656     1.0  0.65782  0.18670  0.01823  1.0000
  S   S820      1.0  0.61817  0.39547  0.17398  1.0000
  C   C3048     1.0  0.64195  0.27606  0.05913  1.0000
  N   N201      1.0  0.65452  0.25444  0.06137  1.0000
  C   C3049     1.0  0.64447  0.24842  0.06913  1.0000
  C   C3050     1.0  0.61551  0.13403  0.12396  1.0000
  H   H3657     1.0  0.54852  0.44531  0.13387  1.0000
  C   C3051     1.0  0.65188  0.26710  0.06330  1.0000
  H   H3658     1.0  0.60810  0.12927  0.12860  1.0000
  H   H3659     1.0  0.67200  0.19190  0.01109  1.0000
  C   C3052     1.0  0.64547  0.29108  0.06800  1.0000
  H   H3660     1.0  0.65791  0.24511  0.04662  1.0000
  H   H3661     1.0  0.50273  0.35484  0.09836  1.0000
  N   N202      1.0  0.66061  0.20043  0.02591  1.0000
  C   C3053     1.0  0.67121  0.20390  0.02793  1.0000
  H   H3662     1.0  0.64850  0.22244  0.03235  1.0000
  H   H3663     1.0  0.64274  0.30009  0.07018  1.0000
  C   C3054     1.0  0.62236  0.15313  0.11287  1.0000
  H   H3664     1.0  0.62073  0.16479  0.08994  1.0000
  H   H3665     1.0  0.63496  0.16620  0.09219  1.0000
  H   H3666     1.0  0.67703  0.20762  0.01908  1.0000
  H   H3667     1.0  0.66826  0.21098  0.03356  1.0000
  H   H3668     1.0  0.73607  0.12969  0.11167  1.0000
  C   C3055     1.0  0.65523  0.25457  0.04839  1.0000
  H   H3669     1.0  0.59573  0.16186  0.98120  1.0000
  H   H3670     1.0  0.66204  0.25988  0.04215  1.0000
  H   H3671     1.0  0.64548  0.38983  0.13874  1.0000
  H   H3672     1.0  0.61565  0.38347  0.13962  1.0000
  H   H3673     1.0  0.63547  0.25324  0.06667  1.0000
  C   C3056     1.0  0.62243  0.32727  0.15451  1.0000
  C   C3057     1.0  0.62483  0.16933  0.09468  1.0000
  C   C3058     1.0  0.71291  0.14312  0.10702  1.0000
  C   C3059     1.0  0.65837  0.27066  0.07009  1.0000
  C   C3060     1.0  0.65512  0.28248  0.07241  1.0000
  C   C3061     1.0  0.61962  0.37849  0.14777  1.0000
  Fe  Fe409     1.0  0.51953  0.39960  0.11963  1.0000
  C   C3062     1.0  0.59709  0.40881  0.16678  1.0000
  N   N203      1.0  0.61996  0.16656  0.10808  1.0000
  H   H3674     1.0  0.62284  0.17938  0.09078  1.0000
  C   C3063     1.0  0.65344  0.21118  0.01870  1.0000
  C   C3064     1.0  0.61137  0.33527  0.17665  1.0000
  C   C3065     1.0  0.56338  0.34917  0.15603  1.0000
  H   H3675     1.0  0.52705  0.40390  0.17087  1.0000
  S   S821      1.0  0.51373  0.38932  0.10906  1.0000
  C   C3066     1.0  0.63873  0.35779  0.13726  1.0000
  H   H3676     1.0  0.59239  0.37080  0.12121  1.0000
  C   C3067     1.0  0.60673  0.17258  0.11028  1.0000
  H   H3677     1.0  0.63633  0.16907  0.11186  1.0000
  H   H3678     1.0  0.60326  0.15117  0.12096  1.0000
  C   C3068     1.0  0.64772  0.22189  0.02347  1.0000
  H   H3679     1.0  0.65988  0.28493  0.07795  1.0000
  C   C3069     1.0  0.62617  0.17226  0.11401  1.0000
  C   C3070     1.0  0.64354  0.35118  0.12798  1.0000
  H   H3680     1.0  0.64626  0.25860  0.04564  1.0000
  H   H3681     1.0  0.66579  0.26443  0.07398  1.0000
  H   H3682     1.0  0.62428  0.18243  0.11094  1.0000
  C   C3071     1.0  0.65192  0.21140  0.00690  1.0000
  H   H3683     1.0  0.63475  0.35291  0.14614  1.0000
  H   H3684     1.0  0.60249  0.17137  0.12021  1.0000
  H   H3685     1.0  0.60532  0.18268  0.10652  1.0000
  H   H3686     1.0  0.62309  0.17001  0.12413  1.0000
  C   C3072     1.0  0.64060  0.23201  0.01700  1.0000
  H   H3687     1.0  0.63588  0.23989  0.02102  1.0000
  H   H3688     1.0  0.62753  0.48403  0.08191  1.0000
  H   H3689     1.0  0.52672  0.44172  0.09746  1.0000
  H   H3690     1.0  0.74105  0.11252  0.09671  1.0000
  H   H3691     1.0  0.53863  0.10422  0.13245  1.0000
  C   C3073     1.0  0.63814  0.48151  0.10733  1.0000
  S   S822      1.0  0.52638  0.37166  0.16020  1.0000
  C   C3074     1.0  0.64486  0.22161  0.00049  1.0000
  C   C3075     1.0  0.63915  0.23185  0.00555  1.0000
  C   C3076     1.0  0.73647  0.15969  0.10000  1.0000
  H   H3692     1.0  0.59295  0.40123  0.17205  1.0000
  C   C3077     1.0  0.60956  0.40817  0.16559  1.0000
  C   C3078     1.0  0.56519  0.41815  0.14629  1.0000
  H   H3693     1.0  0.74145  0.08498  0.07090  1.0000
  N   N204      1.0  0.73441  0.14766  0.09984  1.0000
  C   C3079     1.0  0.62957  0.48018  0.09089  1.0000
  C   C3080     1.0  0.73692  0.13908  0.11137  1.0000
  H   H3694     1.0  0.56492  0.41164  0.15531  1.0000
  C   C3081     1.0  0.55351  0.43478  0.15618  1.0000
  C   C3082     1.0  0.67098  0.48046  0.09072  1.0000
  C   C3083     1.0  0.49542  0.35109  0.10512  1.0000
  C   C3084     1.0  0.71804  0.15683  0.08749  1.0000
  H   H3695     1.0  0.51501  0.40830  0.15501  1.0000
  C   C3085     1.0  0.59844  0.47819  0.11932  1.0000
  C   C3086     1.0  0.72237  0.08785  0.07881  1.0000
  H   H3696     1.0  0.72966  0.16369  0.10746  1.0000
  S   S823      1.0  0.50589  0.39427  0.13693  1.0000
  H   H3697     1.0  0.61500  0.38372  0.15511  1.0000
  C   C3087     1.0  0.55407  0.38755  0.15962  1.0000
  C   C3088     1.0  0.50565  0.12839  0.10429  1.0000
  Fe  Fe410     1.0  0.50127  0.38261  0.12671  1.0000
  H   H3698     1.0  0.60654  0.46818  0.13469  1.0000
  H   H3699     1.0  0.73051  0.08281  0.11021  1.0000
  H   H3700     1.0  0.55959  0.39354  0.15304  1.0000
  H   H3701     1.0  0.56139  0.43929  0.15424  1.0000
  H   H3702     1.0  0.55703  0.35786  0.15790  1.0000
  H   H3703     1.0  0.54475  0.41295  0.16712  1.0000
  N   N205      1.0  0.55433  0.42845  0.14637  1.0000
  H   H3704     1.0  0.57015  0.33863  0.17758  1.0000
  C   C3089     1.0  0.50768  0.12770  0.13273  1.0000
  H   H3705     1.0  0.58439  0.33556  0.14640  1.0000
  C   C3090     1.0  0.53015  0.11102  0.13262  1.0000
  S   S824      1.0  0.50510  0.10399  0.10758  1.0000
  C   C3091     1.0  0.60509  0.47680  0.12812  1.0000
  C   C3092     1.0  0.66731  0.48128  0.07097  1.0000
  S   S825      1.0  0.56447  0.39113  0.17669  1.0000
  H   H3706     1.0  0.56674  0.35488  0.17524  1.0000
  C   C3093     1.0  0.72179  0.14914  0.09820  1.0000
  H   H3707     1.0  0.59481  0.47058  0.11910  1.0000
  C   C3094     1.0  0.53597  0.42597  0.13985  1.0000
  H   H3708     1.0  0.58244  0.34632  0.17473  1.0000
  C   C3095     1.0  0.70106  0.14480  0.10517  1.0000
  H   H3709     1.0  0.58014  0.41966  0.16215  1.0000
  H   H3710     1.0  0.74178  0.13428  0.08861  1.0000
  H   H3711     1.0  0.54493  0.44198  0.15718  1.0000
  H   H3712     1.0  0.59001  0.14555  0.99590  1.0000
  H   H3713     1.0  0.66275  0.47846  0.06550  1.0000
  C   C3096     1.0  0.60084  0.11617  0.99292  1.0000
  C   C3097     1.0  0.50835  0.11539  0.13330  1.0000
  H   H3714     1.0  0.70032  0.47791  0.09176  1.0000
  H   H3715     1.0  0.73577  0.16645  0.09126  1.0000
  C   C3098     1.0  0.73833  0.08356  0.09058  1.0000
  H   H3716     1.0  0.49573  0.13015  0.10665  1.0000
  H   H3717     1.0  0.49900  0.13419  0.13231  1.0000
  H   H3718     1.0  0.57504  0.15868  0.98654  1.0000
  C   C3099     1.0  0.66532  0.47675  0.08354  1.0000
  H   H3719     1.0  0.65917  0.47045  0.08783  1.0000
  C   C3100     1.0  0.59297  0.13797  0.99133  1.0000
  H   H3720     1.0  0.49930  0.41426  0.09354  1.0000
  C   C3101     1.0  0.63522  0.48652  0.09584  1.0000
  H   H3721     1.0  0.73068  0.14223  0.11957  1.0000
  C   C3102     1.0  0.54822  0.37612  0.18018  1.0000
  H   H3722     1.0  0.50006  0.35523  0.12004  1.0000
  Fe  Fe411     1.0  0.59040  0.37612  0.21140  1.0000
  S   S826      1.0  0.60895  0.36797  0.20111  1.0000
  S   S827      1.0  0.58703  0.38067  0.23029  1.0000
  H   H3723     1.0  0.59846  0.42662  0.19735  1.0000
  H   H3724     1.0  0.63865  0.47301  0.36053  1.0000
  Fe  Fe412     1.0  0.63277  0.39997  0.37506  1.0000
  C   C3103     1.0  0.73859  0.41229  0.31105  1.0000
  H   H3725     1.0  0.58391  0.38408  0.27877  1.0000
  H   H3726     1.0  0.65102  0.45953  0.26787  1.0000
  H   H3727     1.0  0.61523  0.44246  0.36825  1.0000
  S   S828      1.0  0.58009  0.36577  0.20485  1.0000
  S   S829      1.0  0.58689  0.39255  0.19626  1.0000
  Fe  Fe413     1.0  0.72698  0.38612  0.33176  1.0000
  S   S830      1.0  0.71341  0.37526  0.34446  1.0000
  Fe  Fe414     1.0  0.70708  0.40884  0.32653  1.0000
  S   S831      1.0  0.69200  0.40010  0.33922  1.0000
  S   S832      1.0  0.70283  0.42780  0.31503  1.0000
  Fe  Fe415     1.0  0.70521  0.39233  0.35175  1.0000
  S   S833      1.0  0.70161  0.39140  0.37183  1.0000
  Fe  Fe416     1.0  0.70155  0.38398  0.33063  1.0000
  S   S834      1.0  0.68935  0.37416  0.32644  1.0000
  S   S835      1.0  0.71939  0.40274  0.33995  1.0000
  S   S836      1.0  0.71594  0.39315  0.31709  1.0000
  Fe  Fe417     1.0  0.64316  0.47309  0.33150  1.0000
  S   S837      1.0  0.63104  0.46492  0.32531  1.0000
  S   S838      1.0  0.65586  0.45984  0.34307  1.0000
  S   S839      1.0  0.63014  0.42007  0.37363  1.0000
  Fe  Fe418     1.0  0.61623  0.48058  0.33088  1.0000
  S   S840      1.0  0.59705  0.47847  0.34044  1.0000
  C   C3104     1.0  0.60004  0.41644  0.19933  1.0000
  S   S841      1.0  0.64051  0.47215  0.28972  1.0000
  C   C3105     1.0  0.66685  0.43451  0.25633  1.0000
  H   H3728     1.0  0.59071  0.42482  0.21865  1.0000
  Fe  Fe419     1.0  0.62090  0.41856  0.28220  1.0000
  S   S842      1.0  0.61036  0.40367  0.28683  1.0000
  S   S843      1.0  0.61171  0.43852  0.27921  1.0000
  Fe  Fe420     1.0  0.64540  0.40075  0.28299  1.0000
  S   S844      1.0  0.63695  0.38431  0.28785  1.0000
  S   S845      1.0  0.66533  0.40108  0.28064  1.0000
  Fe  Fe421     1.0  0.62585  0.39471  0.27341  1.0000
  S   S846      1.0  0.62573  0.38514  0.25850  1.0000
  Fe  Fe422     1.0  0.62227  0.39473  0.30066  1.0000
  S   S847      1.0  0.61415  0.38767  0.32050  1.0000
  S   S848      1.0  0.63553  0.41048  0.26774  1.0000
  S   S849      1.0  0.63160  0.41033  0.29684  1.0000
  C   C3106     1.0  0.62200  0.38934  0.33084  1.0000
  C   C3107     1.0  0.63437  0.39004  0.32714  1.0000
  C   C3108     1.0  0.64057  0.39120  0.33548  1.0000
  C   C3109     1.0  0.63433  0.39211  0.34746  1.0000
  C   C3110     1.0  0.62192  0.39150  0.35117  1.0000
  C   C3111     1.0  0.61585  0.38988  0.34293  1.0000
  H   H3729     1.0  0.63923  0.38944  0.31791  1.0000
  H   H3730     1.0  0.65019  0.39154  0.33259  1.0000
  H   H3731     1.0  0.66715  0.46034  0.27375  1.0000
  H   H3732     1.0  0.60635  0.38907  0.34591  1.0000
  C   C3112     1.0  0.59660  0.46618  0.35314  1.0000
  C   C3113     1.0  0.60744  0.45849  0.35614  1.0000
  H   H3733     1.0  0.61622  0.46055  0.35109  1.0000
  H   H3734     1.0  0.65843  0.41082  0.37315  1.0000
  C   C3114     1.0  0.63088  0.46360  0.28811  1.0000
  C   C3115     1.0  0.62625  0.46698  0.27748  1.0000
  C   C3116     1.0  0.62009  0.45936  0.27504  1.0000
  C   C3117     1.0  0.61897  0.44807  0.28294  1.0000
  C   C3118     1.0  0.62352  0.44467  0.29367  1.0000
  C   C3119     1.0  0.62918  0.45262  0.29642  1.0000
  H   H3735     1.0  0.60615  0.46233  0.31595  1.0000
  H   H3736     1.0  0.61650  0.46207  0.26680  1.0000
  H   H3737     1.0  0.62257  0.43601  0.29989  1.0000
  H   H3738     1.0  0.63273  0.44999  0.30466  1.0000
  C   C3120     1.0  0.69017  0.43706  0.32291  1.0000
  C   C3121     1.0  0.68599  0.43342  0.33552  1.0000
  C   C3122     1.0  0.67554  0.44056  0.34166  1.0000
  C   C3123     1.0  0.66920  0.45136  0.33521  1.0000
  C   C3124     1.0  0.67348  0.45512  0.32262  1.0000
  C   C3125     1.0  0.68400  0.44801  0.31650  1.0000
  H   H3739     1.0  0.69085  0.42515  0.34062  1.0000
  H   H3740     1.0  0.67233  0.43766  0.35142  1.0000
  H   H3741     1.0  0.66873  0.46351  0.31761  1.0000
  H   H3742     1.0  0.68729  0.45099  0.30679  1.0000
  Fe  Fe423     1.0  0.59859  0.35895  0.19342  1.0000
  H   H3743     1.0  0.62614  0.40883  0.23890  1.0000
  H   H3744     1.0  0.64420  0.43640  0.27118  1.0000
  C   C3126     1.0  0.67659  0.36004  0.37253  1.0000
  N   N206      1.0  0.59313  0.45048  0.32290  1.0000
  C   C3127     1.0  0.68260  0.38185  0.31381  1.0000
  C   C3128     1.0  0.67139  0.37970  0.31334  1.0000
  C   C3129     1.0  0.66602  0.38555  0.30319  1.0000
  C   C3130     1.0  0.67197  0.39335  0.29334  1.0000
  C   C3131     1.0  0.68326  0.39535  0.29374  1.0000
  C   C3132     1.0  0.68844  0.38981  0.30404  1.0000
  H   H3745     1.0  0.66684  0.37351  0.32084  1.0000
  H   H3746     1.0  0.65739  0.38385  0.30287  1.0000
  H   H3747     1.0  0.68805  0.40113  0.28604  1.0000
  H   H3748     1.0  0.69717  0.39136  0.30423  1.0000
  H   H3749     1.0  0.65269  0.36988  0.37272  1.0000
  C   C3133     1.0  0.59878  0.42129  0.22253  1.0000
  H   H3750     1.0  0.67255  0.35885  0.34500  1.0000
  H   H3751     1.0  0.67814  0.39777  0.36517  1.0000
  C   C3134     1.0  0.62179  0.41415  0.19610  1.0000
  C   C3135     1.0  0.60690  0.44815  0.36577  1.0000
  C   C3136     1.0  0.60966  0.41398  0.21678  1.0000
  S   S850      1.0  0.60463  0.33942  0.19095  1.0000
  H   H3752     1.0  0.61342  0.39408  0.19866  1.0000
  N   N207      1.0  0.67067  0.36423  0.36188  1.0000
  C   C3137     1.0  0.59069  0.37936  0.28428  1.0000
  H   H3753     1.0  0.63051  0.40894  0.19891  1.0000
  C   C3138     1.0  0.59799  0.38228  0.23771  1.0000
  C   C3139     1.0  0.59404  0.38917  0.24689  1.0000
  C   C3140     1.0  0.60239  0.39046  0.25313  1.0000
  C   C3141     1.0  0.61480  0.38468  0.25042  1.0000
  C   C3142     1.0  0.61875  0.37787  0.24119  1.0000
  C   C3143     1.0  0.61044  0.37669  0.23487  1.0000
  H   H3754     1.0  0.58445  0.39356  0.24917  1.0000
  H   H3755     1.0  0.59921  0.39582  0.26011  1.0000
  H   H3756     1.0  0.62831  0.37335  0.23898  1.0000
  H   H3757     1.0  0.61362  0.37127  0.22794  1.0000
  N   N208      1.0  0.65776  0.42453  0.31703  1.0000
  C   C3144     1.0  0.66751  0.41784  0.32394  1.0000
  C   C3145     1.0  0.65823  0.41730  0.30809  1.0000
  C   C3146     1.0  0.66062  0.43653  0.30998  1.0000
  C   C3147     1.0  0.64578  0.42647  0.32569  1.0000
  C   C3148     1.0  0.63584  0.42144  0.32574  1.0000
  C   C3149     1.0  0.64392  0.43328  0.33474  1.0000
  C   C3150     1.0  0.62493  0.42284  0.33457  1.0000
  C   C3151     1.0  0.63290  0.43483  0.34334  1.0000
  C   C3152     1.0  0.62348  0.42947  0.34339  1.0000
  H   H3758     1.0  0.66541  0.40897  0.32977  1.0000
  H   H3759     1.0  0.67668  0.41577  0.31776  1.0000
  H   H3760     1.0  0.66858  0.42318  0.33007  1.0000
  H   H3761     1.0  0.65115  0.42178  0.30253  1.0000
  C   C3153     1.0  0.60196  0.47755  0.37724  1.0000
  H   H3762     1.0  0.66728  0.41625  0.30157  1.0000
  H   H3763     1.0  0.66067  0.44251  0.31595  1.0000
  H   H3764     1.0  0.66986  0.43538  0.30387  1.0000
  H   H3765     1.0  0.65380  0.44171  0.30428  1.0000
  H   H3766     1.0  0.63638  0.41600  0.31934  1.0000
  H   H3767     1.0  0.65105  0.43734  0.33538  1.0000
  H   H3768     1.0  0.61772  0.41841  0.33479  1.0000
  H   H3769     1.0  0.63182  0.44000  0.35017  1.0000
  H   H3770     1.0  0.61517  0.43026  0.35044  1.0000
  H   H3771     1.0  0.58295  0.46928  0.32085  1.0000
  H   H3772     1.0  0.62757  0.47546  0.27102  1.0000
  H   H3773     1.0  0.60552  0.45452  0.33151  1.0000
  C   C3154     1.0  0.59252  0.45082  0.31021  1.0000
  H   H3774     1.0  0.63275  0.35675  0.29212  1.0000
  C   C3155     1.0  0.59154  0.43700  0.34398  1.0000
  H   H3775     1.0  0.61483  0.36317  0.30413  1.0000
  H   H3776     1.0  0.59150  0.44458  0.34768  1.0000
  H   H3777     1.0  0.58380  0.44867  0.30994  1.0000
  H   H3778     1.0  0.58247  0.39004  0.29808  1.0000
  Fe  Fe424     1.0  0.60488  0.38386  0.18574  1.0000
  C   C3156     1.0  0.65735  0.36416  0.36579  1.0000
  H   H3779     1.0  0.59702  0.48599  0.37238  1.0000
  H   H3780     1.0  0.63573  0.44162  0.37757  1.0000
  C   C3157     1.0  0.67304  0.45139  0.27577  1.0000
  H   H3781     1.0  0.67507  0.43763  0.25003  1.0000
  C   C3158     1.0  0.60785  0.41976  0.23952  1.0000
  C   C3159     1.0  0.69005  0.43936  0.28517  1.0000
  C   C3160     1.0  0.67156  0.44091  0.27263  1.0000
  C   C3161     1.0  0.63914  0.44980  0.37170  1.0000
  H   H3782     1.0  0.68695  0.37460  0.36818  1.0000
  S   S851      1.0  0.64252  0.39358  0.35755  1.0000
  C   C3162     1.0  0.67653  0.35585  0.35334  1.0000
  H   H3783     1.0  0.69447  0.42009  0.28553  1.0000
  C   C3163     1.0  0.65208  0.43575  0.27527  1.0000
  H   H3784     1.0  0.63575  0.45216  0.36309  1.0000
  H   H3785     1.0  0.66768  0.38361  0.36103  1.0000
  H   H3786     1.0  0.61284  0.44619  0.31965  1.0000
  H   H3787     1.0  0.63282  0.36522  0.27676  1.0000
  H   H3788     1.0  0.63951  0.34916  0.27973  1.0000
  C   C3164     1.0  0.68223  0.45058  0.28185  1.0000
  H   H3789     1.0  0.66311  0.45904  0.25430  1.0000
  C   C3165     1.0  0.61860  0.41253  0.23417  1.0000
  C   C3166     1.0  0.67941  0.42956  0.27655  1.0000
  H   H3790     1.0  0.58955  0.42959  0.23802  1.0000
  H   H3791     1.0  0.62791  0.40367  0.21945  1.0000
  Fe  Fe425     1.0  0.57859  0.38155  0.18858  1.0000
  H   H3792     1.0  0.62032  0.39192  0.21122  1.0000
  H   H3793     1.0  0.64916  0.45425  0.25573  1.0000
  H   H3794     1.0  0.68656  0.35567  0.35013  1.0000
  N   N209      1.0  0.63513  0.46031  0.37783  1.0000
  H   H3795     1.0  0.60041  0.36804  0.27179  1.0000
  C   C3167     1.0  0.63166  0.35630  0.28307  1.0000
  H   H3796     1.0  0.65547  0.35483  0.36958  1.0000
  N   N210      1.0  0.61082  0.41058  0.20506  1.0000
  C   C3168     1.0  0.64102  0.47038  0.36967  1.0000
  Fe  Fe426     1.0  0.63544  0.47810  0.30762  1.0000
  H   H3797     1.0  0.65124  0.46755  0.36782  1.0000
  S   S852      1.0  0.64872  0.48525  0.31330  1.0000
  C   C3169     1.0  0.61225  0.39713  0.20723  1.0000
  C   C3170     1.0  0.66657  0.41040  0.37624  1.0000
  H   H3798     1.0  0.62250  0.41230  0.18698  1.0000
  H   H3799     1.0  0.60028  0.44424  0.30592  1.0000
  H   H3800     1.0  0.57683  0.46969  0.35776  1.0000
  H   H3801     1.0  0.62542  0.33422  0.29010  1.0000
  C   C3171     1.0  0.61951  0.40962  0.22301  1.0000
  H   H3802     1.0  0.68317  0.45871  0.28414  1.0000
  N   N211      1.0  0.61964  0.35370  0.28355  1.0000
  C   C3172     1.0  0.62007  0.35164  0.27136  1.0000
  C   C3173     1.0  0.61815  0.34217  0.29266  1.0000
  C   C3174     1.0  0.60831  0.36747  0.29831  1.0000
  C   C3175     1.0  0.59863  0.37677  0.30216  1.0000
  H   H3803     1.0  0.62120  0.36003  0.26410  1.0000
  H   H3804     1.0  0.62796  0.34421  0.26867  1.0000
  H   H3805     1.0  0.61164  0.34890  0.27116  1.0000
  H   H3806     1.0  0.61868  0.34269  0.30191  1.0000
  H   H3807     1.0  0.60908  0.34009  0.29350  1.0000
  H   H3808     1.0  0.64854  0.44030  0.28314  1.0000
  H   H3809     1.0  0.59801  0.37946  0.31058  1.0000
  C   C3176     1.0  0.68856  0.42885  0.28264  1.0000
  H   H3810     1.0  0.65994  0.43567  0.25082  1.0000
  H   H3811     1.0  0.59154  0.41350  0.20519  1.0000
  H   H3812     1.0  0.73368  0.39241  0.36832  1.0000
  H   H3813     1.0  0.67843  0.42110  0.27507  1.0000
  H   H3814     1.0  0.60712  0.42178  0.24830  1.0000
  C   C3177     1.0  0.58986  0.38273  0.29514  1.0000
  C   C3178     1.0  0.68817  0.40200  0.37606  1.0000
  H   H3815     1.0  0.65691  0.40785  0.31274  1.0000
  H   H3816     1.0  0.67544  0.34629  0.35759  1.0000
  H   H3817     1.0  0.61708  0.39203  0.36043  1.0000
  H   H3818     1.0  0.66946  0.42443  0.25980  1.0000
  C   C3179     1.0  0.59797  0.42412  0.23372  1.0000
  H   H3819     1.0  0.65264  0.36800  0.35796  1.0000
  C   C3180     1.0  0.67176  0.37686  0.35504  1.0000
  C   C3181     1.0  0.60950  0.36384  0.28724  1.0000
  H   H3820     1.0  0.59309  0.45998  0.30410  1.0000
  C   C3182     1.0  0.67774  0.40302  0.37169  1.0000
  H   H3821     1.0  0.64934  0.44693  0.36929  1.0000
  C   C3183     1.0  0.58288  0.46023  0.32732  1.0000
  C   C3184     1.0  0.59234  0.43843  0.33130  1.0000
  C   C3185     1.0  0.59299  0.42771  0.32720  1.0000
  C   C3186     1.0  0.65612  0.45411  0.26080  1.0000
  C   C3187     1.0  0.59264  0.41641  0.33540  1.0000
  C   C3188     1.0  0.59108  0.42571  0.35211  1.0000
  C   C3189     1.0  0.59161  0.41543  0.34783  1.0000
  H   H3822     1.0  0.58345  0.46181  0.33613  1.0000
  H   H3823     1.0  0.57383  0.45791  0.32861  1.0000
  H   H3824     1.0  0.59388  0.42774  0.31771  1.0000
  H   H3825     1.0  0.59334  0.40830  0.33207  1.0000
  H   H3826     1.0  0.59046  0.42490  0.36178  1.0000
  H   H3827     1.0  0.59139  0.40665  0.35416  1.0000
  H   H3828     1.0  0.72907  0.37640  0.36113  1.0000
  N   N212      1.0  0.66185  0.44140  0.26631  1.0000
  H   H3829     1.0  0.66918  0.34345  0.38010  1.0000
  H   H3830     1.0  0.68145  0.37746  0.35078  1.0000
  H   H3831     1.0  0.72970  0.41456  0.30808  1.0000
  C   C3190     1.0  0.58525  0.46370  0.35998  1.0000
  C   C3191     1.0  0.60031  0.37005  0.28035  1.0000
  C   C3192     1.0  0.60491  0.45351  0.32246  1.0000
  H   H3832     1.0  0.66691  0.37996  0.34730  1.0000
  H   H3833     1.0  0.65548  0.42588  0.27897  1.0000
  H   H3834     1.0  0.54899  0.37343  0.18965  1.0000
  H   H3835     1.0  0.60399  0.39418  0.21356  1.0000
  H   H3836     1.0  0.62143  0.42410  0.19479  1.0000
  C   C3193     1.0  0.68478  0.36628  0.37433  1.0000
  H   H3837     1.0  0.69709  0.43876  0.28998  1.0000
  H   H3838     1.0  0.74255  0.35633  0.36190  1.0000
  H   H3839     1.0  0.61873  0.31682  0.18533  1.0000
  H   H3840     1.0  0.60133  0.41380  0.19045  1.0000
  C   C3194     1.0  0.58474  0.45332  0.36954  1.0000
  H   H3841     1.0  0.74115  0.42314  0.28700  1.0000
  C   C3195     1.0  0.59557  0.44540  0.37233  1.0000
  H   H3842     1.0  0.57593  0.45134  0.37469  1.0000
  H   H3843     1.0  0.61921  0.48174  0.36802  1.0000
  C   C3196     1.0  0.61480  0.47492  0.37476  1.0000
  H   H3844     1.0  0.63836  0.47864  0.37370  1.0000
  C   C3197     1.0  0.73979  0.38343  0.36893  1.0000
  H   H3845     1.0  0.53381  0.36643  0.18303  1.0000
  H   H3846     1.0  0.73860  0.40253  0.29289  1.0000
  H   H3847     1.0  0.73871  0.42022  0.31461  1.0000
  C   C3198     1.0  0.73719  0.37436  0.36487  1.0000
  H   H3848     1.0  0.73845  0.40424  0.31883  1.0000
  C   C3199     1.0  0.62154  0.46370  0.38064  1.0000
  C   C3200     1.0  0.67486  0.34897  0.38111  1.0000
  H   H3849     1.0  0.62964  0.39431  0.46555  1.0000
  C   C3201     1.0  0.72174  0.36681  0.55779  1.0000
  C   C3202     1.0  0.58631  0.27423  0.57486  1.0000
  H   H3850     1.0  0.61774  0.04089  0.57257  1.0000
  S   S853      1.0  0.66455  0.36200  0.57012  1.0000
  H   H3851     1.0  0.65206  0.00949  0.56872  1.0000
  S   S854      1.0  0.61417  0.39853  0.38698  1.0000
  H   H3852     1.0  0.63656  0.46412  0.39443  1.0000
  C   C3203     1.0  0.72670  0.39886  0.55421  1.0000
  Fe  Fe427     1.0  0.62329  0.39511  0.40283  1.0000
  S   S855      1.0  0.62023  0.38046  0.42005  1.0000
  C   C3204     1.0  0.63983  0.45666  0.38925  1.0000
  C   C3205     1.0  0.61461  0.45536  0.38906  1.0000
  S   S856      1.0  0.61953  0.41497  0.40348  1.0000
  H   H3853     1.0  0.61067  0.33268  0.53857  1.0000
  Fe  Fe428     1.0  0.64344  0.36695  0.47959  1.0000
  S   S857      1.0  0.64489  0.37528  0.49438  1.0000
  S   S858      1.0  0.65037  0.37565  0.45982  1.0000
  Fe  Fe429     1.0  0.62899  0.34883  0.49779  1.0000
  S   S859      1.0  0.62874  0.35586  0.51399  1.0000
  S   S860      1.0  0.61884  0.33474  0.49827  1.0000
  Fe  Fe430     1.0  0.62508  0.37445  0.50183  1.0000
  S   S861      1.0  0.61188  0.39165  0.50593  1.0000
  Fe  Fe431     1.0  0.64855  0.35598  0.50521  1.0000
  S   S862      1.0  0.66164  0.34696  0.51782  1.0000
  S   S863      1.0  0.62339  0.36746  0.48638  1.0000
  S   S864      1.0  0.64909  0.34753  0.48972  1.0000
  S   S865      1.0  0.61640  0.28755  0.54073  1.0000
  H   H3854     1.0  0.65293  0.36467  0.39802  1.0000
  C   C3206     1.0  0.66623  0.39463  0.41209  1.0000
  S   S866      1.0  0.56648  0.39037  0.55063  1.0000
  C   C3207     1.0  0.66553  0.32093  0.56132  1.0000
  S   S867      1.0  0.68424  0.37744  0.54049  1.0000
  C   C3208     1.0  0.61913  0.32153  0.51001  1.0000
  C   C3209     1.0  0.61312  0.31272  0.50966  1.0000
  C   C3210     1.0  0.61245  0.30234  0.51913  1.0000
  C   C3211     1.0  0.61777  0.30068  0.52906  1.0000
  C   C3212     1.0  0.62389  0.30944  0.52946  1.0000
  C   C3213     1.0  0.62462  0.31988  0.51986  1.0000
  H   H3855     1.0  0.60884  0.31398  0.50208  1.0000
  H   H3856     1.0  0.60772  0.29561  0.51878  1.0000
  H   H3857     1.0  0.62805  0.30815  0.53711  1.0000
  H   H3858     1.0  0.62926  0.32669  0.52014  1.0000
  C   C3214     1.0  0.66779  0.35580  0.52381  1.0000
  C   C3215     1.0  0.66722  0.36834  0.51894  1.0000
  C   C3216     1.0  0.67243  0.37499  0.52395  1.0000
  C   C3217     1.0  0.67790  0.36918  0.53401  1.0000
  C   C3218     1.0  0.67823  0.35672  0.53899  1.0000
  C   C3219     1.0  0.67338  0.35003  0.53377  1.0000
  H   H3859     1.0  0.66298  0.37285  0.51121  1.0000
  H   H3860     1.0  0.67214  0.38464  0.52009  1.0000
  H   H3861     1.0  0.68250  0.35215  0.54670  1.0000
  H   H3862     1.0  0.67399  0.34033  0.53747  1.0000
  C   C3220     1.0  0.59963  0.39072  0.51867  1.0000
  C   C3221     1.0  0.59010  0.40105  0.51948  1.0000
  C   C3222     1.0  0.58006  0.40078  0.52939  1.0000
  C   C3223     1.0  0.57960  0.39029  0.53873  1.0000
  C   C3224     1.0  0.58924  0.37994  0.53807  1.0000
  C   C3225     1.0  0.59919  0.38009  0.52792  1.0000
  H   H3863     1.0  0.59041  0.40929  0.51239  1.0000
  H   H3864     1.0  0.57264  0.40878  0.52986  1.0000
  H   H3865     1.0  0.58881  0.37173  0.54513  1.0000
  H   H3866     1.0  0.60643  0.37201  0.52725  1.0000
  C   C3226     1.0  0.62785  0.37971  0.43157  1.0000
  C   C3227     1.0  0.63450  0.38851  0.43047  1.0000
  C   C3228     1.0  0.64091  0.38748  0.43952  1.0000
  C   C3229     1.0  0.64077  0.37762  0.44965  1.0000
  C   C3230     1.0  0.63366  0.36912  0.45105  1.0000
  C   C3231     1.0  0.62726  0.37014  0.44198  1.0000
  H   H3867     1.0  0.63479  0.39604  0.42259  1.0000
  H   H3868     1.0  0.64607  0.39427  0.43865  1.0000
  H   H3869     1.0  0.63341  0.36153  0.45888  1.0000
  H   H3870     1.0  0.62200  0.36338  0.44296  1.0000
  H   H3871     1.0  0.62095  0.39442  0.48072  1.0000
  H   H3872     1.0  0.59098  0.37156  0.46341  1.0000
  C   C3232     1.0  0.60059  0.38951  0.47613  1.0000
  N   N213      1.0  0.67354  0.38217  0.41594  1.0000
  C   C3233     1.0  0.58854  0.33189  0.55034  1.0000
  H   H3873     1.0  0.64481  0.37831  0.54980  1.0000
  S   S868      1.0  0.62584  0.01566  0.57053  1.0000
  H   H3874     1.0  0.71891  0.36428  0.56795  1.0000
  H   H3875     1.0  0.60971  0.40054  0.44539  1.0000
  H   H3876     1.0  0.65738  0.31877  0.49696  1.0000
  C   C3234     1.0  0.65797  0.30464  0.51388  1.0000
  H   H3877     1.0  0.64572  0.35096  0.41752  1.0000
  H   H3878     1.0  0.64505  0.31023  0.48902  1.0000
  H   H3879     1.0  0.67784  0.32180  0.51449  1.0000
  H   H3880     1.0  0.58830  0.33727  0.55704  1.0000
  C   C3235     1.0  0.65857  0.01308  0.57165  1.0000
  N   N214      1.0  0.59153  0.33882  0.53757  1.0000
  H   H3881     1.0  0.57953  0.32923  0.55241  1.0000
  H   H3882     1.0  0.65441  0.28969  0.52965  1.0000
  C   C3236     1.0  0.59168  0.33089  0.52944  1.0000
  C   C3237     1.0  0.58271  0.35058  0.53483  1.0000
  C   C3238     1.0  0.58471  0.35849  0.52311  1.0000
  C   C3239     1.0  0.57201  0.35450  0.54348  1.0000
  C   C3240     1.0  0.57667  0.36977  0.52035  1.0000
  C   C3241     1.0  0.56402  0.36578  0.54060  1.0000
  C   C3242     1.0  0.56638  0.37342  0.52910  1.0000
  N   N215      1.0  0.66769  0.00296  0.57728  1.0000
  Fe  Fe432     1.0  0.61216  0.41848  0.38659  1.0000
  H   H3883     1.0  0.60782  0.34445  0.52561  1.0000
  C   C3243     1.0  0.64352  0.29490  0.50420  1.0000
  H   H3884     1.0  0.63772  0.29138  0.50068  1.0000
  N   N216      1.0  0.66486  0.31000  0.51940  1.0000
  H   H3885     1.0  0.59513  0.33482  0.51964  1.0000
  H   H3886     1.0  0.59769  0.32168  0.53166  1.0000
  H   H3887     1.0  0.58231  0.32947  0.53038  1.0000
  H   H3888     1.0  0.59263  0.35608  0.51606  1.0000
  S   S869      1.0  0.64538  0.27497  0.55492  1.0000
  H   H3889     1.0  0.57863  0.37588  0.51152  1.0000
  S   S870      1.0  0.55209  0.36619  0.57631  1.0000
  H   H3890     1.0  0.56042  0.38238  0.52715  1.0000
  C   C3244     1.0  0.61581  0.41494  0.45470  1.0000
  H   H3891     1.0  0.60785  0.41974  0.45033  1.0000
  H   H3892     1.0  0.61990  0.42211  0.45585  1.0000
  H   H3893     1.0  0.62302  0.40985  0.44825  1.0000
  H   H3894     1.0  0.61940  0.37764  0.56314  1.0000
  C   C3245     1.0  0.63373  0.37264  0.53481  1.0000
  H   H3895     1.0  0.61777  0.12145  0.56331  1.0000
  C   C3246     1.0  0.59520  0.38038  0.47536  1.0000
  H   H3896     1.0  0.67086  0.40192  0.41197  1.0000
  C   C3247     1.0  0.65480  0.31035  0.50236  1.0000
  C   C3248     1.0  0.66591  0.41696  0.38496  1.0000
  C   C3249     1.0  0.68534  0.38051  0.40687  1.0000
  C   C3250     1.0  0.60013  0.38626  0.45337  1.0000
  C   C3251     1.0  0.66264  0.36464  0.42740  1.0000
  H   H3897     1.0  0.59456  0.41835  0.47225  1.0000
  H   H3898     1.0  0.69098  0.38703  0.40658  1.0000
  H   H3899     1.0  0.55618  0.36883  0.54749  1.0000
  C   C3252     1.0  0.73542  0.37913  0.56575  1.0000
  H   H3900     1.0  0.65708  0.39619  0.41828  1.0000
  H   H3901     1.0  0.64250  0.28131  0.52098  1.0000
  H   H3902     1.0  0.67980  0.29415  0.51998  1.0000
  C   C3253     1.0  0.67360  0.30031  0.52600  1.0000
  H   H3903     1.0  0.66456  0.36443  0.43606  1.0000
  C   C3254     1.0  0.67216  0.31847  0.51023  1.0000
  H   H3904     1.0  0.66624  0.32698  0.50604  1.0000
  H   H3905     1.0  0.67842  0.31394  0.50287  1.0000
  H   H3906     1.0  0.64967  0.32480  0.52354  1.0000
  H   H3907     1.0  0.60392  0.34811  0.54048  1.0000
  C   C3255     1.0  0.62313  0.40034  0.47152  1.0000
  H   H3908     1.0  0.66892  0.29458  0.53430  1.0000
  H   H3909     1.0  0.67601  0.42166  0.39545  1.0000
  H   H3910     1.0  0.66500  0.32509  0.55193  1.0000
  H   H3911     1.0  0.72069  0.39276  0.53559  1.0000
  C   C3256     1.0  0.64628  0.28921  0.51560  1.0000
  Fe  Fe433     1.0  0.63773  0.41483  0.39045  1.0000
  H   H3912     1.0  0.72068  0.40470  0.54832  1.0000
  H   H3913     1.0  0.70409  0.38417  0.56756  1.0000
  H   H3914     1.0  0.59142  0.37437  0.48362  1.0000
  H   H3915     1.0  0.70418  0.39561  0.55364  1.0000
  H   H3916     1.0  0.73146  0.36215  0.55491  1.0000
  N   N217      1.0  0.60616  0.24974  0.55744  1.0000
  H   H3917     1.0  0.64144  0.36595  0.53058  1.0000
  H   H3918     1.0  0.65020  0.31109  0.53534  1.0000
  H   H3919     1.0  0.60866  0.25027  0.53824  1.0000
  C   C3257     1.0  0.62315  0.33321  0.56179  1.0000
  Fe  Fe434     1.0  0.62568  0.28447  0.55626  1.0000
  H   H3920     1.0  0.65068  0.36282  0.54834  1.0000
  C   C3258     1.0  0.60401  0.34115  0.53545  1.0000
  S   S871      1.0  0.59460  0.43219  0.38404  1.0000
  H   H3921     1.0  0.66790  0.38323  0.43499  1.0000
  H   H3922     1.0  0.60587  0.34195  0.57149  1.0000
  S   S872      1.0  0.67667  0.38359  0.57307  1.0000
  Fe  Fe435     1.0  0.56763  0.37589  0.56781  1.0000
  C   C3259     1.0  0.70668  0.38561  0.55741  1.0000
  H   H3923     1.0  0.64111  0.36610  0.56251  1.0000
  C   C3260     1.0  0.73355  0.40447  0.55843  1.0000
  C   C3261     1.0  0.59453  0.26851  0.56578  1.0000
  C   C3262     1.0  0.66289  0.30926  0.56647  1.0000
  H   H3924     1.0  0.68123  0.01378  0.57346  1.0000
  C   C3263     1.0  0.60390  0.11380  0.57746  1.0000
  C   C3264     1.0  0.63681  0.34657  0.54944  1.0000
  S   S873      1.0  0.64213  0.39472  0.39091  1.0000
  H   H3925     1.0  0.62130  0.32412  0.56553  1.0000
  S   S874      1.0  0.62703  0.29890  0.56487  1.0000
  C   C3265     1.0  0.68061  0.34468  0.39106  1.0000
  H   H3926     1.0  0.67112  0.33612  0.56411  1.0000
  C   C3266     1.0  0.72291  0.38281  0.53975  1.0000
  H   H3927     1.0  0.56968  0.34915  0.55263  1.0000
  H   H3928     1.0  0.73629  0.36939  0.56931  1.0000
  H   H3929     1.0  0.61439  0.23205  0.55269  1.0000
  H   H3930     1.0  0.61905  0.44642  0.39347  1.0000
  N   N218      1.0  0.71988  0.38032  0.55331  1.0000
  C   C3267     1.0  0.60758  0.23621  0.56003  1.0000
  C   C3268     1.0  0.66663  0.37295  0.41643  1.0000
  H   H3931     1.0  0.62551  0.37306  0.53139  1.0000
  H   H3932     1.0  0.49879  0.17145  0.57375  1.0000
  H   H3933     1.0  0.68396  0.38233  0.39739  1.0000
  C   C3269     1.0  0.64771  0.30549  0.49763  1.0000
  C   C3270     1.0  0.51172  0.37616  0.55926  1.0000
  H   H3934     1.0  0.59994  0.29522  0.57696  1.0000
  C   C3271     1.0  0.69066  0.36177  0.38417  1.0000
  H   H3935     1.0  0.70073  0.38133  0.55445  1.0000
  H   H3936     1.0  0.60247  0.26481  0.54226  1.0000
  H   H3937     1.0  0.63474  0.13984  0.57278  1.0000
  H   H3938     1.0  0.59290  0.25381  0.54628  1.0000
  C   C3272     1.0  0.66898  0.32719  0.56822  1.0000
  C   C3273     1.0  0.65588  0.36449  0.40616  1.0000
  C   C3274     1.0  0.60236  0.25488  0.54555  1.0000
  S   S875      1.0  0.65159  0.42388  0.39262  1.0000
  C   C3275     1.0  0.65185  0.35672  0.41712  1.0000
  H   H3939     1.0  0.68210  0.37242  0.43118  1.0000
  C   C3276     1.0  0.65323  0.29407  0.52048  1.0000
  C   C3277     1.0  0.68849  0.35107  0.39259  1.0000
  H   H3940     1.0  0.59876  0.23358  0.56096  1.0000
  H   H3941     1.0  0.65199  0.35080  0.43625  1.0000
  C   C3278     1.0  0.52576  0.38583  0.56359  1.0000
  H   H3942     1.0  0.62565  0.24745  0.54960  1.0000
  H   H3943     1.0  0.64568  0.34732  0.54351  1.0000
  C   C3279     1.0  0.66362  0.30389  0.57863  1.0000
  H   H3944     1.0  0.60747  0.42199  0.47534  1.0000
  C   C3280     1.0  0.65538  0.35667  0.42766  1.0000
  H   H3945     1.0  0.60017  0.38481  0.44451  1.0000
  C   C3281     1.0  0.60597  0.39730  0.46549  1.0000
  H   H3946     1.0  0.66596  0.37842  0.39708  1.0000
  H   H3947     1.0  0.60169  0.40912  0.48465  1.0000
  H   H3948     1.0  0.60086  0.39014  0.48516  1.0000
  Fe  Fe436     1.0  0.68084  0.37035  0.56080  1.0000
  Fe  Fe437     1.0  0.63062  0.99496  0.57320  1.0000
  C   C3282     1.0  0.65596  0.31697  0.52820  1.0000
  H   H3949     1.0  0.68161  0.38856  0.42716  1.0000
  H   H3950     1.0  0.69087  0.37104  0.40900  1.0000
  H   H3951     1.0  0.66451  0.39623  0.40279  1.0000
  C   C3283     1.0  0.60562  0.39535  0.45403  1.0000
  N   N219      1.0  0.61199  0.40662  0.46656  1.0000
  C   C3284     1.0  0.60354  0.41434  0.47502  1.0000
  C   C3285     1.0  0.67641  0.38152  0.42783  1.0000
  C   C3286     1.0  0.66326  0.37240  0.40575  1.0000
  H   H3952     1.0  0.62806  0.40693  0.47246  1.0000
  H   H3953     1.0  0.66759  0.00412  0.55269  1.0000
  C   C3287     1.0  0.59498  0.37876  0.46400  1.0000
  H   H3954     1.0  0.53277  0.39125  0.56047  1.0000
  H   H3955     1.0  0.67935  0.30429  0.52954  1.0000
  H   H3956     1.0  0.66068  0.32082  0.53299  1.0000
  H   H3957     1.0  0.59545  0.32318  0.55217  1.0000
  C   C3288     1.0  0.62817  0.35708  0.55277  1.0000
  Fe  Fe438     1.0  0.64640  0.28864  0.56498  1.0000
  H   H3958     1.0  0.63627  0.38175  0.53117  1.0000
  H   H3959     1.0  0.71756  0.37841  0.53616  1.0000
  C   C3289     1.0  0.67652  0.41656  0.38873  1.0000
  C   C3290     1.0  0.63432  0.33482  0.55395  1.0000
  S   S876      1.0  0.61903  0.27234  0.57409  1.0000
  H   H3960     1.0  0.61273  0.38023  0.54999  1.0000
  H   H3961     1.0  0.64381  0.21798  0.57770  1.0000
  H   H3962     1.0  0.60678  0.14293  0.56350  1.0000
  C   C3291     1.0  0.51325  0.37389  0.58013  1.0000
  Fe  Fe439     1.0  0.63887  0.26366  0.57351  1.0000
  H   H3963     1.0  0.69302  0.34765  0.40024  1.0000
  H   H3964     1.0  0.49960  0.35790  0.55989  1.0000
  C   C3292     1.0  0.67434  0.99678  0.55662  1.0000
  H   H3965     1.0  0.58473  0.28408  0.57381  1.0000
  H   H3966     1.0  0.73263  0.41434  0.55590  1.0000
  C   C3293     1.0  0.72740  0.38600  0.55776  1.0000
  H   H3967     1.0  0.66308  0.01929  0.56362  1.0000
  H   H3968     1.0  0.60972  0.36240  0.56396  1.0000
  S   S877      1.0  0.65976  0.30127  0.55713  1.0000
  H   H3969     1.0  0.71612  0.36281  0.55411  1.0000
  C   C3294     1.0  0.61442  0.34330  0.56510  1.0000
  C   C3295     1.0  0.52201  0.38117  0.57603  1.0000
  C   C3296     1.0  0.60265  0.13546  0.56945  1.0000
  C   C3297     1.0  0.61682  0.35508  0.56070  1.0000
  C   C3298     1.0  0.60889  0.12338  0.56939  1.0000
  C   C3299     1.0  0.52062  0.38335  0.55522  1.0000
  N   N220      1.0  0.49866  0.36327  0.57657  1.0000
  S   S878      1.0  0.69377  0.35587  0.57118  1.0000
  C   C3300     1.0  0.62138  0.37928  0.55296  1.0000
  H   H3970     1.0  0.62127  0.24916  0.56512  1.0000
  C   C3301     1.0  0.62064  0.03563  0.58091  1.0000
  H   H3971     1.0  0.62399  0.38837  0.54949  1.0000
  C   C3302     1.0  0.64244  0.36912  0.55240  1.0000
  N   N221      1.0  0.63127  0.36935  0.54836  1.0000
  H   H3972     1.0  0.67904  0.33627  0.39755  1.0000
  C   C3303     1.0  0.59146  0.13801  0.57767  1.0000
  H   H3973     1.0  0.64120  0.32688  0.55160  1.0000
  H   H3974     1.0  0.63700  0.44827  0.39540  1.0000
  C   C3304     1.0  0.60178  0.45815  0.39155  1.0000
  H   H3975     1.0  0.50818  0.37456  0.55229  1.0000
  C   C3305     1.0  0.68760  0.40887  0.38448  1.0000
  H   H3976     1.0  0.59670  0.45145  0.39769  1.0000
  S   S879      1.0  0.58204  0.35870  0.56988  1.0000
  H   H3977     1.0  0.58553  0.47112  0.38724  1.0000
  H   H3978     1.0  0.59911  0.27427  0.55789  1.0000
  C   C3306     1.0  0.59547  0.46920  0.38562  1.0000
  H   H3979     1.0  0.69571  0.40816  0.38778  1.0000
  H   H3980     1.0  0.61849  0.26216  0.55301  1.0000
  C   C3307     1.0  0.61838  0.25225  0.55621  1.0000
  H   H3981     1.0  0.58260  0.30991  0.56879  1.0000
  S   S880      1.0  0.56651  0.33148  0.57639  1.0000
  H   H3982     1.0  0.65007  0.45436  0.38732  1.0000
  C   C3308     1.0  0.58446  0.31052  0.57719  1.0000
  H   H3983     1.0  0.52363  0.38697  0.54555  1.0000
  C   C3309     1.0  0.59709  0.25559  0.56703  1.0000
  H   H3984     1.0  0.73285  0.37929  0.53625  1.0000
  C   C3310     1.0  0.67549  0.99491  0.56890  1.0000
  C   C3311     1.0  0.50775  0.37122  0.57191  1.0000
  C   C3312     1.0  0.67011  0.32167  0.58026  1.0000
  S   S881      1.0  0.64447  0.24290  0.57686  1.0000
  H   H3985     1.0  0.61101  0.23174  0.56858  1.0000
  H   H3986     1.0  0.69704  0.36661  0.38514  1.0000
  H   H3987     1.0  0.51236  0.34666  0.57491  1.0000
  C   C3313     1.0  0.68178  0.98887  0.54904  1.0000
  H   H3988     1.0  0.68056  0.99028  0.53980  1.0000
  H   H3989     1.0  0.49610  0.12503  0.57968  1.0000
  C   C3314     1.0  0.59065  0.24881  0.57782  1.0000
  H   H3990     1.0  0.58730  0.14754  0.57773  1.0000
  H   H3991     1.0  0.60890  0.10440  0.57757  1.0000
  C   C3315     1.0  0.74234  0.38484  0.56978  1.0000
  C   C3316     1.0  0.74136  0.39747  0.56619  1.0000
  H   H3992     1.0  0.65279  0.01894  0.57817  1.0000
  H   H3993     1.0  0.59198  0.23894  0.57971  1.0000
  H   H3994     1.0  0.51836  0.11775  0.57927  1.0000
  S   S882      1.0  0.61370  0.15803  0.57982  1.0000
  H   H3995     1.0  0.56430  0.13551  0.58006  1.0000
  C   C3317     1.0  0.62859  0.13531  0.58036  1.0000
  H   H3996     1.0  0.64064  0.11750  0.58083  1.0000
  Fe  Fe440     1.0  0.56658  0.34940  0.58027  1.0000
  H   H3997     1.0  0.56839  0.14367  0.64144  1.0000
  S   S883      1.0  0.73273  0.40884  0.59616  1.0000
  S   S884      1.0  0.50188  0.12363  0.64851  1.0000
  H   H3998     1.0  0.59869  0.02350  0.59811  1.0000
  H   H3999     1.0  0.51098  0.37021  0.58982  1.0000
  H   H4000     1.0  0.64938  0.07904  0.75525  1.0000
  H   H4001     1.0  0.63302  0.09793  0.77791  1.0000
  H   H4002     1.0  0.65427  0.14700  0.60355  1.0000
  H   H4003     1.0  0.62235  0.09376  0.72830  1.0000
  C   C3318     1.0  0.55132  0.09898  0.60503  1.0000
  H   H4004     1.0  0.65451  0.00138  0.59451  1.0000
  C   C3319     1.0  0.59659  0.30285  0.59279  1.0000
  S   S885      1.0  0.60935  0.29314  0.59815  1.0000
  H   H4005     1.0  0.63068  0.08487  0.74655  1.0000
  H   H4006     1.0  0.50105  0.08249  0.63959  1.0000
  Fe  Fe441     1.0  0.55350  0.36970  0.59382  1.0000
  S   S886      1.0  0.53541  0.37641  0.60608  1.0000
  H   H4007     1.0  0.59040  0.04034  0.62844  1.0000
  H   H4008     1.0  0.59920  0.38194  0.59249  1.0000
  S   S887      1.0  0.60071  0.35624  0.59223  1.0000
  C   C3320     1.0  0.57962  0.32036  0.59429  1.0000
  C   C3321     1.0  0.56253  0.11822  0.63753  1.0000
  C   C3322     1.0  0.65183  0.12491  0.60455  1.0000
  S   S888      1.0  0.56705  0.35211  0.59846  1.0000
  C   C3323     1.0  0.68091  0.40647  0.61291  1.0000
  H   H4009     1.0  0.60928  0.00479  0.59390  1.0000
  H   H4010     1.0  0.52963  0.13040  0.58433  1.0000
  C   C3324     1.0  0.70190  0.39175  0.62085  1.0000
  H   H4011     1.0  0.57848  0.14653  0.59877  1.0000
  H   H4012     1.0  0.59317  0.00748  0.59393  1.0000
  C   C3325     1.0  0.59052  0.02106  0.63312  1.0000
  N   N222      1.0  0.57409  0.13141  0.59445  1.0000
  S   S889      1.0  0.67274  0.36013  0.59576  1.0000
  C   C3326     1.0  0.50269  0.36585  0.61596  1.0000
  C   C3327     1.0  0.51989  0.13360  0.58449  1.0000
  S   S890      1.0  0.51147  0.12862  0.61828  1.0000
  Fe  Fe442     1.0  0.51311  0.13686  0.64819  1.0000
  S   S891      1.0  0.52979  0.12864  0.63572  1.0000
  S   S892      1.0  0.51480  0.14249  0.66478  1.0000
  Fe  Fe443     1.0  0.52137  0.14176  0.62067  1.0000
  S   S893      1.0  0.53287  0.15288  0.60516  1.0000
  Fe  Fe444     1.0  0.51815  0.11651  0.63480  1.0000
  S   S894      1.0  0.52591  0.09641  0.63674  1.0000
  S   S895      1.0  0.50522  0.15089  0.63310  1.0000
  H   H4013     1.0  0.61959  0.24898  0.59110  1.0000
  Fe  Fe445     1.0  0.58568  0.14127  0.69373  1.0000
  S   S896      1.0  0.57171  0.13656  0.71091  1.0000
  S   S897      1.0  0.58631  0.16059  0.68366  1.0000
  Fe  Fe446     1.0  0.59627  0.11503  0.69176  1.0000
  S   S898      1.0  0.58331  0.10802  0.70879  1.0000
  S   S899      1.0  0.61057  0.10278  0.68032  1.0000
  Fe  Fe447     1.0  0.56891  0.12343  0.70126  1.0000
  S   S900      1.0  0.55012  0.12019  0.70235  1.0000
  Fe  Fe448     1.0  0.58741  0.12174  0.71694  1.0000
  S   S901      1.0  0.59080  0.11524  0.73642  1.0000
  S   S902      1.0  0.58161  0.12940  0.68367  1.0000
  S   S903      1.0  0.60159  0.12749  0.70032  1.0000
  Fe  Fe449     1.0  0.61135  0.17081  0.61803  1.0000
  S   S904      1.0  0.61900  0.17917  0.59858  1.0000
  S   S905      1.0  0.62213  0.15956  0.63219  1.0000
  Fe  Fe450     1.0  0.58522  0.17623  0.61431  1.0000
  S   S906      1.0  0.59036  0.18527  0.59452  1.0000
  S   S907      1.0  0.56745  0.17187  0.62638  1.0000
  Fe  Fe451     1.0  0.60686  0.16963  0.59395  1.0000
  C   C3328     1.0  0.60271  0.13001  0.63013  1.0000
  Fe  Fe452     1.0  0.60203  0.19418  0.60080  1.0000
  S   S908      1.0  0.57587  0.08960  0.59778  1.0000
  S   S909      1.0  0.60079  0.16007  0.61311  1.0000
  S   S910      1.0  0.59530  0.18641  0.62073  1.0000
  Fe  Fe453     1.0  0.61352  0.06182  0.61293  1.0000
  S   S911      1.0  0.59356  0.06601  0.62192  1.0000
  S   S912      1.0  0.62310  0.04197  0.61287  1.0000
  Fe  Fe454     1.0  0.61566  0.08840  0.60809  1.0000
  S   S913      1.0  0.59595  0.09482  0.61644  1.0000
  C   C3329     1.0  0.56192  0.09121  0.60859  1.0000
  Fe  Fe455     1.0  0.59871  0.07792  0.63117  1.0000
  S   S914      1.0  0.58826  0.07959  0.65024  1.0000
  Fe  Fe456     1.0  0.59219  0.08253  0.60664  1.0000
  C   C3330     1.0  0.62878  0.01621  0.59320  1.0000
  S   S915      1.0  0.61889  0.07233  0.62369  1.0000
  C   C3331     1.0  0.59807  0.12263  0.65190  1.0000
  H   H4014     1.0  0.59163  0.00202  0.63536  1.0000
  C   C3332     1.0  0.63029  0.11889  0.73078  1.0000
  S   S916      1.0  0.61726  0.13782  0.76428  1.0000
  S   S917      1.0  0.64203  0.27638  0.58351  1.0000
  S   S918      1.0  0.62909  0.10095  0.60047  1.0000
  H   H4015     1.0  0.54537  0.08649  0.71391  1.0000
  H   H4016     1.0  0.60490  0.11705  0.77204  1.0000
  H   H4017     1.0  0.62154  0.09901  0.76971  1.0000
  S   S919      1.0  0.70415  0.36994  0.59250  1.0000
  C   C3333     1.0  0.63482  0.11517  0.62668  1.0000
  H   H4018     1.0  0.54785  0.06808  0.69813  1.0000
  C   C3334     1.0  0.56488  0.13959  0.58746  1.0000
  C   C3335     1.0  0.61750  0.14215  0.58574  1.0000
  H   H4019     1.0  0.53415  0.08707  0.70557  1.0000
  C   C3336     1.0  0.56370  0.09005  0.69431  1.0000
  C   C3337     1.0  0.60440  0.09585  0.67237  1.0000
  C   C3338     1.0  0.61224  0.08855  0.66433  1.0000
  C   C3339     1.0  0.60741  0.08375  0.65722  1.0000
  C   C3340     1.0  0.59471  0.08609  0.65832  1.0000
  C   C3341     1.0  0.58691  0.09347  0.66626  1.0000
  C   C3342     1.0  0.59172  0.09821  0.67339  1.0000
  H   H4020     1.0  0.62205  0.08652  0.66365  1.0000
  H   H4021     1.0  0.61347  0.07799  0.65116  1.0000
  H   H4022     1.0  0.57714  0.09574  0.66674  1.0000
  H   H4023     1.0  0.58563  0.10392  0.67949  1.0000
  C   C3343     1.0  0.59699  0.16052  0.66973  1.0000
  C   C3344     1.0  0.59704  0.17130  0.66068  1.0000
  C   C3345     1.0  0.60496  0.17111  0.64921  1.0000
  C   C3346     1.0  0.61304  0.16021  0.64685  1.0000
  C   C3347     1.0  0.61328  0.14954  0.65605  1.0000
  C   C3348     1.0  0.60512  0.14963  0.66741  1.0000
  H   H4024     1.0  0.59089  0.17977  0.66251  1.0000
  H   H4025     1.0  0.60500  0.17947  0.64228  1.0000
  H   H4026     1.0  0.61947  0.14111  0.65428  1.0000
  H   H4027     1.0  0.60516  0.14128  0.67436  1.0000
  C   C3349     1.0  0.59745  0.12221  0.74422  1.0000
  C   C3350     1.0  0.60171  0.13305  0.73871  1.0000
  C   C3351     1.0  0.60747  0.13786  0.74508  1.0000
  C   C3352     1.0  0.60899  0.13196  0.75703  1.0000
  C   C3353     1.0  0.60427  0.12142  0.76270  1.0000
  C   C3354     1.0  0.59867  0.11651  0.75629  1.0000
  H   H4028     1.0  0.60075  0.13761  0.72948  1.0000
  H   H4029     1.0  0.61093  0.14611  0.74065  1.0000
  H   H4030     1.0  0.63122  0.30406  0.59506  1.0000
  H   H4031     1.0  0.59522  0.10826  0.76071  1.0000
  C   C3355     1.0  0.52551  0.13437  0.67411  1.0000
  C   C3356     1.0  0.52090  0.12984  0.68647  1.0000
  C   C3357     1.0  0.52869  0.12530  0.69477  1.0000
  C   C3358     1.0  0.54122  0.12546  0.69097  1.0000
  C   C3359     1.0  0.54602  0.12979  0.67854  1.0000
  C   C3360     1.0  0.53815  0.13424  0.67011  1.0000
  H   H4032     1.0  0.51115  0.13022  0.68973  1.0000
  H   H4033     1.0  0.52487  0.12207  0.70434  1.0000
  H   H4034     1.0  0.55566  0.13001  0.67549  1.0000
  H   H4035     1.0  0.54173  0.13815  0.66068  1.0000
  N   N223      1.0  0.64000  0.09681  0.75905  1.0000
  C   C3361     1.0  0.63480  0.11411  0.74148  1.0000
  N   N224      1.0  0.59297  0.13069  0.64137  1.0000
  C   C3362     1.0  0.53967  0.09431  0.62584  1.0000
  C   C3363     1.0  0.55016  0.08635  0.62934  1.0000
  C   C3364     1.0  0.56133  0.08503  0.62080  1.0000
  H   H4036     1.0  0.56238  0.10011  0.69044  1.0000
  H   H4037     1.0  0.67307  0.41255  0.60959  1.0000
  H   H4038     1.0  0.54972  0.08134  0.63871  1.0000
  H   H4039     1.0  0.56942  0.07905  0.62366  1.0000
  C   C3365     1.0  0.54211  0.15888  0.61085  1.0000
  C   C3366     1.0  0.54024  0.15798  0.62342  1.0000
  C   C3367     1.0  0.54799  0.16216  0.62802  1.0000
  C   C3368     1.0  0.55777  0.16712  0.62012  1.0000
  C   C3369     1.0  0.55960  0.16818  0.60751  1.0000
  C   C3370     1.0  0.55165  0.16422  0.60287  1.0000
  H   H4040     1.0  0.53274  0.15417  0.62964  1.0000
  H   H4041     1.0  0.54644  0.16143  0.63777  1.0000
  H   H4042     1.0  0.56702  0.17220  0.60135  1.0000
  H   H4043     1.0  0.55295  0.16524  0.59312  1.0000
  C   C3371     1.0  0.61185  0.36495  0.58991  1.0000
  C   C3372     1.0  0.63037  0.10157  0.76891  1.0000
  H   H4044     1.0  0.63427  0.07947  0.76524  1.0000
  C   C3373     1.0  0.58235  0.12656  0.64026  1.0000
  C   C3374     1.0  0.63340  0.36480  0.58792  1.0000
  H   H4045     1.0  0.57392  0.32724  0.59922  1.0000
  H   H4046     1.0  0.59528  0.04156  0.60623  1.0000
  C   C3375     1.0  0.67552  0.00857  0.58140  1.0000
  C   C3376     1.0  0.71223  0.38099  0.59279  1.0000
  C   C3377     1.0  0.61800  0.38315  0.59076  1.0000
  C   C3378     1.0  0.51354  0.12646  0.58167  1.0000
  H   H4047     1.0  0.71026  0.38606  0.62353  1.0000
  C   C3379     1.0  0.65139  0.10091  0.75814  1.0000
  C   C3380     1.0  0.72255  0.37691  0.59818  1.0000
  H   H4048     1.0  0.66691  0.37084  0.61821  1.0000
  Fe  Fe457     1.0  0.62254  0.28578  0.58261  1.0000
  H   H4049     1.0  0.58848  0.02061  0.64287  1.0000
  H   H4050     1.0  0.58247  0.13185  0.60865  1.0000
  H   H4051     1.0  0.56673  0.13997  0.60999  1.0000
  H   H4052     1.0  0.66831  0.30565  0.59472  1.0000
  H   H4053     1.0  0.50902  0.35059  0.58943  1.0000
  C   C3381     1.0  0.50577  0.09524  0.59469  1.0000
  H   H4054     1.0  0.55556  0.14120  0.59341  1.0000
  C   C3382     1.0  0.57398  0.11039  0.63751  1.0000
  C   C3383     1.0  0.67450  0.37459  0.61897  1.0000
  H   H4055     1.0  0.66069  0.39164  0.63199  1.0000
  C   C3384     1.0  0.60952  0.13618  0.59548  1.0000
  H   H4056     1.0  0.62736  0.13362  0.60767  1.0000
  H   H4057     1.0  0.55179  0.13617  0.63914  1.0000
  H   H4058     1.0  0.59079  0.31220  0.60772  1.0000
  C   C3385     1.0  0.50102  0.13058  0.58191  1.0000
  H   H4059     1.0  0.50631  0.15973  0.60426  1.0000
  H   H4060     1.0  0.57864  0.00020  0.61333  1.0000
  C   C3386     1.0  0.51371  0.14483  0.58764  1.0000
  C   C3387     1.0  0.59236  0.01048  0.62871  1.0000
  C   C3388     1.0  0.63108  0.10797  0.63821  1.0000
  H   H4061     1.0  0.62181  0.11543  0.71808  1.0000
  H   H4062     1.0  0.61050  0.13388  0.63024  1.0000
  H   H4063     1.0  0.68184  0.00160  0.58679  1.0000
  C   C3389     1.0  0.59154  0.03221  0.62501  1.0000
  C   C3390     1.0  0.50594  0.35400  0.61373  1.0000
  C   C3391     1.0  0.51835  0.34894  0.60941  1.0000
  C   C3392     1.0  0.52741  0.35577  0.60701  1.0000
  C   C3393     1.0  0.52419  0.36760  0.60925  1.0000
  C   C3394     1.0  0.51182  0.37258  0.61384  1.0000
  H   H4064     1.0  0.58470  0.99082  0.62633  1.0000
  H   H4065     1.0  0.52096  0.33976  0.60771  1.0000
  H   H4066     1.0  0.53691  0.35182  0.60352  1.0000
  H   H4067     1.0  0.50928  0.38173  0.61561  1.0000
  C   C3395     1.0  0.66022  0.39326  0.62223  1.0000
  C   C3396     1.0  0.63694  0.12097  0.64768  1.0000
  C   C3397     1.0  0.57552  0.13773  0.60333  1.0000
  C   C3398     1.0  0.63190  0.12266  0.58489  1.0000
  C   C3399     1.0  0.72529  0.39783  0.59463  1.0000
  C   C3400     1.0  0.72908  0.38523  0.59905  1.0000
  H   H4068     1.0  0.62951  0.12855  0.72654  1.0000
  H   H4069     1.0  0.66178  0.29482  0.58262  1.0000
  C   C3401     1.0  0.70055  0.40444  0.61770  1.0000
  H   H4070     1.0  0.57797  0.24919  0.59517  1.0000
  H   H4071     1.0  0.62522  0.30656  0.62212  1.0000
  N   N225      1.0  0.64393  0.13291  0.61299  1.0000
  N   N226      1.0  0.55272  0.08549  0.69491  1.0000
  C   C3402     1.0  0.62819  0.02220  0.60241  1.0000
  C   C3403     1.0  0.62376  0.03492  0.60096  1.0000
  C   C3404     1.0  0.59424  0.30217  0.58184  1.0000
  H   H4072     1.0  0.70784  0.40854  0.61796  1.0000
  H   H4073     1.0  0.63111  0.01697  0.61075  1.0000
  H   H4074     1.0  0.55745  0.06857  0.70781  1.0000
  H   H4075     1.0  0.53216  0.10692  0.61096  1.0000
  S   S920      1.0  0.61181  0.07752  0.59671  1.0000
  H   H4076     1.0  0.60220  0.11315  0.65055  1.0000
  H   H4077     1.0  0.65971  0.11877  0.60841  1.0000
  C   C3405     1.0  0.62532  0.21575  0.58659  1.0000
  H   H4078     1.0  0.73692  0.38190  0.60332  1.0000
  C   C3406     1.0  0.62623  0.09929  0.73182  1.0000
  C   C3407     1.0  0.61361  0.22139  0.59217  1.0000
  H   H4079     1.0  0.64974  0.11095  0.75748  1.0000
  H   H4080     1.0  0.72550  0.36721  0.60181  1.0000
  C   C3408     1.0  0.58379  0.11446  0.63878  1.0000
  H   H4081     1.0  0.67530  0.37163  0.62871  1.0000
  H   H4082     1.0  0.68031  0.38781  0.59601  1.0000
  H   H4083     1.0  0.59080  0.12206  0.66040  1.0000
  H   H4084     1.0  0.60087  0.14144  0.59947  1.0000
  C   C3409     1.0  0.62423  0.35892  0.58808  1.0000
  S   S921      1.0  0.56823  0.38072  0.58503  1.0000
  H   H4085     1.0  0.50037  0.10416  0.63616  1.0000
  C   C3410     1.0  0.58603  0.12846  0.58593  1.0000
  C   C3411     1.0  0.68198  0.39355  0.61605  1.0000
  H   H4086     1.0  0.61553  0.39252  0.59193  1.0000
  C   C3412     1.0  0.59428  0.03286  0.61247  1.0000
  H   H4087     1.0  0.64519  0.14911  0.61803  1.0000
  H   H4088     1.0  0.56397  0.06769  0.69234  1.0000
  C   C3413     1.0  0.49966  0.17110  0.58315  1.0000
  N   N227      1.0  0.67224  0.38816  0.61485  1.0000
  H   H4089     1.0  0.64680  0.07987  0.77099  1.0000
  C   C3414     1.0  0.66736  0.31002  0.58545  1.0000
  H   H4090     1.0  0.65712  0.40328  0.61892  1.0000
  N   N228      1.0  0.55718  0.17631  0.66268  1.0000
  C   C3415     1.0  0.56119  0.18416  0.66838  1.0000
  C   C3416     1.0  0.56809  0.16754  0.65772  1.0000
  C   C3417     1.0  0.55191  0.18445  0.65223  1.0000
  C   C3418     1.0  0.54850  0.16937  0.67191  1.0000
  C   C3419     1.0  0.55182  0.16197  0.68293  1.0000
  C   C3420     1.0  0.53684  0.16929  0.67010  1.0000
  C   C3421     1.0  0.54384  0.15527  0.69173  1.0000
  C   C3422     1.0  0.52895  0.16250  0.67897  1.0000
  C   C3423     1.0  0.53238  0.15564  0.68981  1.0000
  H   H4091     1.0  0.56659  0.17874  0.67538  1.0000
  H   H4092     1.0  0.56732  0.18989  0.66153  1.0000
  H   H4093     1.0  0.57302  0.16160  0.66493  1.0000
  H   H4094     1.0  0.57486  0.17233  0.65060  1.0000
  H   H4095     1.0  0.56537  0.16147  0.65344  1.0000
  H   H4096     1.0  0.55865  0.18958  0.64550  1.0000
  H   H4097     1.0  0.54944  0.17912  0.64695  1.0000
  H   H4098     1.0  0.54364  0.19131  0.65534  1.0000
  H   H4099     1.0  0.56070  0.16117  0.68478  1.0000
  H   H4100     1.0  0.53362  0.17425  0.66187  1.0000
  H   H4101     1.0  0.54665  0.14953  0.70000  1.0000
  H   H4102     1.0  0.52022  0.16229  0.67731  1.0000
  H   H4103     1.0  0.57421  0.27174  0.59256  1.0000
  H   H4104     1.0  0.60276  0.23769  0.59839  1.0000
  C   C3424     1.0  0.54941  0.08962  0.68277  1.0000
  C   C3425     1.0  0.53866  0.09859  0.68053  1.0000
  C   C3426     1.0  0.55732  0.08503  0.67258  1.0000
  C   C3427     1.0  0.53597  0.10249  0.66889  1.0000
  C   C3428     1.0  0.55452  0.08896  0.66099  1.0000
  C   C3429     1.0  0.54383  0.09761  0.65917  1.0000
  H   H4105     1.0  0.53222  0.10288  0.68757  1.0000
  H   H4106     1.0  0.56593  0.07859  0.67336  1.0000
  H   H4107     1.0  0.52779  0.10945  0.66736  1.0000
  H   H4108     1.0  0.56078  0.08535  0.65336  1.0000
  H   H4109     1.0  0.54167  0.10062  0.65019  1.0000
  C   C3430     1.0  0.59539  0.01075  0.61597  1.0000
  H   H4110     1.0  0.56780  0.11535  0.59531  1.0000
  C   C3431     1.0  0.57048  0.13433  0.64033  1.0000
  H   H4111     1.0  0.62732  0.10009  0.63903  1.0000
  C   C3432     1.0  0.61264  0.12337  0.59975  1.0000
  C   C3433     1.0  0.54026  0.10075  0.61371  1.0000
  C   C3434     1.0  0.65097  0.14191  0.61297  1.0000
  C   C3435     1.0  0.61171  0.23333  0.59390  1.0000
  C   C3436     1.0  0.58037  0.26729  0.58543  1.0000
  H   H4112     1.0  0.65534  0.09663  0.76644  1.0000
  H   H4113     1.0  0.58594  0.15013  0.63568  1.0000
  H   H4114     1.0  0.63222  0.00645  0.59445  1.0000
  H   H4115     1.0  0.55988  0.12299  0.60758  1.0000
  H   H4116     1.0  0.63355  0.11265  0.61888  1.0000
  C   C3437     1.0  0.61995  0.04163  0.59018  1.0000
  H   H4117     1.0  0.60546  0.12601  0.65363  1.0000
  H   H4118     1.0  0.64677  0.11903  0.60256  1.0000
  H   H4119     1.0  0.58321  0.14424  0.65207  1.0000
  C   C3438     1.0  0.50622  0.09484  0.61546  1.0000
  C   C3439     1.0  0.56903  0.12048  0.60153  1.0000
  H   H4120     1.0  0.61591  0.30340  0.61376  1.0000
  H   H4121     1.0  0.65913  0.13731  0.61707  1.0000
  H   H4122     1.0  0.69476  0.37642  0.62211  1.0000
  H   H4123     1.0  0.56578  0.08847  0.70349  1.0000
  H   H4124     1.0  0.60646  0.11874  0.60717  1.0000
  C   C3440     1.0  0.63999  0.12542  0.62530  1.0000
  C   C3441     1.0  0.70854  0.39357  0.58819  1.0000
  S   S922      1.0  0.49479  0.34547  0.61546  1.0000
  H   H4125     1.0  0.64275  0.35970  0.58724  1.0000
  H   H4126     1.0  0.65279  0.38903  0.62184  1.0000
  C   C3442     1.0  0.58688  0.99368  0.61621  1.0000
  H   H4127     1.0  0.63757  0.12327  0.65590  1.0000
  H   H4128     1.0  0.60666  0.12042  0.62897  1.0000
  H   H4129     1.0  0.57506  0.11414  0.60762  1.0000
  C   C3443     1.0  0.50483  0.35071  0.58186  1.0000
  H   H4130     1.0  0.62677  0.34947  0.58723  1.0000
  C   C3444     1.0  0.58910  0.31175  0.59917  1.0000
  C   C3445     1.0  0.60080  0.00111  0.59804  1.0000
  C   C3446     1.0  0.63559  0.10159  0.74748  1.0000
  H   H4131     1.0  0.68921  0.42164  0.61106  1.0000
  H   H4132     1.0  0.63533  0.14544  0.59871  1.0000
  H   H4133     1.0  0.55171  0.10375  0.59560  1.0000
  H   H4134     1.0  0.65851  0.09857  0.75004  1.0000
  S   S923      1.0  0.60072  0.21474  0.59528  1.0000
  H   H4135     1.0  0.61280  0.31813  0.59321  1.0000
  H   H4136     1.0  0.61025  0.31603  0.62113  1.0000
  C   C3447     1.0  0.62124  0.23979  0.58969  1.0000
  H   H4137     1.0  0.70059  0.39694  0.58410  1.0000
  C   C3448     1.0  0.58248  0.25462  0.58687  1.0000
  C   C3449     1.0  0.58983  0.14344  0.64324  1.0000
  H   H4138     1.0  0.61654  0.05144  0.58896  1.0000
  H   H4139     1.0  0.57206  0.08550  0.68851  1.0000
  N   N229      1.0  0.59782  0.99929  0.61158  1.0000
  C   C3450     1.0  0.56077  0.13015  0.63896  1.0000
  C   C3451     1.0  0.63292  0.13983  0.60810  1.0000
  C   C3452     1.0  0.59263  0.11623  0.58559  1.0000
  H   H4140     1.0  0.57520  0.10104  0.63664  1.0000
  H   H4141     1.0  0.59804  0.14647  0.64354  1.0000
  H   H4142     1.0  0.58938  0.10835  0.59157  1.0000
  H   H4143     1.0  0.59250  0.10799  0.63870  1.0000
  C   C3453     1.0  0.62395  0.11663  0.59452  1.0000
  C   C3454     1.0  0.63222  0.11083  0.64868  1.0000
  C   C3455     1.0  0.63101  0.09431  0.74238  1.0000
  H   H4144     1.0  0.52630  0.15027  0.69659  1.0000
  H   H4145     1.0  0.59900  0.13516  0.62191  1.0000
  H   H4146     1.0  0.62689  0.14619  0.61397  1.0000
  H   H4147     1.0  0.68301  0.37004  0.61326  1.0000
  C   C3456     1.0  0.55560  0.07188  0.69842  1.0000
  H   H4148     1.0  0.62935  0.10528  0.65763  1.0000
  H   H4149     1.0  0.55501  0.11496  0.63653  1.0000
  C   C3457     1.0  0.64066  0.12828  0.63621  1.0000
  H   H4150     1.0  0.65555  0.13035  0.59546  1.0000
  H   H4151     1.0  0.55317  0.19037  0.67291  1.0000
  C   C3458     1.0  0.63488  0.22225  0.58232  1.0000
  C   C3459     1.0  0.62592  0.11152  0.72601  1.0000
  C   C3460     1.0  0.60835  0.99050  0.61622  1.0000
  H   H4152     1.0  0.64384  0.13623  0.63618  1.0000
  C   C3461     1.0  0.54278  0.08995  0.70484  1.0000
  N   N230      1.0  0.62432  0.31891  0.60472  1.0000
  C   C3462     1.0  0.61869  0.31090  0.61593  1.0000
  S   S924      1.0  0.67518  0.32889  0.58897  1.0000
  C   C3463     1.0  0.63453  0.31097  0.59767  1.0000
  C   C3464     1.0  0.62827  0.32837  0.60823  1.0000
  C   C3465     1.0  0.64078  0.32914  0.60589  1.0000
  C   C3466     1.0  0.61944  0.33716  0.61430  1.0000
  C   C3467     1.0  0.64414  0.33826  0.60929  1.0000
  C   C3468     1.0  0.62289  0.34626  0.61761  1.0000
  C   C3469     1.0  0.63521  0.34682  0.61509  1.0000
  H   H4153     1.0  0.65515  0.99088  0.58533  1.0000
  H   H4154     1.0  0.63711  0.12051  0.74530  1.0000
  H   H4155     1.0  0.60249  0.99234  0.59505  1.0000
  C   C3470     1.0  0.60874  0.37722  0.59098  1.0000
  H   H4156     1.0  0.51178  0.09378  0.62193  1.0000
  H   H4157     1.0  0.62855  0.11175  0.76723  1.0000
  H   H4158     1.0  0.64157  0.30565  0.60310  1.0000
  H   H4159     1.0  0.50956  0.17013  0.58286  1.0000
  H   H4160     1.0  0.63905  0.31648  0.58902  1.0000
  H   H4161     1.0  0.64818  0.32294  0.60130  1.0000
  H   H4162     1.0  0.60974  0.33728  0.61621  1.0000
  H   H4163     1.0  0.65373  0.33879  0.60715  1.0000
  H   H4164     1.0  0.61591  0.35315  0.62178  1.0000
  H   H4165     1.0  0.63783  0.35411  0.61732  1.0000
  C   C3471     1.0  0.64274  0.08319  0.76269  1.0000
  Fe  Fe458     1.0  0.68869  0.36864  0.58422  1.0000
  C   C3472     1.0  0.69283  0.38631  0.61999  1.0000
  C   C3473     1.0  0.59624  0.02233  0.60794  1.0000
  H   H4166     1.0  0.54081  0.10010  0.70341  1.0000
  H   H4167     1.0  0.66990  0.01503  0.58739  1.0000
  C   C3474     1.0  0.63036  0.37688  0.58939  1.0000
  C   C3475     1.0  0.51236  0.09428  0.60343  1.0000
  C   C3476     1.0  0.67132  0.39119  0.60186  1.0000
  Fe  Fe459     1.0  0.58176  0.36264  0.58781  1.0000
  Fe  Fe460     1.0  0.49575  0.13671  0.63193  1.0000
  C   C3477     1.0  0.69008  0.41179  0.61373  1.0000
  C   C3478     1.0  0.62504  0.02290  0.58239  1.0000
  Fe  Fe461     1.0  0.66125  0.37392  0.58338  1.0000
  Fe  Fe462     1.0  0.67689  0.34865  0.58178  1.0000
  H   H4168     1.0  0.66862  0.40122  0.59828  1.0000
  H   H4169     1.0  0.61665  0.99455  0.61328  1.0000
  H   H4170     1.0  0.51055  0.09470  0.58539  1.0000
  C   C3479     1.0  0.66077  0.99561  0.58814  1.0000
  C   C3480     1.0  0.61510  0.32485  0.59702  1.0000
  H   H4171     1.0  0.49827  0.34445  0.58585  1.0000
  C   C3481     1.0  0.63280  0.23440  0.58361  1.0000
  H   H4172     1.0  0.62688  0.20657  0.58513  1.0000
  H   H4173     1.0  0.66430  0.38702  0.60048  1.0000
  C   C3482     1.0  0.71499  0.40191  0.58917  1.0000
  H   H4174     1.0  0.74073  0.11331  0.77780  1.0000
  H   H4175     1.0  0.61853  0.33194  0.58922  1.0000
  H   H4176     1.0  0.60623  0.32942  0.60215  1.0000
  H   H4177     1.0  0.51905  0.15003  0.58973  1.0000
  H   H4178     1.0  0.71192  0.41163  0.58577  1.0000
  C   C3483     1.0  0.50090  0.14917  0.58829  1.0000
  C   C3484     1.0  0.57741  0.31989  0.58321  1.0000
  S   S925      1.0  0.64190  0.38400  0.58994  1.0000
  H   H4179     1.0  0.52229  0.09295  0.60095  1.0000
  H   H4180     1.0  0.56698  0.14879  0.58323  1.0000
  H   H4181     1.0  0.66686  0.98833  0.59355  1.0000
  C   C3485     1.0  0.49652  0.16049  0.60428  1.0000
  H   H4182     1.0  0.52610  0.38298  0.58257  1.0000
  C   C3486     1.0  0.49475  0.14178  0.58512  1.0000
  H   H4183     1.0  0.49486  0.18015  0.58548  1.0000
  H   H4184     1.0  0.60645  0.98771  0.62634  1.0000
  S   S926      1.0  0.63011  0.16134  0.95432  1.0000
  S   S927      1.0  0.71834  0.11732  0.83003  1.0000
  Fe  Fe463     1.0  0.70831  0.08885  0.85265  1.0000
  S   S928      1.0  0.69495  0.10419  0.84367  1.0000
  S   S929      1.0  0.70032  0.07264  0.86457  1.0000
  Fe  Fe464     1.0  0.70996  0.10343  0.82699  1.0000
  S   S930      1.0  0.70476  0.10311  0.80978  1.0000
  Fe  Fe465     1.0  0.70452  0.11657  0.84771  1.0000
  S   S931      1.0  0.69717  0.13515  0.85212  1.0000
  S   S932      1.0  0.71646  0.10145  0.85862  1.0000
  Fe  Fe466     1.0  0.64407  0.01285  0.85830  1.0000
  S   S933      1.0  0.62641  0.02637  0.86268  1.0000
  Fe  Fe467     1.0  0.65955  0.03307  0.85203  1.0000
  S   S934      1.0  0.64270  0.04786  0.85495  1.0000
  S   S935      1.0  0.67860  0.03774  0.84578  1.0000
  Fe  Fe468     1.0  0.63649  0.03423  0.87179  1.0000
  S   S936      1.0  0.62843  0.04086  0.88953  1.0000
  Fe  Fe469     1.0  0.63448  0.03855  0.84561  1.0000
  S   S937      1.0  0.62241  0.04857  0.83237  1.0000
  S   S938      1.0  0.65359  0.01948  0.86922  1.0000
  S   S939      1.0  0.65190  0.02497  0.84082  1.0000
  Fe  Fe470     1.0  0.62122  0.11948  0.91472  1.0000
  S   S940      1.0  0.64095  0.11621  0.90479  1.0000
  S   S941      1.0  0.61769  0.12048  0.93480  1.0000
  Fe  Fe471     1.0  0.61258  0.11996  0.89157  1.0000
  S   S942      1.0  0.63159  0.11745  0.88025  1.0000
  S   S943      1.0  0.59717  0.12106  0.88261  1.0000
  Fe  Fe472     1.0  0.63610  0.10313  0.89664  1.0000
  S   S944      1.0  0.64857  0.08537  0.89284  1.0000
  Fe  Fe473     1.0  0.63407  0.13072  0.88966  1.0000
  S   S945      1.0  0.64229  0.14705  0.88034  1.0000
  S   S946      1.0  0.61689  0.10497  0.90774  1.0000
  S   S947      1.0  0.61454  0.13466  0.89978  1.0000
  Fe  Fe474     1.0  0.61668  0.12197  0.81057  1.0000
  S   S948      1.0  0.63609  0.11352  0.81218  1.0000
  S   S949      1.0  0.60055  0.12276  0.82667  1.0000
  Fe  Fe475     1.0  0.63748  0.10601  0.79591  1.0000
  S   S950      1.0  0.64938  0.08757  0.79392  1.0000
  Fe  Fe476     1.0  0.64058  0.13014  0.79825  1.0000
  S   S951      1.0  0.61743  0.11263  0.79561  1.0000
  S   S952      1.0  0.62091  0.13927  0.79751  1.0000
  C   C3487     1.0  0.59911  0.12162  0.86683  1.0000
  C   C3488     1.0  0.61062  0.11906  0.85892  1.0000
  C   C3489     1.0  0.61137  0.11934  0.84649  1.0000
  C   C3490     1.0  0.60061  0.12228  0.84198  1.0000
  C   C3491     1.0  0.58922  0.12471  0.84994  1.0000
  C   C3492     1.0  0.58847  0.12435  0.86224  1.0000
  H   H4185     1.0  0.61891  0.11689  0.86232  1.0000
  H   H4186     1.0  0.62017  0.11732  0.84040  1.0000
  H   H4187     1.0  0.58087  0.12691  0.84657  1.0000
  H   H4188     1.0  0.57955  0.12629  0.86822  1.0000
  C   C3493     1.0  0.63002  0.05874  0.82079  1.0000
  C   C3494     1.0  0.64282  0.05684  0.81837  1.0000
  C   C3495     1.0  0.64882  0.06542  0.80954  1.0000
  C   C3496     1.0  0.64196  0.07616  0.80361  1.0000
  C   C3497     1.0  0.62918  0.07797  0.80590  1.0000
  C   C3498     1.0  0.62323  0.06912  0.81431  1.0000
  H   H4189     1.0  0.64812  0.04879  0.82331  1.0000
  H   H4190     1.0  0.65872  0.06394  0.80763  1.0000
  H   H4191     1.0  0.62387  0.08616  0.80120  1.0000
  H   H4192     1.0  0.61332  0.07055  0.81615  1.0000
  C   C3499     1.0  0.63368  0.05348  0.89043  1.0000
  C   C3500     1.0  0.62771  0.06005  0.89968  1.0000
  C   C3501     1.0  0.63184  0.07023  0.90026  1.0000
  C   C3502     1.0  0.64204  0.07376  0.89164  1.0000
  C   C3503     1.0  0.64792  0.06714  0.88248  1.0000
  C   C3504     1.0  0.64378  0.05708  0.88187  1.0000
  H   H4193     1.0  0.61994  0.05724  0.90644  1.0000
  H   H4194     1.0  0.62738  0.07512  0.90754  1.0000
  H   H4195     1.0  0.65583  0.06973  0.87591  1.0000
  H   H4196     1.0  0.64864  0.05188  0.87498  1.0000
  C   C3505     1.0  0.69390  0.06433  0.85800  1.0000
  C   C3506     1.0  0.70115  0.05772  0.84917  1.0000
  C   C3507     1.0  0.69628  0.04977  0.84540  1.0000
  C   C3508     1.0  0.68407  0.04846  0.85028  1.0000
  C   C3509     1.0  0.67668  0.05554  0.85866  1.0000
  C   C3510     1.0  0.68166  0.06322  0.86267  1.0000
  H   H4197     1.0  0.71066  0.05834  0.84560  1.0000
  H   H4198     1.0  0.70209  0.04443  0.83884  1.0000
  H   H4199     1.0  0.66720  0.05497  0.86220  1.0000
  H   H4200     1.0  0.67610  0.06826  0.86954  1.0000
  C   C3511     1.0  0.69067  0.11312  0.80772  1.0000
  H   H4201     1.0  0.65686  0.07095  0.82779  1.0000
  C   C3512     1.0  0.59723  0.09193  0.85706  1.0000
  C   C3513     1.0  0.66799  0.12888  0.80448  1.0000
  C   C3514     1.0  0.67298  0.11932  0.79820  1.0000
  C   C3515     1.0  0.68438  0.11156  0.79970  1.0000
  H   H4202     1.0  0.68459  0.07576  0.83442  1.0000
  H   H4203     1.0  0.73043  0.10055  0.79589  1.0000
  H   H4204     1.0  0.68823  0.10424  0.79476  1.0000
  C   C3516     1.0  0.68171  0.13813  0.85943  1.0000
  C   C3517     1.0  0.67616  0.15005  0.86103  1.0000
  C   C3518     1.0  0.66400  0.15268  0.86742  1.0000
  C   C3519     1.0  0.65744  0.14336  0.87241  1.0000
  C   C3520     1.0  0.66296  0.13138  0.87087  1.0000
  C   C3521     1.0  0.67510  0.12879  0.86422  1.0000
  H   H4205     1.0  0.68127  0.15726  0.85735  1.0000
  H   H4206     1.0  0.65971  0.16194  0.86858  1.0000
  H   H4207     1.0  0.65791  0.12413  0.87482  1.0000
  H   H4208     1.0  0.67944  0.11953  0.86312  1.0000
  H   H4209     1.0  0.61744  0.02541  0.80474  1.0000
  C   C3522     1.0  0.62646  0.14992  0.94914  1.0000
  C   C3523     1.0  0.62533  0.13841  0.95664  1.0000
  C   C3524     1.0  0.62278  0.12949  0.95206  1.0000
  C   C3525     1.0  0.62121  0.13195  0.93999  1.0000
  C   C3526     1.0  0.62223  0.14349  0.93252  1.0000
  C   C3527     1.0  0.62487  0.15239  0.93707  1.0000
  H   H4210     1.0  0.62659  0.13631  0.96593  1.0000
  H   H4211     1.0  0.62209  0.12058  0.95790  1.0000
  H   H4212     1.0  0.62091  0.14557  0.92325  1.0000
  H   H4213     1.0  0.62564  0.16128  0.93121  1.0000
  S   S953      1.0  0.72316  0.08762  0.83574  1.0000
  H   H4214     1.0  0.64261  0.08859  0.83351  1.0000
  H   H4215     1.0  0.68274  0.09176  0.82666  1.0000
  H   H4216     1.0  0.65543  0.09120  0.81524  1.0000
  H   H4217     1.0  0.68693  0.07995  0.81822  1.0000
  H   H4218     1.0  0.63759  0.09714  0.86821  1.0000
  C   C3528     1.0  0.60258  0.06959  0.88440  1.0000
  Fe  Fe477     1.0  0.73012  0.10179  0.84070  1.0000
  H   H4219     1.0  0.64363  0.15093  0.91460  1.0000
  H   H4220     1.0  0.61115  0.01311  0.83805  1.0000
  H   H4221     1.0  0.66809  0.11797  0.79212  1.0000
  C   C3529     1.0  0.60507  0.08347  0.86451  1.0000
  H   H4222     1.0  0.65999  0.09370  0.86590  1.0000
  H   H4223     1.0  0.65444  0.15064  0.90032  1.0000
  H   H4224     1.0  0.61316  0.09597  0.87585  1.0000
  H   H4225     1.0  0.68536  0.03021  0.87332  1.0000
  H   H4226     1.0  0.64586  0.13318  0.85553  1.0000
  H   H4227     1.0  0.56992  0.15133  0.97766  1.0000
  H   H4228     1.0  0.61228  0.08629  0.82904  1.0000
  H   H4229     1.0  0.63386  0.02101  0.80252  1.0000
  Fe  Fe478     1.0  0.62777  0.16213  0.97433  1.0000
  H   H4230     1.0  0.69163  0.03972  0.88394  1.0000
  H   H4231     1.0  0.62545  0.03346  0.81000  1.0000
  H   H4232     1.0  0.67242  0.06877  0.90237  1.0000
  H   H4233     1.0  0.59925  0.14929  0.95382  1.0000
  H   H4234     1.0  0.63889  0.12316  0.84294  1.0000
  H   H4235     1.0  0.59726  0.12962  0.96415  1.0000
  C   C3530     1.0  0.70905  0.13457  0.79224  1.0000
  C   C3531     1.0  0.71787  0.14371  0.80318  1.0000
  C   C3532     1.0  0.67651  0.02741  0.87798  1.0000
  C   C3533     1.0  0.57607  0.15745  0.97711  1.0000
  H   H4236     1.0  0.68247  0.01522  0.90632  1.0000
  H   H4237     1.0  0.66916  0.03448  0.87404  1.0000
  H   H4238     1.0  0.59381  0.09940  0.83889  1.0000
  H   H4239     1.0  0.63680  0.15310  0.82122  1.0000
  C   C3534     1.0  0.58966  0.15269  0.95858  1.0000
  H   H4240     1.0  0.65159  0.15064  0.82414  1.0000
  C   C3535     1.0  0.67284  0.05997  0.90053  1.0000
  C   C3536     1.0  0.70818  0.14379  0.79818  1.0000
  H   H4241     1.0  0.69110  0.13133  0.88097  1.0000
  H   H4242     1.0  0.62616  0.07110  0.84148  1.0000
  C   C3537     1.0  0.72938  0.12446  0.79682  1.0000
  H   H4243     1.0  0.69183  0.10922  0.88443  1.0000
  H   H4244     1.0  0.67110  0.08974  0.80800  1.0000
  H   H4245     1.0  0.60063  0.06854  0.89450  1.0000
  H   H4246     1.0  0.62902  0.09510  0.85170  1.0000
  C   C3538     1.0  0.64366  0.09478  0.85992  1.0000
  C   C3539     1.0  0.68569  0.12266  0.81400  1.0000
  C   C3540     1.0  0.65631  0.09281  0.85860  1.0000
  C   C3541     1.0  0.65032  0.14474  0.90888  1.0000
  C   C3542     1.0  0.63888  0.09344  0.85070  1.0000
  C   C3543     1.0  0.68510  0.12700  0.88891  1.0000
  C   C3544     1.0  0.67448  0.13063  0.81222  1.0000
  C   C3545     1.0  0.71951  0.12510  0.79147  1.0000
  H   H4247     1.0  0.59060  0.10010  0.87896  1.0000
  H   H4248     1.0  0.67398  0.08776  0.84784  1.0000
  C   C3546     1.0  0.67761  0.10896  0.90080  1.0000
  C   C3547     1.0  0.58080  0.99898  0.87560  1.0000
  H   H4249     1.0  0.59051  0.15283  0.86038  1.0000
  H   H4250     1.0  0.60601  0.14937  0.87264  1.0000
  H   H4251     1.0  0.69057  0.12404  0.82007  1.0000
  H   H4252     1.0  0.64586  0.14937  0.85080  1.0000
  H   H4253     1.0  0.68435  0.00727  0.89439  1.0000
  H   H4254     1.0  0.67776  0.09930  0.90209  1.0000
  C   C3548     1.0  0.72555  0.14532  0.83490  1.0000
  C   C3549     1.0  0.68345  0.04346  0.89003  1.0000
  C   C3550     1.0  0.68314  0.05451  0.89290  1.0000
  H   H4255     1.0  0.67082  0.13809  0.81697  1.0000
  C   C3551     1.0  0.65972  0.08762  0.83865  1.0000
  H   H4256     1.0  0.67711  0.01876  0.87523  1.0000
  C   C3552     1.0  0.68387  0.01634  0.89626  1.0000
  C   C3553     1.0  0.68107  0.08271  0.82677  1.0000
  H   H4257     1.0  0.59707  0.15155  0.83859  1.0000
  H   H4258     1.0  0.73028  0.10205  0.81079  1.0000
  H   H4259     1.0  0.65971  0.14881  0.92624  1.0000
  N   N231      1.0  0.67388  0.02590  0.89145  1.0000
  H   H4260     1.0  0.65477  0.03974  0.90645  1.0000
  H   H4261     1.0  0.65481  0.05874  0.91127  1.0000
  H   H4262     1.0  0.65701  0.13866  0.84273  1.0000
  H   H4263     1.0  0.69080  0.05905  0.88888  1.0000
  H   H4264     1.0  0.64697  0.12429  0.92479  1.0000
  C   C3554     1.0  0.59984  0.09278  0.84444  1.0000
  C   C3555     1.0  0.61029  0.08540  0.83885  1.0000
  H   H4265     1.0  0.58911  0.09815  0.86067  1.0000
  C   C3556     1.0  0.66289  0.05430  0.90551  1.0000
  H   H4266     1.0  0.66335  0.11095  0.91638  1.0000
  C   C3557     1.0  0.66930  0.11583  0.90896  1.0000
  H   H4267     1.0  0.61150  0.06323  0.88206  1.0000
  C   C3558     1.0  0.66230  0.02134  0.89647  1.0000
  H   H4268     1.0  0.59552  0.06620  0.88213  1.0000
  C   C3559     1.0  0.67332  0.03760  0.89465  1.0000
  C   C3560     1.0  0.66858  0.12861  0.90722  1.0000
  H   H4269     1.0  0.64730  0.13481  0.93321  1.0000
  H   H4270     1.0  0.71874  0.14064  0.83462  1.0000
  H   H4271     1.0  0.65981  0.12198  0.93186  1.0000
  H   H4272     1.0  0.69303  0.01862  0.89201  1.0000
  C   C3561     1.0  0.72181  0.15592  0.83953  1.0000
  H   H4273     1.0  0.62214  0.06950  0.86353  1.0000
  H   H4274     1.0  0.60395  0.10968  0.97646  1.0000
  H   H4275     1.0  0.62187  0.08046  0.87795  1.0000
  C   C3562     1.0  0.59683  0.16039  0.97189  1.0000
  N   N232      1.0  0.60276  0.08248  0.87787  1.0000
  C   C3563     1.0  0.61260  0.01984  0.82922  1.0000
  H   H4276     1.0  0.61124  0.08598  0.89063  1.0000
  C   C3564     1.0  0.59692  0.12921  0.97362  1.0000
  H   H4277     1.0  0.58362  0.14715  0.95762  1.0000
  N   N233      1.0  0.65969  0.13625  0.91547  1.0000
  N   N234      1.0  0.66785  0.08338  0.82768  1.0000
  H   H4278     1.0  0.66288  0.01273  0.89363  1.0000
  H   H4279     1.0  0.65440  0.02814  0.89312  1.0000
  C   C3565     1.0  0.67661  0.13402  0.89680  1.0000
  H   H4280     1.0  0.64501  0.13962  0.90614  1.0000
  H   H4281     1.0  0.63408  0.02484  0.82753  1.0000
  C   C3566     1.0  0.66428  0.08930  0.84814  1.0000
  H   H4282     1.0  0.63910  0.16136  0.83116  1.0000
  C   C3567     1.0  0.61564  0.07603  0.85851  1.0000
  H   H4283     1.0  0.66846  0.06444  0.83647  1.0000
  C   C3568     1.0  0.73603  0.10223  0.80142  1.0000
  C   C3569     1.0  0.56948  0.00075  0.87263  1.0000
  C   C3570     1.0  0.59297  0.13982  0.97876  1.0000
  H   H4284     1.0  0.67260  0.06723  0.82010  1.0000
  C   C3571     1.0  0.62529  0.02417  0.80904  1.0000
  C   C3572     1.0  0.64675  0.08981  0.84026  1.0000
  H   H4285     1.0  0.66384  0.10151  0.81664  1.0000
  C   C3573     1.0  0.59090  0.09018  0.88288  1.0000
  N   N235      1.0  0.62430  0.01537  0.82101  1.0000
  C   C3574     1.0  0.65322  0.12896  0.92678  1.0000
  H   H4286     1.0  0.73544  0.13471  0.80666  1.0000
  C   C3575     1.0  0.68553  0.11452  0.89084  1.0000
  H   H4287     1.0  0.62771  0.14493  0.86363  1.0000
  H   H4288     1.0  0.57257  0.16667  0.97172  1.0000
  H   H4289     1.0  0.64364  0.01265  0.82054  1.0000
  H   H4290     1.0  0.67380  0.13763  0.92355  1.0000
  C   C3576     1.0  0.63450  0.01549  0.82642  1.0000
  H   H4291     1.0  0.63412  0.00941  0.83568  1.0000
  H   H4292     1.0  0.66974  0.15065  0.91167  1.0000
  H   H4293     1.0  0.58298  0.08775  0.88109  1.0000
  C   C3577     1.0  0.66441  0.09183  0.81646  1.0000
  S   S954      1.0  0.65369  0.13869  0.80282  1.0000
  H   H4294     1.0  0.74323  0.09456  0.90755  1.0000
  H   H4295     1.0  0.74084  0.13199  0.82793  1.0000
  H   H4296     1.0  0.66005  0.01925  0.90664  1.0000
  C   C3578     1.0  0.61270  0.08635  0.88068  1.0000
  C   C3579     1.0  0.66606  0.14362  0.91936  1.0000
  H   H4297     1.0  0.73914  0.11856  0.85543  1.0000
  H   H4298     1.0  0.60478  0.99196  0.85106  1.0000
  C   C3580     1.0  0.61491  0.98988  0.81313  1.0000
  H   H4299     1.0  0.61906  0.00162  0.85608  1.0000
  H   H4300     1.0  0.71956  0.11804  0.78699  1.0000
  C   C3581     1.0  0.66301  0.04333  0.90260  1.0000
  C   C3582     1.0  0.62448  0.00310  0.81931  1.0000
  H   H4301     1.0  0.61877  0.14681  0.82901  1.0000
  C   C3583     1.0  0.66639  0.07099  0.82799  1.0000
  C   C3584     1.0  0.61813  0.07696  0.84588  1.0000
  C   C3585     1.0  0.63376  0.99258  0.82229  1.0000
  H   H4302     1.0  0.58941  0.08914  0.89295  1.0000
  H   H4303     1.0  0.67620  0.14377  0.89448  1.0000
  N   N236      1.0  0.63874  0.14241  0.83930  1.0000
  C   C3586     1.0  0.64136  0.13075  0.83516  1.0000
  C   C3587     1.0  0.64165  0.15232  0.82854  1.0000
  C   C3588     1.0  0.64719  0.14086  0.84747  1.0000
  C   C3589     1.0  0.62558  0.14549  0.84522  1.0000
  C   C3590     1.0  0.61639  0.14759  0.83846  1.0000
  C   C3591     1.0  0.62147  0.14639  0.85770  1.0000
  C   C3592     1.0  0.60391  0.15038  0.84385  1.0000
  C   C3593     1.0  0.60895  0.14909  0.86301  1.0000
  C   C3594     1.0  0.60019  0.15109  0.85611  1.0000
  H   H4304     1.0  0.63620  0.13149  0.82811  1.0000
  H   H4305     1.0  0.65124  0.12797  0.83088  1.0000
  H   H4306     1.0  0.61247  0.02869  0.83134  1.0000
  H   H4307     1.0  0.60449  0.02149  0.82518  1.0000
  H   H4308     1.0  0.58339  0.00646  0.87755  1.0000
  H   H4309     1.0  0.58671  0.16220  0.95342  1.0000
  H   H4310     1.0  0.74387  0.09419  0.80199  1.0000
  H   H4311     1.0  0.74088  0.18196  0.83492  1.0000
  H   H4312     1.0  0.59471  0.16967  0.96596  1.0000
  H   H4313     1.0  0.60777  0.00897  0.81208  1.0000
  H   H4314     1.0  0.69992  0.15094  0.79900  1.0000
  C   C3595     1.0  0.62211  0.99244  0.85439  1.0000
  H   H4315     1.0  0.56327  0.00966  0.87225  1.0000
  S   S955      1.0  0.64495  0.99286  0.85799  1.0000
  H   H4316     1.0  0.60669  0.15640  0.96867  1.0000
  N   N237      1.0  0.58897  0.15231  0.97162  1.0000
  H   H4317     1.0  0.70141  0.13454  0.78852  1.0000
  H   H4318     1.0  0.71208  0.15932  0.84285  1.0000
  C   C3596     1.0  0.61511  0.00141  0.81457  1.0000
  H   H4319     1.0  0.71711  0.15089  0.80785  1.0000
  C   C3597     1.0  0.73799  0.14057  0.83100  1.0000
  C   C3598     1.0  0.72839  0.13428  0.80245  1.0000
  N   N238      1.0  0.74013  0.11403  0.79632  1.0000
  S   S956      1.0  0.64344  0.12199  0.78202  1.0000
  C   C3599     1.0  0.74331  0.15736  0.83627  1.0000
  C   C3600     1.0  0.56620  0.99115  0.86998  1.0000
  H   H4320     1.0  0.74225  0.16863  0.85470  1.0000
  C   C3601     1.0  0.73053  0.16188  0.84024  1.0000
  Fe  Fe479     1.0  0.62319  0.12926  0.78254  1.0000
  H   H4321     1.0  0.55748  0.99308  0.86738  1.0000
  H   H4322     1.0  0.64113  0.99281  0.82621  1.0000
  H   H4323     1.0  0.72716  0.16992  0.84417  1.0000
  C   C3602     1.0  0.60083  0.11760  0.98064  1.0000
  H   H4324     1.0  0.60752  0.98870  0.80978  1.0000
  C   C3603     1.0  0.58891  0.98764  0.87585  1.0000
  S   S957      1.0  0.61483  0.17858  0.98111  1.0000
  Fe  Fe480     1.0  0.73282  0.59348  0.09322  1.0000
  S   S958      1.0  0.71891  0.61078  0.08870  1.0000
  Fe  Fe481     1.0  0.71341  0.57729  0.10017  1.0000
  S   S959      1.0  0.69831  0.59359  0.09666  1.0000
  S   S960      1.0  0.70767  0.55892  0.10829  1.0000
  Fe  Fe482     1.0  0.71176  0.59998  0.07981  1.0000
  S   S961      1.0  0.70416  0.60868  0.06284  1.0000
  Fe  Fe483     1.0  0.70662  0.60284  0.10581  1.0000
  S   S962      1.0  0.69410  0.61557  0.11764  1.0000
  S   S963      1.0  0.72671  0.58311  0.08269  1.0000
  S   S964      1.0  0.72079  0.58602  0.11107  1.0000
  Fe  Fe484     1.0  0.65866  0.53093  0.09738  1.0000
  S   S965      1.0  0.64264  0.54477  0.10466  1.0000
  S   S966      1.0  0.67538  0.53802  0.08530  1.0000
  Fe  Fe485     1.0  0.64532  0.50945  0.10921  1.0000
  S   S967      1.0  0.62857  0.52174  0.11784  1.0000
  C   C3604     1.0  0.61817  0.65873  0.98399  1.0000
  Fe  Fe486     1.0  0.63124  0.53482  0.09968  1.0000
  S   S968      1.0  0.61470  0.54254  0.09133  1.0000
  Fe  Fe487     1.0  0.64155  0.53046  0.12205  1.0000
  S   S969      1.0  0.63974  0.53544  0.13988  1.0000
  S   S970      1.0  0.64728  0.52208  0.09067  1.0000
  S   S971      1.0  0.65832  0.51707  0.11512  1.0000
  Fe  Fe488     1.0  0.61170  0.61243  0.17131  1.0000
  S   S972      1.0  0.62037  0.59312  0.16882  1.0000
  Fe  Fe489     1.0  0.62193  0.62363  0.14483  1.0000
  S   S973      1.0  0.63177  0.60556  0.14009  1.0000
  S   S974      1.0  0.62195  0.64191  0.13176  1.0000
  Fe  Fe490     1.0  0.61460  0.59918  0.15082  1.0000
  S   S975      1.0  0.60726  0.58859  0.14182  1.0000
  Fe  Fe491     1.0  0.63688  0.60092  0.15831  1.0000
  S   S976      1.0  0.65589  0.59015  0.15959  1.0000
  S   S977      1.0  0.60421  0.61776  0.15418  1.0000
  S   S978      1.0  0.62878  0.61972  0.16213  1.0000
  Fe  Fe492     1.0  0.61014  0.60974  0.06987  1.0000
  S   S979      1.0  0.60701  0.62923  0.05932  1.0000
  S   S980      1.0  0.59488  0.59985  0.07919  1.0000
  Fe  Fe493     1.0  0.63757  0.60716  0.06551  1.0000
  S   S981      1.0  0.63690  0.62637  0.05463  1.0000
  S   S982      1.0  0.65367  0.59323  0.07153  1.0000
  Fe  Fe494     1.0  0.62033  0.63124  0.06923  1.0000
  S   S983      1.0  0.61729  0.64774  0.07727  1.0000
  Fe  Fe495     1.0  0.62371  0.62247  0.04570  1.0000
  S   S984      1.0  0.62668  0.62765  0.02499  1.0000
  S   S985      1.0  0.62207  0.61226  0.08078  1.0000
  S   S986      1.0  0.62574  0.60273  0.05562  1.0000
  H   H4325     1.0  0.58653  0.63011  0.12495  1.0000
  C   C3605     1.0  0.61569  0.62702  0.01728  1.0000
  C   C3606     1.0  0.61876  0.62867  0.00449  1.0000
  C   C3607     1.0  0.61011  0.62873  0.99797  1.0000
  C   C3608     1.0  0.59828  0.62718  0.00420  1.0000
  C   C3609     1.0  0.59527  0.62536  0.01701  1.0000
  C   C3610     1.0  0.60394  0.62526  0.02354  1.0000
  H   H4326     1.0  0.62786  0.62992  0.99959  1.0000
  C   C3611     1.0  0.72749  0.61055  0.11835  1.0000
  H   H4327     1.0  0.58615  0.62413  0.02190  1.0000
  H   H4328     1.0  0.60148  0.62395  0.03339  1.0000
  C   C3612     1.0  0.62014  0.64307  0.11690  1.0000
  C   C3613     1.0  0.61911  0.65457  0.10893  1.0000
  C   C3614     1.0  0.61804  0.65584  0.09691  1.0000
  C   C3615     1.0  0.61821  0.64560  0.09265  1.0000
  C   C3616     1.0  0.61893  0.63411  0.10072  1.0000
  C   C3617     1.0  0.61986  0.63284  0.11286  1.0000
  H   H4329     1.0  0.61926  0.66253  0.11200  1.0000
  H   H4330     1.0  0.61736  0.66477  0.09079  1.0000
  H   H4331     1.0  0.61861  0.62626  0.09769  1.0000
  H   H4332     1.0  0.62040  0.62396  0.11904  1.0000
  C   C3618     1.0  0.60055  0.58399  0.08300  1.0000
  C   C3619     1.0  0.61255  0.57922  0.08485  1.0000
  C   C3620     1.0  0.61689  0.56645  0.08790  1.0000
  C   C3621     1.0  0.60937  0.55852  0.08863  1.0000
  C   C3622     1.0  0.59741  0.56335  0.08675  1.0000
  C   C3623     1.0  0.59294  0.57605  0.08414  1.0000
  H   H4333     1.0  0.61842  0.58536  0.08399  1.0000
  H   H4334     1.0  0.62609  0.56277  0.08945  1.0000
  H   H4335     1.0  0.59158  0.55726  0.08728  1.0000
  H   H4336     1.0  0.58369  0.57972  0.08268  1.0000
  C   C3624     1.0  0.63011  0.54988  0.14086  1.0000
  C   C3625     1.0  0.63046  0.55582  0.14972  1.0000
  C   C3626     1.0  0.62336  0.56767  0.15016  1.0000
  C   C3627     1.0  0.61564  0.57348  0.14193  1.0000
  C   C3628     1.0  0.61496  0.56736  0.13335  1.0000
  C   C3629     1.0  0.62231  0.55564  0.13270  1.0000
  H   H4337     1.0  0.63638  0.55132  0.15613  1.0000
  H   H4338     1.0  0.62384  0.57228  0.15688  1.0000
  H   H4339     1.0  0.60898  0.57176  0.12700  1.0000
  H   H4340     1.0  0.62188  0.55105  0.12593  1.0000
  C   C3630     1.0  0.69866  0.55337  0.10167  1.0000
  C   C3631     1.0  0.69714  0.55828  0.08965  1.0000
  C   C3632     1.0  0.68995  0.55356  0.08473  1.0000
  C   C3633     1.0  0.68395  0.54412  0.09187  1.0000
  C   C3634     1.0  0.68533  0.53934  0.10395  1.0000
  C   C3635     1.0  0.69280  0.54382  0.10874  1.0000
  H   H4341     1.0  0.70176  0.56549  0.08405  1.0000
  H   H4342     1.0  0.68904  0.55729  0.07535  1.0000
  H   H4343     1.0  0.68084  0.53202  0.10954  1.0000
  H   H4344     1.0  0.69398  0.53991  0.11802  1.0000
  C   C3636     1.0  0.69050  0.60405  0.06421  1.0000
  C   C3637     1.0  0.68855  0.59278  0.07167  1.0000
  C   C3638     1.0  0.67728  0.58947  0.07365  1.0000
  C   C3639     1.0  0.66789  0.59742  0.06813  1.0000
  C   C3640     1.0  0.66996  0.60851  0.06026  1.0000
  C   C3641     1.0  0.68128  0.61182  0.05830  1.0000
  H   H4345     1.0  0.69578  0.58659  0.07590  1.0000
  H   H4346     1.0  0.67582  0.58080  0.07961  1.0000
  H   H4347     1.0  0.66283  0.61459  0.05580  1.0000
  H   H4348     1.0  0.68278  0.62052  0.05244  1.0000
  C   C3642     1.0  0.68363  0.60840  0.12934  1.0000
  C   C3643     1.0  0.68626  0.59569  0.13365  1.0000
  C   C3644     1.0  0.67787  0.59013  0.14326  1.0000
  C   C3645     1.0  0.66664  0.59722  0.14813  1.0000
  C   C3646     1.0  0.66392  0.60988  0.14361  1.0000
  C   C3647     1.0  0.67256  0.61550  0.13444  1.0000
  H   H4349     1.0  0.69483  0.59017  0.12975  1.0000
  H   H4350     1.0  0.68002  0.58035  0.14682  1.0000
  H   H4351     1.0  0.65529  0.61538  0.14739  1.0000
  H   H4352     1.0  0.67056  0.62535  0.13116  1.0000
  H   H4353     1.0  0.64116  0.56072  0.07010  1.0000
  C   C3648     1.0  0.58595  0.67788  0.98323  1.0000
  C   C3649     1.0  0.58757  0.62314  0.10880  1.0000
  H   H4354     1.0  0.66218  0.62252  0.11358  1.0000
  H   H4355     1.0  0.61119  0.52109  0.08622  1.0000
  H   H4356     1.0  0.62682  0.66041  0.15917  1.0000
  H   H4357     1.0  0.67594  0.61755  0.09488  1.0000
  H   H4358     1.0  0.58931  0.65700  0.09173  1.0000
  H   H4359     1.0  0.66322  0.55456  0.06689  1.0000
  S   S987      1.0  0.58689  0.62811  0.99623  1.0000
  C   C3650     1.0  0.58703  0.63218  0.11524  1.0000
  H   H4360     1.0  0.61561  0.50473  0.08808  1.0000
  H   H4361     1.0  0.64862  0.64352  0.06307  1.0000
  H   H4362     1.0  0.58746  0.65094  0.11411  1.0000
  H   H4363     1.0  0.67280  0.51092  0.09071  1.0000
  C   C3651     1.0  0.64709  0.65325  0.07687  1.0000
  C   C3652     1.0  0.60459  0.66642  0.15432  1.0000
  C   C3653     1.0  0.66380  0.56350  0.06037  1.0000
  C   C3654     1.0  0.58850  0.64774  0.09652  1.0000
  C   C3655     1.0  0.58921  0.63909  0.08994  1.0000
  H   H4364     1.0  0.60012  0.59263  0.11581  1.0000
  N   N239      1.0  0.58741  0.61017  0.11490  1.0000
  H   H4365     1.0  0.64616  0.62173  0.11697  1.0000
  H   H4366     1.0  0.60197  0.60269  0.10110  1.0000
  H   H4367     1.0  0.64116  0.57667  0.06788  1.0000
  C   C3656     1.0  0.64942  0.64272  0.07234  1.0000
  C   C3657     1.0  0.65565  0.61748  0.11269  1.0000
  H   H4368     1.0  0.59169  0.61002  0.13189  1.0000
  H   H4369     1.0  0.64572  0.55996  0.04359  1.0000
  H   H4370     1.0  0.65423  0.54906  0.05393  1.0000
  H   H4371     1.0  0.72903  0.62000  0.11425  1.0000
  H   H4372     1.0  0.56884  0.61207  0.11334  1.0000
  H   H4373     1.0  0.65004  0.60745  0.09033  1.0000
  C   C3658     1.0  0.71712  0.61531  0.13782  1.0000
  C   C3659     1.0  0.65081  0.64073  0.09642  1.0000
  H   H4374     1.0  0.70821  0.61424  0.13668  1.0000
  H   H4375     1.0  0.65086  0.60017  0.10561  1.0000
  C   C3660     1.0  0.64788  0.65226  0.08885  1.0000
  N   N240      1.0  0.59623  0.67011  0.98902  1.0000
  C   C3661     1.0  0.58450  0.60805  0.12845  1.0000
  H   H4376     1.0  0.65798  0.60805  0.11827  1.0000
  H   H4377     1.0  0.66220  0.55737  0.03994  1.0000
  H   H4378     1.0  0.62542  0.64921  0.15207  1.0000
  C   C3662     1.0  0.65246  0.63116  0.07978  1.0000
  H   H4379     1.0  0.58418  0.59828  0.13281  1.0000
  H   H4380     1.0  0.67036  0.49246  0.10892  1.0000
  H   H4381     1.0  0.63887  0.61342  0.10254  1.0000
  H   H4382     1.0  0.61779  0.65429  0.99350  1.0000
  H   H4383     1.0  0.58718  0.52023  0.11513  1.0000
  H   H4384     1.0  0.58973  0.52122  0.08768  1.0000
  C   C3663     1.0  0.61200  0.51228  0.09313  1.0000
  H   H4385     1.0  0.61904  0.51217  0.09806  1.0000
  H   H4386     1.0  0.60617  0.63796  0.17246  1.0000
  H   H4387     1.0  0.58200  0.51087  0.09984  1.0000
  H   H4388     1.0  0.60131  0.68524  0.99232  1.0000
  N   N241      1.0  0.60005  0.51098  0.10154  1.0000
  H   H4389     1.0  0.57718  0.67946  0.99007  1.0000
  H   H4390     1.0  0.67245  0.60251  0.09985  1.0000
  H   H4391     1.0  0.60698  0.60552  0.11324  1.0000
  H   H4392     1.0  0.59338  0.53035  0.10144  1.0000
  H   H4393     1.0  0.67101  0.61137  0.08498  1.0000
  H   H4394     1.0  0.57737  0.59643  0.11630  1.0000
  C   C3664     1.0  0.64189  0.56934  0.06306  1.0000
  C   C3665     1.0  0.58749  0.64428  0.10912  1.0000
  H   H4395     1.0  0.59050  0.64173  0.08007  1.0000
  H   H4396     1.0  0.60519  0.67094  0.00273  1.0000
  N   N242      1.0  0.72775  0.60714  0.13151  1.0000
  C   C3666     1.0  0.68274  0.50676  0.08986  1.0000
  H   H4397     1.0  0.68745  0.51059  0.08046  1.0000
  H   H4398     1.0  0.64443  0.66217  0.07116  1.0000
  H   H4399     1.0  0.71671  0.61323  0.14782  1.0000
  C   C3667     1.0  0.65394  0.55817  0.04751  1.0000
  H   H4400     1.0  0.66364  0.56993  0.06600  1.0000
  C   C3668     1.0  0.57806  0.60598  0.11138  1.0000
  N   N243      1.0  0.65354  0.56790  0.05378  1.0000
  C   C3669     1.0  0.65314  0.62978  0.09210  1.0000
  C   C3670     1.0  0.58886  0.62695  0.09593  1.0000
  H   H4401     1.0  0.60257  0.52253  0.11219  1.0000
  H   H4402     1.0  0.58989  0.62053  0.09032  1.0000
  H   H4403     1.0  0.73453  0.60419  0.11305  1.0000
  N   N244      1.0  0.66307  0.56795  0.12860  1.0000
  C   C3671     1.0  0.65728  0.57269  0.13993  1.0000
  C   C3672     1.0  0.66560  0.55438  0.13212  1.0000
  C   C3673     1.0  0.67488  0.57203  0.12346  1.0000
  C   C3674     1.0  0.65532  0.57214  0.11938  1.0000
  C   C3675     1.0  0.65992  0.56905  0.10774  1.0000
  C   C3676     1.0  0.64301  0.57892  0.12173  1.0000
  C   C3677     1.0  0.65270  0.57258  0.09901  1.0000
  C   C3678     1.0  0.63586  0.58240  0.11291  1.0000
  C   C3679     1.0  0.64070  0.57926  0.10157  1.0000
  H   H4404     1.0  0.64878  0.56930  0.14489  1.0000
  H   H4405     1.0  0.66344  0.56967  0.14655  1.0000
  H   H4406     1.0  0.65500  0.58288  0.13795  1.0000
  H   H4407     1.0  0.67034  0.55008  0.12419  1.0000
  H   H4408     1.0  0.65691  0.55102  0.13609  1.0000
  H   H4409     1.0  0.67146  0.55076  0.13901  1.0000
  H   H4410     1.0  0.67335  0.58220  0.12057  1.0000
  H   H4411     1.0  0.68091  0.56905  0.13021  1.0000
  H   H4412     1.0  0.68039  0.56818  0.11543  1.0000
  H   H4413     1.0  0.66909  0.56369  0.10535  1.0000
  H   H4414     1.0  0.63860  0.58150  0.13038  1.0000
  H   H4415     1.0  0.65644  0.57003  0.09021  1.0000
  H   H4416     1.0  0.62643  0.58737  0.11501  1.0000
  H   H4417     1.0  0.63516  0.58195  0.09474  1.0000
  C   C3680     1.0  0.65411  0.57967  0.04478  1.0000
  C   C3681     1.0  0.64535  0.58469  0.03726  1.0000
  C   C3682     1.0  0.66295  0.58665  0.04347  1.0000
  C   C3683     1.0  0.64529  0.59608  0.02914  1.0000
  C   C3684     1.0  0.66274  0.59808  0.03540  1.0000
  C   C3685     1.0  0.65389  0.60281  0.02830  1.0000
  H   H4418     1.0  0.63814  0.58011  0.03792  1.0000
  H   H4419     1.0  0.66986  0.58374  0.04890  1.0000
  H   H4420     1.0  0.63823  0.60000  0.02381  1.0000
  H   H4421     1.0  0.66930  0.60343  0.03488  1.0000
  H   H4422     1.0  0.65350  0.61183  0.02232  1.0000
  H   H4423     1.0  0.59858  0.65288  0.00239  1.0000
  H   H4424     1.0  0.68691  0.49943  0.06786  1.0000
  H   H4425     1.0  0.57545  0.61374  0.13192  1.0000
  C   C3686     1.0  0.59114  0.51207  0.09400  1.0000
  C   C3687     1.0  0.59965  0.60243  0.11108  1.0000
  N   N245      1.0  0.65665  0.61742  0.09969  1.0000
  H   H4426     1.0  0.58030  0.60577  0.10152  1.0000
  H   H4427     1.0  0.60801  0.67472  0.15368  1.0000
  H   H4428     1.0  0.72678  0.59124  0.14619  1.0000
  H   H4429     1.0  0.61261  0.63000  0.98812  1.0000
  H   H4430     1.0  0.63364  0.57189  0.05900  1.0000
  H   H4431     1.0  0.71852  0.61033  0.11682  1.0000
  H   H4432     1.0  0.65424  0.62331  0.07579  1.0000
  H   H4433     1.0  0.64586  0.66048  0.09241  1.0000
  C   C3688     1.0  0.59230  0.65862  0.99631  1.0000
  C   C3689     1.0  0.60170  0.49918  0.11055  1.0000
  H   H4434     1.0  0.65101  0.64067  0.10566  1.0000
  C   C3690     1.0  0.66956  0.61198  0.09465  1.0000
  H   H4435     1.0  0.67289  0.56220  0.05397  1.0000
  H   H4436     1.0  0.59446  0.50522  0.08808  1.0000
  C   C3691     1.0  0.64874  0.60932  0.09953  1.0000
  C   C3692     1.0  0.59557  0.52140  0.10789  1.0000
  N   N246      1.0  0.60874  0.65628  0.16421  1.0000
  H   H4437     1.0  0.60732  0.64207  0.15624  1.0000
  C   C3693     1.0  0.73981  0.60803  0.13287  1.0000
  C   C3694     1.0  0.59677  0.48916  0.11060  1.0000
  H   H4438     1.0  0.62218  0.65980  0.17954  1.0000
  H   H4439     1.0  0.59441  0.66908  0.15582  1.0000
  H   H4440     1.0  0.63761  0.49512  0.09064  1.0000
  H   H4441     1.0  0.71737  0.62516  0.13395  1.0000
  H   H4442     1.0  0.73340  0.62301  0.14282  1.0000
  C   C3695     1.0  0.72594  0.59438  0.13647  1.0000
  C   C3696     1.0  0.62235  0.65259  0.16074  1.0000
  H   H4443     1.0  0.58483  0.66232  0.17662  1.0000
  H   H4444     1.0  0.73268  0.58776  0.13128  1.0000
  H   H4445     1.0  0.67670  0.49288  0.05565  1.0000
  H   H4446     1.0  0.71669  0.59357  0.13602  1.0000
  H   H4447     1.0  0.59177  0.65289  0.99026  1.0000
  H   H4448     1.0  0.58955  0.67910  0.00425  1.0000
  H   H4449     1.0  0.59358  0.64771  0.16612  1.0000
  H   H4450     1.0  0.60800  0.66378  0.14525  1.0000
  H   H4451     1.0  0.58308  0.66039  0.00244  1.0000
  H   H4452     1.0  0.68611  0.51034  0.09604  1.0000
  H   H4453     1.0  0.59178  0.48942  0.10390  1.0000
  C   C3697     1.0  0.60372  0.64560  0.16480  1.0000
  C   C3698     1.0  0.59814  0.67665  0.99745  1.0000
  H   H4454     1.0  0.61331  0.50420  0.11957  1.0000
  C   C3699     1.0  0.60871  0.49730  0.11944  1.0000
  H   H4455     1.0  0.62604  0.64497  0.16788  1.0000
  S   S988      1.0  0.64576  0.48891  0.11370  1.0000
  H   H4456     1.0  0.70324  0.49096  0.09523  1.0000
  H   H4457     1.0  0.68470  0.49304  0.11150  1.0000
  C   C3700     1.0  0.68086  0.49318  0.07256  1.0000
  N   N247      1.0  0.68491  0.49316  0.09278  1.0000
  C   C3701     1.0  0.67512  0.48943  0.06546  1.0000
  H   H4458     1.0  0.70239  0.49133  0.08000  1.0000
  C   C3702     1.0  0.60429  0.66025  0.17602  1.0000
  C   C3703     1.0  0.74116  0.61677  0.13870  1.0000
  C   C3704     1.0  0.68049  0.48924  0.10619  1.0000
  C   C3705     1.0  0.67879  0.48898  0.08546  1.0000
  C   C3706     1.0  0.69830  0.48812  0.08981  1.0000
  H   H4459     1.0  0.60652  0.57923  0.29976  1.0000
  H   H4460     1.0  0.55424  0.63692  0.26118  1.0000
  C   C3707     1.0  0.61857  0.82471  0.36240  1.0000
  H   H4461     1.0  0.55133  0.88436  0.33173  1.0000
  H   H4462     1.0  0.55293  0.64508  0.35545  1.0000
  H   H4463     1.0  0.63159  0.62520  0.27290  1.0000
  C   C3708     1.0  0.50220  0.85752  0.35491  1.0000
  S   S989      1.0  0.60691  0.80345  0.35336  1.0000
  Fe  Fe496     1.0  0.66659  0.84893  0.35174  1.0000
  S   S990      1.0  0.66343  0.86916  0.34353  1.0000
  S   S991      1.0  0.66449  0.83570  0.34175  1.0000
  H   H4464     1.0  0.56454  0.64015  0.21638  1.0000
  H   H4465     1.0  0.62496  0.59870  0.31338  1.0000
  Fe  Fe497     1.0  0.65100  0.87102  0.36178  1.0000
  S   S992      1.0  0.63110  0.88106  0.36616  1.0000
  Fe  Fe498     1.0  0.67894  0.86921  0.35199  1.0000
  S   S993      1.0  0.69633  0.87642  0.34170  1.0000
  H   H4466     1.0  0.62430  0.54796  0.28381  1.0000
  H   H4467     1.0  0.59475  0.52819  0.30985  1.0000
  Fe  Fe499     1.0  0.54472  0.87793  0.35611  1.0000
  S   S994      1.0  0.52721  0.88659  0.34868  1.0000
  Fe  Fe500     1.0  0.57272  0.87271  0.35370  1.0000
  S   S995      1.0  0.59082  0.87565  0.34108  1.0000
  S   S996      1.0  0.59882  0.61695  0.18885  1.0000
  H   H4468     1.0  0.55641  0.65872  0.22515  1.0000
  S   S997      1.0  0.56018  0.86301  0.34977  1.0000
  C   C3709     1.0  0.58554  0.76568  0.37391  1.0000
  C   C3710     1.0  0.59256  0.54393  0.33125  1.0000
  C   C3711     1.0  0.72711  0.85051  0.29606  1.0000
  Fe  Fe501     1.0  0.51996  0.64379  0.32943  1.0000
  S   S998      1.0  0.53000  0.65031  0.33956  1.0000
  S   S999      1.0  0.53200  0.63151  0.31683  1.0000
  Fe  Fe502     1.0  0.51537  0.64529  0.35580  1.0000
  H   H4469     1.0  0.71326  0.84106  0.29776  1.0000
  Fe  Fe503     1.0  0.51673  0.66816  0.33587  1.0000
  S   S1000     1.0  0.52392  0.68549  0.33039  1.0000
  S   S1001     1.0  0.50630  0.63704  0.34620  1.0000
  S   S1002     1.0  0.50770  0.66218  0.32432  1.0000
  Fe  Fe504     1.0  0.58030  0.64971  0.26232  1.0000
  S   S1003     1.0  0.58947  0.63737  0.27718  1.0000
  S   S1004     1.0  0.56082  0.65980  0.26764  1.0000
  Fe  Fe505     1.0  0.60251  0.64375  0.24205  1.0000
  S   S1005     1.0  0.61353  0.63109  0.25547  1.0000
  S   S1006     1.0  0.61134  0.64569  0.22189  1.0000
  Fe  Fe506     1.0  0.59629  0.62425  0.26464  1.0000
  S   S1007     1.0  0.59617  0.60418  0.26955  1.0000
  Fe  Fe507     1.0  0.60571  0.64550  0.26674  1.0000
  S   S1008     1.0  0.61685  0.64908  0.27810  1.0000
  S   S1009     1.0  0.58577  0.63592  0.25054  1.0000
  S   S1010     1.0  0.59612  0.65893  0.25256  1.0000
  Fe  Fe508     1.0  0.59627  0.69273  0.32150  1.0000
  S   S1011     1.0  0.61383  0.68979  0.32762  1.0000
  S   S1012     1.0  0.59391  0.69546  0.30224  1.0000
  Fe  Fe509     1.0  0.58124  0.68926  0.34740  1.0000
  S   S1013     1.0  0.59747  0.68620  0.35578  1.0000
  S   S1014     1.0  0.56332  0.68504  0.35903  1.0000
  Fe  Fe510     1.0  0.60282  0.70206  0.34082  1.0000
  S   S1015     1.0  0.61220  0.71697  0.34156  1.0000
  Fe  Fe511     1.0  0.60704  0.67441  0.34208  1.0000
  S   S1016     1.0  0.61757  0.65526  0.34835  1.0000
  S   S1017     1.0  0.58558  0.70608  0.33350  1.0000
  S   S1018     1.0  0.59046  0.67642  0.33485  1.0000
  Fe  Fe512     1.0  0.58065  0.59214  0.35790  1.0000
  S   S1019     1.0  0.60111  0.59002  0.35415  1.0000
  H   H4470     1.0  0.64383  0.80099  0.35687  1.0000
  Fe  Fe513     1.0  0.58126  0.58600  0.33414  1.0000
  S   S1020     1.0  0.60166  0.58384  0.32792  1.0000
  S   S1021     1.0  0.57019  0.58245  0.32288  1.0000
  Fe  Fe514     1.0  0.60204  0.57336  0.34716  1.0000
  S   S1022     1.0  0.61402  0.55463  0.35244  1.0000
  Fe  Fe515     1.0  0.59894  0.60064  0.33538  1.0000
  S   S1023     1.0  0.60666  0.61718  0.32442  1.0000
  S   S1024     1.0  0.58169  0.57450  0.35287  1.0000
  S   S1025     1.0  0.57842  0.60379  0.33955  1.0000
  H   H4471     1.0  0.71021  0.86314  0.37571  1.0000
  S   S1026     1.0  0.72309  0.90892  0.35844  1.0000
  H   H4472     1.0  0.55534  0.60605  0.24524  1.0000
  S   S1027     1.0  0.63228  0.51964  0.31456  1.0000
  C   C3712     1.0  0.61957  0.54491  0.34191  1.0000
  C   C3713     1.0  0.62131  0.53214  0.34620  1.0000
  C   C3714     1.0  0.62526  0.52423  0.33794  1.0000
  C   C3715     1.0  0.62790  0.52905  0.32535  1.0000
  C   C3716     1.0  0.62663  0.54178  0.32112  1.0000
  C   C3717     1.0  0.62221  0.54970  0.32933  1.0000
  H   H4473     1.0  0.61935  0.52837  0.35593  1.0000
  H   H4474     1.0  0.62630  0.51443  0.34131  1.0000
  H   H4475     1.0  0.62887  0.54556  0.31142  1.0000
  H   H4476     1.0  0.62091  0.55950  0.32594  1.0000
  C   C3718     1.0  0.61444  0.64452  0.34196  1.0000
  C   C3719     1.0  0.61191  0.64807  0.33028  1.0000
  C   C3720     1.0  0.60967  0.63956  0.32502  1.0000
  C   C3721     1.0  0.60949  0.62750  0.33155  1.0000
  C   C3722     1.0  0.61175  0.62395  0.34338  1.0000
  C   C3723     1.0  0.61446  0.63239  0.34847  1.0000
  H   H4477     1.0  0.61206  0.65731  0.32513  1.0000
  H   H4478     1.0  0.60812  0.64239  0.31583  1.0000
  H   H4479     1.0  0.61170  0.61465  0.34848  1.0000
  C   C3724     1.0  0.52294  0.60234  0.36222  1.0000
  C   C3725     1.0  0.57584  0.58945  0.30783  1.0000
  C   C3726     1.0  0.58044  0.60001  0.30552  1.0000
  C   C3727     1.0  0.58619  0.60496  0.29364  1.0000
  C   C3728     1.0  0.58783  0.59901  0.28418  1.0000
  C   C3729     1.0  0.58312  0.58849  0.28647  1.0000
  C   C3730     1.0  0.57686  0.58388  0.29824  1.0000
  H   H4480     1.0  0.57965  0.60429  0.31294  1.0000
  H   H4481     1.0  0.58971  0.61311  0.29195  1.0000
  H   H4482     1.0  0.58446  0.58382  0.27917  1.0000
  H   H4483     1.0  0.57339  0.57566  0.30001  1.0000
  C   C3731     1.0  0.61068  0.66220  0.28448  1.0000
  C   C3732     1.0  0.60201  0.67194  0.27955  1.0000
  C   C3733     1.0  0.59719  0.68228  0.28483  1.0000
  C   C3734     1.0  0.60075  0.68280  0.29525  1.0000
  C   C3735     1.0  0.60941  0.67308  0.30017  1.0000
  C   C3736     1.0  0.61446  0.66287  0.29472  1.0000
  H   H4484     1.0  0.59913  0.67157  0.27158  1.0000
  H   H4485     1.0  0.59057  0.68984  0.28092  1.0000
  H   H4486     1.0  0.61235  0.67355  0.30805  1.0000
  H   H4487     1.0  0.62124  0.65543  0.29851  1.0000
  C   C3737     1.0  0.60814  0.63690  0.21327  1.0000
  C   C3738     1.0  0.61663  0.63433  0.20261  1.0000
  C   C3739     1.0  0.61404  0.62799  0.19518  1.0000
  C   C3740     1.0  0.60284  0.62431  0.19826  1.0000
  C   C3741     1.0  0.59438  0.62681  0.20895  1.0000
  C   C3742     1.0  0.59702  0.63303  0.21646  1.0000
  H   H4488     1.0  0.62525  0.63726  0.20011  1.0000
  C   C3743     1.0  0.54173  0.58704  0.37353  1.0000
  H   H4489     1.0  0.58573  0.62398  0.21137  1.0000
  H   H4490     1.0  0.59035  0.63510  0.22453  1.0000
  C   C3744     1.0  0.53969  0.63933  0.30294  1.0000
  C   C3745     1.0  0.55032  0.63299  0.29625  1.0000
  C   C3746     1.0  0.55685  0.63923  0.28541  1.0000
  C   C3747     1.0  0.55265  0.65177  0.28108  1.0000
  C   C3748     1.0  0.54184  0.65802  0.28760  1.0000
  C   C3749     1.0  0.53546  0.65185  0.29859  1.0000
  H   H4491     1.0  0.55367  0.62330  0.29958  1.0000
  H   H4492     1.0  0.56511  0.63432  0.28040  1.0000
  H   H4493     1.0  0.53848  0.66770  0.28423  1.0000
  H   H4494     1.0  0.52719  0.65678  0.30360  1.0000
  H   H4495     1.0  0.57324  0.54298  0.32298  1.0000
  C   C3750     1.0  0.54008  0.62237  0.36356  1.0000
  C   C3751     1.0  0.55108  0.61349  0.36373  1.0000
  H   H4496     1.0  0.65167  0.67160  0.35864  1.0000
  H   H4497     1.0  0.58937  0.52460  0.32602  1.0000
  H   H4498     1.0  0.60512  0.52541  0.31995  1.0000
  H   H4499     1.0  0.53673  0.62600  0.35521  1.0000
  H   H4500     1.0  0.55609  0.61031  0.35553  1.0000
  S   S1028     1.0  0.68296  0.84867  0.35864  1.0000
  S   S1029     1.0  0.55746  0.88857  0.35825  1.0000
  C   C3752     1.0  0.53544  0.68479  0.33791  1.0000
  C   C3753     1.0  0.54342  0.69293  0.33305  1.0000
  C   C3754     1.0  0.55243  0.69265  0.33920  1.0000
  C   C3755     1.0  0.55312  0.68458  0.35048  1.0000
  C   C3756     1.0  0.54519  0.67640  0.35529  1.0000
  C   C3757     1.0  0.53659  0.67628  0.34886  1.0000
  H   H4501     1.0  0.54260  0.69950  0.32454  1.0000
  H   H4502     1.0  0.55852  0.69901  0.33544  1.0000
  H   H4503     1.0  0.54552  0.67034  0.36413  1.0000
  H   H4504     1.0  0.53057  0.66989  0.35254  1.0000
  C   C3758     1.0  0.70369  0.88530  0.34667  1.0000
  C   C3759     1.0  0.71589  0.88618  0.34088  1.0000
  C   C3760     1.0  0.72198  0.89334  0.34433  1.0000
  C   C3761     1.0  0.71584  0.89995  0.35348  1.0000
  C   C3762     1.0  0.70360  0.89913  0.35920  1.0000
  C   C3763     1.0  0.69763  0.89173  0.35596  1.0000
  H   H4505     1.0  0.72067  0.88132  0.33364  1.0000
  H   H4506     1.0  0.73138  0.89386  0.33983  1.0000
  H   H4507     1.0  0.68822  0.89125  0.36045  1.0000
  C   C3764     1.0  0.62024  0.87911  0.35906  1.0000
  C   C3765     1.0  0.62302  0.87880  0.34665  1.0000
  C   C3766     1.0  0.61389  0.87802  0.34112  1.0000
  C   C3767     1.0  0.60199  0.87732  0.34801  1.0000
  C   C3768     1.0  0.59927  0.87753  0.36043  1.0000
  C   C3769     1.0  0.60835  0.87838  0.36591  1.0000
  H   H4508     1.0  0.56970  0.63296  0.34153  1.0000
  H   H4509     1.0  0.61609  0.87787  0.33150  1.0000
  H   H4510     1.0  0.59015  0.87714  0.36585  1.0000
  C   C3770     1.0  0.72551  0.86034  0.31240  1.0000
  C   C3771     1.0  0.59314  0.81222  0.35997  1.0000
  H   H4511     1.0  0.58335  0.65191  0.34012  1.0000
  C   C3772     1.0  0.57543  0.82889  0.35785  1.0000
  C   C3773     1.0  0.58656  0.82195  0.35259  1.0000
  H   H4512     1.0  0.57036  0.83640  0.35213  1.0000
  H   H4513     1.0  0.59009  0.82413  0.34281  1.0000
  C   C3774     1.0  0.58139  0.90614  0.37959  1.0000
  C   C3775     1.0  0.59528  0.66720  0.19896  1.0000
  C   C3776     1.0  0.65285  0.81633  0.35029  1.0000
  C   C3777     1.0  0.66237  0.82130  0.35099  1.0000
  C   C3778     1.0  0.60760  0.56961  0.29987  1.0000
  C   C3779     1.0  0.58712  0.66624  0.19258  1.0000
  H   H4514     1.0  0.64281  0.61523  0.29571  1.0000
  H   H4515     1.0  0.64670  0.82147  0.34425  1.0000
  C   C3780     1.0  0.63322  0.58033  0.31178  1.0000
  C   C3781     1.0  0.62984  0.59289  0.30697  1.0000
  C   C3782     1.0  0.57527  0.63096  0.34855  1.0000
  C   C3783     1.0  0.62160  0.73936  0.35765  1.0000
  C   C3784     1.0  0.62047  0.73322  0.34918  1.0000
  C   C3785     1.0  0.61289  0.72464  0.35268  1.0000
  C   C3786     1.0  0.57648  0.60678  0.25022  1.0000
  C   C3787     1.0  0.55941  0.64273  0.36168  1.0000
  H   H4516     1.0  0.62773  0.74566  0.35485  1.0000
  H   H4517     1.0  0.62567  0.73498  0.33988  1.0000
  S   S1030     1.0  0.50309  0.87320  0.31185  1.0000
  S   S1031     1.0  0.54197  0.86848  0.37594  1.0000
  C   C3788     1.0  0.50941  0.87649  0.32266  1.0000
  C   C3789     1.0  0.50251  0.88421  0.33062  1.0000
  C   C3790     1.0  0.50808  0.88702  0.33863  1.0000
  C   C3791     1.0  0.52056  0.88212  0.33886  1.0000
  C   C3792     1.0  0.52744  0.87431  0.33097  1.0000
  C   C3793     1.0  0.52188  0.87153  0.32294  1.0000
  H   H4518     1.0  0.59196  0.66934  0.20796  1.0000
  H   H4519     1.0  0.53710  0.87064  0.33081  1.0000
  H   H4520     1.0  0.52732  0.86563  0.31676  1.0000
  C   C3794     1.0  0.54296  0.58863  0.36094  1.0000
  C   C3795     1.0  0.54542  0.60461  0.33534  1.0000
  C   C3796     1.0  0.57732  0.81615  0.37781  1.0000
  N   N248      1.0  0.56271  0.67096  0.30546  1.0000
  C   C3797     1.0  0.56544  0.67567  0.29204  1.0000
  C   C3798     1.0  0.54917  0.67385  0.30980  1.0000
  C   C3799     1.0  0.56792  0.67770  0.31132  1.0000
  C   C3800     1.0  0.56824  0.65768  0.30824  1.0000
  C   C3801     1.0  0.58116  0.65351  0.30518  1.0000
  C   C3802     1.0  0.56111  0.64855  0.31357  1.0000
  C   C3803     1.0  0.58661  0.64104  0.30729  1.0000
  C   C3804     1.0  0.56668  0.63607  0.31574  1.0000
  C   C3805     1.0  0.57941  0.63234  0.31263  1.0000
  H   H4521     1.0  0.56180  0.67072  0.28730  1.0000
  H   H4522     1.0  0.56136  0.68563  0.28949  1.0000
  H   H4523     1.0  0.57545  0.67449  0.28813  1.0000
  H   H4524     1.0  0.54446  0.66995  0.30506  1.0000
  H   H4525     1.0  0.54530  0.68391  0.30807  1.0000
  H   H4526     1.0  0.54646  0.67032  0.31981  1.0000
  H   H4527     1.0  0.56386  0.68772  0.30950  1.0000
  H   H4528     1.0  0.56625  0.67429  0.32141  1.0000
  H   H4529     1.0  0.57797  0.67691  0.30788  1.0000
  H   H4530     1.0  0.58717  0.65986  0.30089  1.0000
  H   H4531     1.0  0.55120  0.65076  0.31589  1.0000
  H   H4532     1.0  0.59649  0.63809  0.30457  1.0000
  H   H4533     1.0  0.56105  0.62926  0.31958  1.0000
  H   H4534     1.0  0.58376  0.62270  0.31421  1.0000
  N   N249      1.0  0.55244  0.90164  0.31934  1.0000
  C   C3806     1.0  0.54830  0.90886  0.32906  1.0000
  C   C3807     1.0  0.55830  0.88903  0.32483  1.0000
  C   C3808     1.0  0.56184  0.90728  0.30965  1.0000
  C   C3809     1.0  0.54237  0.90115  0.31399  1.0000
  C   C3810     1.0  0.54489  0.89465  0.30454  1.0000
  C   C3811     1.0  0.52988  0.90677  0.31807  1.0000
  C   C3812     1.0  0.53552  0.89376  0.29956  1.0000
  C   C3813     1.0  0.52060  0.90588  0.31295  1.0000
  C   C3814     1.0  0.52340  0.89935  0.30377  1.0000
  H   H4535     1.0  0.55608  0.90908  0.33286  1.0000
  H   H4536     1.0  0.54397  0.91855  0.32553  1.0000
  H   H4537     1.0  0.54163  0.90478  0.33695  1.0000
  H   H4538     1.0  0.56559  0.88897  0.32947  1.0000
  H   H4539     1.0  0.56276  0.88325  0.31796  1.0000
  H   H4540     1.0  0.55767  0.91662  0.30497  1.0000
  H   H4541     1.0  0.56936  0.90813  0.31345  1.0000
  H   H4542     1.0  0.56633  0.90177  0.30255  1.0000
  H   H4543     1.0  0.55412  0.88999  0.30108  1.0000
  H   H4544     1.0  0.52694  0.91155  0.32548  1.0000
  H   H4545     1.0  0.53758  0.88848  0.29258  1.0000
  H   H4546     1.0  0.51609  0.89830  0.30019  1.0000
  N   N250      1.0  0.64158  0.68702  0.34771  1.0000
  C   C3815     1.0  0.64198  0.69252  0.33454  1.0000
  S   S1032     1.0  0.57204  0.86219  0.37305  1.0000
  H   H4547     1.0  0.59774  0.90701  0.36546  1.0000
  S   S1033     1.0  0.62349  0.79577  0.38019  1.0000
  C   C3816     1.0  0.64770  0.71304  0.36475  1.0000
  C   C3817     1.0  0.60748  0.72851  0.37328  1.0000
  C   C3818     1.0  0.51086  0.84057  0.33980  1.0000
  H   H4548     1.0  0.62407  0.84150  0.34251  1.0000
  H   H4549     1.0  0.62071  0.62597  0.18709  1.0000
  H   H4550     1.0  0.57912  0.59806  0.25680  1.0000
  H   H4551     1.0  0.63497  0.70126  0.33331  1.0000
  H   H4552     1.0  0.64992  0.66868  0.34486  1.0000
  H   H4553     1.0  0.51388  0.60583  0.38014  1.0000
  H   H4554     1.0  0.66144  0.69777  0.34196  1.0000
  H   H4555     1.0  0.70061  0.82966  0.31246  1.0000
  H   H4556     1.0  0.73196  0.84832  0.28728  1.0000
  H   H4557     1.0  0.58724  0.65553  0.35783  1.0000
  H   H4558     1.0  0.62741  0.82067  0.36543  1.0000
  H   H4559     1.0  0.58316  0.78352  0.33917  1.0000
  C   C3819     1.0  0.58865  0.80952  0.37261  1.0000
  H   H4560     1.0  0.51465  0.86731  0.36653  1.0000
  H   H4561     1.0  0.64007  0.68629  0.32981  1.0000
  C   C3820     1.0  0.73169  0.85749  0.30113  1.0000
  H   H4562     1.0  0.54709  0.60617  0.32520  1.0000
  C   C3821     1.0  0.56224  0.63925  0.22621  1.0000
  Fe  Fe516     1.0  0.66939  0.85261  0.37556  1.0000
  C   C3822     1.0  0.66930  0.80255  0.36511  1.0000
  C   C3823     1.0  0.70006  0.83698  0.33241  1.0000
  H   H4563     1.0  0.58973  0.55350  0.33263  1.0000
  H   H4564     1.0  0.53961  0.58719  0.32787  1.0000
  C   C3824     1.0  0.59305  0.76019  0.34931  1.0000
  S   S1034     1.0  0.63128  0.77444  0.36356  1.0000
  H   H4565     1.0  0.69871  0.90424  0.36623  1.0000
  C   C3825     1.0  0.53356  0.59626  0.35489  1.0000
  H   H4566     1.0  0.56783  0.65413  0.33869  1.0000
  C   C3826     1.0  0.70975  0.84919  0.31372  1.0000
  H   H4567     1.0  0.57737  0.66787  0.19656  1.0000
  C   C3827     1.0  0.55765  0.64971  0.23112  1.0000
  H   H4568     1.0  0.57077  0.66082  0.34941  1.0000
  C   C3828     1.0  0.55471  0.64857  0.24374  1.0000
  H   H4569     1.0  0.57741  0.60417  0.24146  1.0000
  H   H4570     1.0  0.64430  0.61240  0.27410  1.0000
  N   N251      1.0  0.57238  0.64119  0.35495  1.0000
  C   C3829     1.0  0.58610  0.77468  0.36281  1.0000
  H   H4571     1.0  0.55123  0.65673  0.24757  1.0000
  H   H4572     1.0  0.61199  0.60976  0.28590  1.0000
  N   N252      1.0  0.69822  0.84513  0.32050  1.0000
  C   C3830     1.0  0.57872  0.78659  0.36343  1.0000
  H   H4573     1.0  0.57343  0.62227  0.35485  1.0000
  H   H4574     1.0  0.58331  0.76072  0.34930  1.0000
  C   C3831     1.0  0.59403  0.90473  0.37522  1.0000
  C   C3832     1.0  0.56408  0.62764  0.23391  1.0000
  C   C3833     1.0  0.56161  0.62616  0.24682  1.0000
  C   C3834     1.0  0.55654  0.63701  0.25153  1.0000
  H   H4575     1.0  0.63087  0.62827  0.29187  1.0000
  C   C3835     1.0  0.61529  0.61454  0.29110  1.0000
  C   C3836     1.0  0.63410  0.61505  0.27611  1.0000
  C   C3837     1.0  0.63257  0.59780  0.29420  1.0000
  H   H4576     1.0  0.61182  0.53540  0.29961  1.0000
  H   H4577     1.0  0.51543  0.60859  0.35846  1.0000
  H   H4578     1.0  0.53863  0.84983  0.36511  1.0000
  H   H4579     1.0  0.61420  0.76715  0.34461  1.0000
  H   H4580     1.0  0.60907  0.77867  0.35362  1.0000
  C   C3838     1.0  0.65442  0.70056  0.34954  1.0000
  C   C3839     1.0  0.59278  0.78145  0.34035  1.0000
  H   H4581     1.0  0.60615  0.87836  0.37555  1.0000
  H   H4582     1.0  0.54923  0.58151  0.37786  1.0000
  H   H4583     1.0  0.72901  0.86584  0.31633  1.0000
  C   C3840     1.0  0.62206  0.84843  0.37462  1.0000
  H   H4584     1.0  0.73659  0.87700  0.36742  1.0000
  H   H4585     1.0  0.52648  0.82853  0.36918  1.0000
  N   N253      1.0  0.56397  0.61378  0.25477  1.0000
  H   H4586     1.0  0.50973  0.68466  0.35927  1.0000
  H   H4587     1.0  0.59510  0.79007  0.34071  1.0000
  C   C3841     1.0  0.52148  0.83622  0.37383  1.0000
  S   S1035     1.0  0.50280  0.66372  0.35297  1.0000
  H   H4588     1.0  0.71031  0.85871  0.32735  1.0000
  H   H4589     1.0  0.56974  0.61912  0.26832  1.0000
  C   C3842     1.0  0.55481  0.60708  0.25462  1.0000
  C   C3843     1.0  0.71630  0.84638  0.30222  1.0000
  C   C3844     1.0  0.60782  0.66509  0.19392  1.0000
  H   H4590     1.0  0.69155  0.83371  0.33779  1.0000
  H   H4591     1.0  0.53828  0.84258  0.35366  1.0000
  H   H4592     1.0  0.55758  0.63425  0.36845  1.0000
  C   C3845     1.0  0.57367  0.65252  0.34539  1.0000
  C   C3846     1.0  0.58040  0.63844  0.36377  1.0000
  H   H4593     1.0  0.60261  0.84153  0.34969  1.0000
  C   C3847     1.0  0.62963  0.68324  0.35300  1.0000
  H   H4594     1.0  0.61065  0.61211  0.30086  1.0000
  H   H4595     1.0  0.58357  0.61218  0.24878  1.0000
  H   H4596     1.0  0.53278  0.85886  0.35202  1.0000
  C   C3848     1.0  0.61746  0.55207  0.29082  1.0000
  C   C3849     1.0  0.63848  0.58927  0.28652  1.0000
  C   C3850     1.0  0.61615  0.56440  0.29071  1.0000
  H   H4597     1.0  0.61644  0.62955  0.35751  1.0000
  H   H4598     1.0  0.62174  0.56995  0.28352  1.0000
  H   H4599     1.0  0.51109  0.90989  0.31646  1.0000
  C   C3851     1.0  0.65140  0.67575  0.34886  1.0000
  H   H4600     1.0  0.56759  0.61983  0.22964  1.0000
  C   C3852     1.0  0.61011  0.54493  0.29999  1.0000
  H   H4601     1.0  0.55620  0.59770  0.26052  1.0000
  C   C3853     1.0  0.58722  0.64679  0.36415  1.0000
  H   H4602     1.0  0.60938  0.76303  0.36090  1.0000
  C   C3854     1.0  0.64175  0.57670  0.29143  1.0000
  H   H4603     1.0  0.64066  0.59208  0.27668  1.0000
  H   H4604     1.0  0.59593  0.75200  0.35633  1.0000
  H   H4605     1.0  0.61201  0.62458  0.28797  1.0000
  H   H4606     1.0  0.63213  0.87943  0.34125  1.0000
  C   C3855     1.0  0.68831  0.85597  0.32275  1.0000
  N   N254      1.0  0.62883  0.61115  0.28934  1.0000
  C   C3856     1.0  0.63280  0.61825  0.29592  1.0000
  H   H4607     1.0  0.63050  0.61117  0.27035  1.0000
  C   C3857     1.0  0.60634  0.72237  0.36480  1.0000
  H   H4608     1.0  0.62786  0.61748  0.30561  1.0000
  H   H4609     1.0  0.65103  0.69463  0.32952  1.0000
  C   C3858     1.0  0.61490  0.84073  0.37351  1.0000
  H   H4610     1.0  0.64914  0.71976  0.36885  1.0000
  H   H4611     1.0  0.67928  0.85338  0.32704  1.0000
  C   C3859     1.0  0.65125  0.80471  0.35739  1.0000
  H   H4612     1.0  0.49848  0.86459  0.36013  1.0000
  H   H4613     1.0  0.64631  0.57035  0.28544  1.0000
  C   C3860     1.0  0.56313  0.61402  0.26769  1.0000
  H   H4614     1.0  0.56563  0.79834  0.37471  1.0000
  C   C3861     1.0  0.59560  0.52975  0.31859  1.0000
  H   H4615     1.0  0.63357  0.84047  0.35274  1.0000
  H   H4616     1.0  0.69001  0.86076  0.32903  1.0000
  H   H4617     1.0  0.59354  0.56713  0.31577  1.0000
  C   C3862     1.0  0.60737  0.77003  0.35266  1.0000
  H   H4618     1.0  0.57670  0.55788  0.31771  1.0000
  H   H4619     1.0  0.54331  0.61376  0.33769  1.0000
  C   C3863     1.0  0.69387  0.83828  0.31398  1.0000
  S   S1036     1.0  0.55696  0.83453  0.37709  1.0000
  H   H4620     1.0  0.55423  0.59941  0.33795  1.0000
  C   C3864     1.0  0.63915  0.57225  0.30403  1.0000
  H   H4621     1.0  0.63114  0.57686  0.32160  1.0000
  H   H4622     1.0  0.60048  0.71580  0.36767  1.0000
  H   H4623     1.0  0.64169  0.56251  0.30782  1.0000
  H   H4624     1.0  0.52573  0.60637  0.32666  1.0000
  H   H4625     1.0  0.52180  0.61488  0.33818  1.0000
  C   C3865     1.0  0.58000  0.54824  0.31653  1.0000
  H   H4626     1.0  0.58615  0.53875  0.33839  1.0000
  S   S1037     1.0  0.65759  0.78327  0.37401  1.0000
  N   N255      1.0  0.53528  0.59808  0.34148  1.0000
  C   C3866     1.0  0.52420  0.60535  0.33673  1.0000
  H   H4627     1.0  0.55155  0.58414  0.35593  1.0000
  C   C3867     1.0  0.50002  0.84927  0.33877  1.0000
  N   N256      1.0  0.59257  0.54302  0.31876  1.0000
  C   C3868     1.0  0.72871  0.87247  0.37210  1.0000
  H   H4628     1.0  0.62837  0.67665  0.34825  1.0000
  H   H4629     1.0  0.62882  0.67856  0.36280  1.0000
  H   H4630     1.0  0.51614  0.60104  0.34107  1.0000
  C   C3869     1.0  0.53847  0.58605  0.33792  1.0000
  H   H4631     1.0  0.70752  0.82876  0.33112  1.0000
  C   C3870     1.0  0.67052  0.81441  0.35851  1.0000
  H   H4632     1.0  0.67804  0.81806  0.35892  1.0000
  H   H4633     1.0  0.56540  0.60465  0.27336  1.0000
  H   H4634     1.0  0.49919  0.69636  0.36682  1.0000
  S   S1038     1.0  0.66610  0.87308  0.36950  1.0000
  C   C3871     1.0  0.61233  0.66165  0.18264  1.0000
  H   H4635     1.0  0.51222  0.83445  0.37871  1.0000
  H   H4636     1.0  0.69193  0.84400  0.30506  1.0000
  N   N257      1.0  0.59460  0.77171  0.35143  1.0000
  H   H4637     1.0  0.71308  0.89153  0.38115  1.0000
  C   C3872     1.0  0.65951  0.79776  0.36479  1.0000
  C   C3873     1.0  0.51740  0.84024  0.34843  1.0000
  H   H4638     1.0  0.57968  0.54826  0.30704  1.0000
  C   C3874     1.0  0.60020  0.56257  0.30906  1.0000
  C   C3875     1.0  0.71475  0.85623  0.31863  1.0000
  H   H4639     1.0  0.59571  0.83812  0.36556  1.0000
  H   H4640     1.0  0.74002  0.86073  0.29631  1.0000
  H   H4641     1.0  0.61967  0.82240  0.35341  1.0000
  H   H4642     1.0  0.59881  0.75810  0.34045  1.0000
  Fe  Fe517     1.0  0.61532  0.78967  0.36810  1.0000
  C   C3876     1.0  0.64352  0.69589  0.35372  1.0000
  C   C3877     1.0  0.53306  0.84994  0.35866  1.0000
  C   C3878     1.0  0.49566  0.85765  0.34636  1.0000
  H   H4643     1.0  0.60180  0.54006  0.33331  1.0000
  H   H4644     1.0  0.68728  0.86281  0.31409  1.0000
  Fe  Fe518     1.0  0.55620  0.87745  0.37750  1.0000
  C   C3879     1.0  0.51508  0.85793  0.37247  1.0000
  H   H4645     1.0  0.52578  0.83336  0.34884  1.0000
  C   C3880     1.0  0.60116  0.55001  0.30942  1.0000
  H   H4646     1.0  0.53628  0.70547  0.36409  1.0000
  H   H4647     1.0  0.59955  0.85279  0.35871  1.0000
  S   S1039     1.0  0.65343  0.85083  0.36940  1.0000
  H   H4648     1.0  0.54734  0.58037  0.34003  1.0000
  H   H4649     1.0  0.66064  0.67756  0.34407  1.0000
  H   H4650     1.0  0.62183  0.69130  0.35213  1.0000
  H   H4651     1.0  0.59891  0.77871  0.33190  1.0000
  H   H4652     1.0  0.55704  0.65011  0.36688  1.0000
  C   C3881     1.0  0.51331  0.84875  0.35622  1.0000
  C   C3882     1.0  0.62399  0.84374  0.35125  1.0000
  C   C3883     1.0  0.50257  0.68629  0.36761  1.0000
  Fe  Fe519     1.0  0.55799  0.85419  0.36969  1.0000
  H   H4653     1.0  0.54530  0.61205  0.25797  1.0000
  C   C3884     1.0  0.61510  0.73705  0.36979  1.0000
  H   H4654     1.0  0.58512  0.62916  0.34385  1.0000
  C   C3885     1.0  0.57074  0.82586  0.37044  1.0000
  H   H4655     1.0  0.53125  0.58068  0.34268  1.0000
  N   N258      1.0  0.61511  0.83812  0.36166  1.0000
  H   H4656     1.0  0.70259  0.84168  0.33823  1.0000
  Fe  Fe520     1.0  0.63228  0.49932  0.31989  1.0000
  H   H4657     1.0  0.55371  0.61819  0.27219  1.0000
  C   C3886     1.0  0.60273  0.84282  0.35881  1.0000
  H   H4658     1.0  0.61412  0.66558  0.19910  1.0000
  H   H4659     1.0  0.72144  0.87713  0.36684  1.0000
  H   H4660     1.0  0.68513  0.83547  0.31938  1.0000
  H   H4661     1.0  0.62160  0.85389  0.34973  1.0000
  H   H4662     1.0  0.50268  0.89316  0.34459  1.0000
  H   H4663     1.0  0.51892  0.69880  0.36231  1.0000
  H   H4664     1.0  0.57892  0.79420  0.35565  1.0000
  H   H4665     1.0  0.62796  0.85298  0.36684  1.0000
  H   H4666     1.0  0.72878  0.89135  0.38042  1.0000
  H   H4667     1.0  0.57523  0.90958  0.37330  1.0000
  N   N259      1.0  0.52051  0.84830  0.36516  1.0000
  H   H4668     1.0  0.61148  0.81989  0.36880  1.0000
  C   C3887     1.0  0.52253  0.69449  0.37046  1.0000
  H   H4669     1.0  0.51899  0.66464  0.37207  1.0000
  H   H4670     1.0  0.67595  0.79706  0.37048  1.0000
  H   H4671     1.0  0.59138  0.75662  0.37436  1.0000
  H   H4672     1.0  0.73173  0.86274  0.37118  1.0000
  H   H4673     1.0  0.52066  0.85729  0.37915  1.0000
  C   C3888     1.0  0.57105  0.78915  0.37441  1.0000
  S   S1040     1.0  0.61945  0.49317  0.31249  1.0000
  N   N260      1.0  0.50733  0.68033  0.37894  1.0000
  C   C3889     1.0  0.53252  0.69852  0.37137  1.0000
  H   H4674     1.0  0.51428  0.83420  0.33374  1.0000
  C   C3890     1.0  0.53122  0.59314  0.38043  1.0000
  C   C3891     1.0  0.51789  0.68488  0.37955  1.0000
  S   S1041     1.0  0.51953  0.63730  0.37441  1.0000
  C   C3892     1.0  0.63485  0.70010  0.36379  1.0000
  C   C3893     1.0  0.53329  0.62625  0.37429  1.0000
  H   H4675     1.0  0.61174  0.89864  0.37939  1.0000
  C   C3894     1.0  0.52186  0.60077  0.37479  1.0000
  C   C3895     1.0  0.55529  0.60850  0.37462  1.0000
  H   H4676     1.0  0.62618  0.69729  0.36751  1.0000
  Fe  Fe521     1.0  0.63870  0.77959  0.37704  1.0000
  C   C3896     1.0  0.58113  0.62729  0.37271  1.0000
  H   H4677     1.0  0.57592  0.62062  0.37329  1.0000
  C   C3897     1.0  0.65641  0.70906  0.35496  1.0000
  S   S1042     1.0  0.56893  0.59732  0.37533  1.0000
  H   H4678     1.0  0.59995  0.65033  0.37259  1.0000
  C   C3898     1.0  0.59458  0.64392  0.37272  1.0000
  H   H4679     1.0  0.66472  0.71265  0.35150  1.0000
  Fe  Fe522     1.0  0.49472  0.65603  0.34195  1.0000
  H   H4680     1.0  0.59380  0.80226  0.37841  1.0000
  C   C3899     1.0  0.51094  0.66692  0.37948  1.0000
  H   H4681     1.0  0.50339  0.66323  0.37851  1.0000
  H   H4682     1.0  0.50570  0.85711  0.37788  1.0000
  C   C3900     1.0  0.63702  0.70849  0.36921  1.0000
  H   H4683     1.0  0.49467  0.68268  0.36737  1.0000
  Fe  Fe523     1.0  0.62126  0.76259  0.37987  1.0000
  H   H4684     1.0  0.52670  0.83568  0.38081  1.0000
  S   S1043     1.0  0.62784  0.48774  0.33877  1.0000
  S   S1044     1.0  0.61658  0.74413  0.38104  1.0000
  Fe  Fe524     1.0  0.74364  0.90848  0.35516  1.0000
  H   H4685     1.0  0.49513  0.84975  0.33184  1.0000
  H   H4686     1.0  0.63022  0.71172  0.37677  1.0000
  C   C3901     1.0  0.59535  0.63276  0.38113  1.0000
  C   C3902     1.0  0.58859  0.62448  0.38116  1.0000
  C   C3903     1.0  0.59151  0.66295  0.18121  1.0000
  Fe  Fe525     1.0  0.61442  0.78263  0.39542  1.0000
  H   H4687     1.0  0.69785  0.94078  0.52066  1.0000
  S   S1045     1.0  0.60390  0.78811  0.41343  1.0000
  H   H4688     1.0  0.51344  0.66150  0.38824  1.0000
  C   C3904     1.0  0.64358  0.78834  0.40835  1.0000
  Fe  Fe526     1.0  0.60755  0.85421  0.46548  1.0000
  S   S1046     1.0  0.60214  0.87159  0.45200  1.0000
  S   S1047     1.0  0.60669  0.85382  0.48555  1.0000
  Fe  Fe527     1.0  0.61310  0.83842  0.44586  1.0000
  S   S1048     1.0  0.60857  0.85481  0.43112  1.0000
  S   S1049     1.0  0.62020  0.81976  0.44065  1.0000
  Fe  Fe528     1.0  0.61867  0.86368  0.43906  1.0000
  S   S1050     1.0  0.63139  0.87544  0.42664  1.0000
  Fe  Fe529     1.0  0.59255  0.86092  0.44545  1.0000
  S   S1051     1.0  0.57346  0.86863  0.44191  1.0000
  S   S1052     1.0  0.62474  0.84682  0.45272  1.0000
  S   S1053     1.0  0.59637  0.84401  0.46007  1.0000
  S   S1054     1.0  0.67191  0.84232  0.39427  1.0000
  H   H4689     1.0  0.61024  0.92148  0.50535  1.0000
  H   H4690     1.0  0.69858  0.96900  0.56881  1.0000
  H   H4691     1.0  0.49962  0.67764  0.39837  1.0000
  S   S1055     1.0  0.55291  0.88658  0.39322  1.0000
  H   H4692     1.0  0.65149  0.94219  0.56064  1.0000
  H   H4693     1.0  0.60037  0.89528  0.51427  1.0000
  S   S1056     1.0  0.70733  0.92742  0.56279  1.0000
  H   H4694     1.0  0.57787  0.76139  0.39322  1.0000
  H   H4695     1.0  0.70496  0.92339  0.53674  1.0000
  C   C3905     1.0  0.64392  0.79919  0.42332  1.0000
  C   C3906     1.0  0.73481  0.86740  0.39124  1.0000
  S   S1057     1.0  0.71793  0.89190  0.56686  1.0000
  Fe  Fe530     1.0  0.63593  0.97271  0.56176  1.0000
  S   S1058     1.0  0.64027  0.96460  0.54515  1.0000
  H   H4696     1.0  0.56492  0.78218  0.39364  1.0000
  H   H4697     1.0  0.52078  0.67242  0.39685  1.0000
  H   H4698     1.0  0.62099  0.89514  0.40925  1.0000
  Fe  Fe531     1.0  0.62217  0.90961  0.54051  1.0000
  S   S1059     1.0  0.61517  0.89268  0.54281  1.0000
  S   S1060     1.0  0.60951  0.92711  0.54470  1.0000
  Fe  Fe532     1.0  0.64889  0.89661  0.53435  1.0000
  S   S1061     1.0  0.64417  0.87863  0.53612  1.0000
  S   S1062     1.0  0.66831  0.89895  0.53001  1.0000
  Fe  Fe533     1.0  0.62946  0.88955  0.52568  1.0000
  S   S1063     1.0  0.62776  0.88740  0.50718  1.0000
  Fe  Fe534     1.0  0.63048  0.88346  0.55289  1.0000
  S   S1064     1.0  0.62985  0.87073  0.57134  1.0000
  S   S1065     1.0  0.63534  0.90737  0.52283  1.0000
  S   S1066     1.0  0.63630  0.90063  0.55175  1.0000
  C   C3907     1.0  0.63158  0.95418  0.54536  1.0000
  C   C3908     1.0  0.62007  0.95390  0.55321  1.0000
  C   C3909     1.0  0.61320  0.94572  0.55285  1.0000
  C   C3910     1.0  0.61804  0.93744  0.54504  1.0000
  C   C3911     1.0  0.62969  0.93750  0.53746  1.0000
  C   C3912     1.0  0.63628  0.94604  0.53740  1.0000
  H   H4699     1.0  0.61630  0.96027  0.55926  1.0000
  H   H4700     1.0  0.60413  0.94578  0.55860  1.0000
  H   H4701     1.0  0.63347  0.93122  0.53134  1.0000
  H   H4702     1.0  0.64505  0.94636  0.53111  1.0000
  C   C3913     1.0  0.68458  0.98475  0.57300  1.0000
  H   H4703     1.0  0.63048  0.77475  0.43694  1.0000
  H   H4704     1.0  0.66427  0.84268  0.53661  1.0000
  H   H4705     1.0  0.67694  0.85021  0.54584  1.0000
  H   H4706     1.0  0.60112  0.83382  0.40395  1.0000
  C   C3914     1.0  0.68760  0.94685  0.56397  1.0000
  H   H4707     1.0  0.67199  0.96206  0.56507  1.0000
  H   H4708     1.0  0.68907  0.94804  0.55417  1.0000
  C   C3915     1.0  0.68375  0.88182  0.56448  1.0000
  C   C3916     1.0  0.67287  0.87938  0.56354  1.0000
  C   C3917     1.0  0.66828  0.88446  0.55288  1.0000
  C   C3918     1.0  0.67454  0.89203  0.54304  1.0000
  C   C3919     1.0  0.68548  0.89442  0.54388  1.0000
  C   C3920     1.0  0.69006  0.88935  0.55461  1.0000
  H   H4709     1.0  0.66223  0.91180  0.55296  1.0000
  H   H4710     1.0  0.65989  0.88248  0.55230  1.0000
  H   H4711     1.0  0.69031  0.90033  0.53632  1.0000
  H   H4712     1.0  0.69848  0.89126  0.55523  1.0000
  C   C3921     1.0  0.60669  0.91736  0.51508  1.0000
  C   C3922     1.0  0.56877  0.87315  0.42781  1.0000
  C   C3923     1.0  0.55704  0.88053  0.42772  1.0000
  C   C3924     1.0  0.55243  0.88433  0.41707  1.0000
  C   C3925     1.0  0.55929  0.88054  0.40635  1.0000
  C   C3926     1.0  0.57107  0.87298  0.40632  1.0000
  C   C3927     1.0  0.57587  0.86935  0.41706  1.0000
  H   H4713     1.0  0.55148  0.88349  0.43595  1.0000
  H   H4714     1.0  0.54342  0.89027  0.41715  1.0000
  H   H4715     1.0  0.57655  0.87020  0.39799  1.0000
  H   H4716     1.0  0.58494  0.86360  0.41702  1.0000
  C   C3928     1.0  0.64331  0.86612  0.41828  1.0000
  C   C3929     1.0  0.65183  0.87136  0.40866  1.0000
  C   C3930     1.0  0.66095  0.86395  0.40155  1.0000
  C   C3931     1.0  0.66164  0.85130  0.40414  1.0000
  C   C3932     1.0  0.65345  0.84602  0.41407  1.0000
  C   C3933     1.0  0.64414  0.85345  0.42099  1.0000
  H   H4717     1.0  0.65126  0.88115  0.40659  1.0000
  H   H4718     1.0  0.66752  0.86802  0.39413  1.0000
  H   H4719     1.0  0.65404  0.83625  0.41626  1.0000
  H   H4720     1.0  0.63759  0.84934  0.42835  1.0000
  C   C3934     1.0  0.61281  0.86310  0.49139  1.0000
  C   C3935     1.0  0.61172  0.86111  0.50411  1.0000
  C   C3936     1.0  0.61630  0.86834  0.50914  1.0000
  C   C3937     1.0  0.62201  0.87772  0.50149  1.0000
  C   C3938     1.0  0.62311  0.87971  0.48878  1.0000
  C   C3939     1.0  0.61856  0.87246  0.48376  1.0000
  H   H4721     1.0  0.60729  0.85390  0.51012  1.0000
  H   H4722     1.0  0.61535  0.86666  0.51893  1.0000
  H   H4723     1.0  0.62745  0.88696  0.48275  1.0000
  H   H4724     1.0  0.61947  0.87415  0.47397  1.0000
  C   C3940     1.0  0.60761  0.79812  0.42040  1.0000
  C   C3941     1.0  0.60379  0.79681  0.43311  1.0000
  C   C3942     1.0  0.60684  0.80416  0.43919  1.0000
  C   C3943     1.0  0.61347  0.81322  0.43262  1.0000
  C   C3944     1.0  0.61679  0.81499  0.41981  1.0000
  C   C3945     1.0  0.61391  0.80743  0.41370  1.0000
  H   H4725     1.0  0.59889  0.78968  0.43837  1.0000
  H   H4726     1.0  0.60457  0.80241  0.44907  1.0000
  H   H4727     1.0  0.62220  0.82172  0.41469  1.0000
  H   H4728     1.0  0.61678  0.80861  0.40389  1.0000
  H   H4729     1.0  0.63536  0.77252  0.41552  1.0000
  C   C3946     1.0  0.67892  0.94324  0.53017  1.0000
  H   H4730     1.0  0.67577  0.95088  0.52317  1.0000
  C   C3947     1.0  0.54848  0.61244  0.38530  1.0000
  H   H4731     1.0  0.69614  0.97270  0.54759  1.0000
  H   H4732     1.0  0.68378  0.86594  0.49178  1.0000
  C   C3948     1.0  0.66494  0.80106  0.39566  1.0000
  N   N261      1.0  0.57156  0.83224  0.43848  1.0000
  C   C3949     1.0  0.57099  0.81963  0.44580  1.0000
  C   C3950     1.0  0.58293  0.83525  0.43922  1.0000
  C   C3951     1.0  0.56090  0.84078  0.44432  1.0000
  C   C3952     1.0  0.57182  0.83312  0.42548  1.0000
  C   C3953     1.0  0.57933  0.82375  0.41934  1.0000
  C   C3954     1.0  0.56535  0.84359  0.41833  1.0000
  C   C3955     1.0  0.57994  0.82458  0.40699  1.0000
  C   C3956     1.0  0.56615  0.84440  0.40594  1.0000
  C   C3957     1.0  0.57341  0.83492  0.40029  1.0000
  H   H4733     1.0  0.57973  0.81288  0.44373  1.0000
  H   H4734     1.0  0.56940  0.81914  0.45579  1.0000
  H   H4735     1.0  0.56347  0.81635  0.44421  1.0000
  H   H4736     1.0  0.58340  0.83427  0.44886  1.0000
  H   H4737     1.0  0.58348  0.84484  0.43438  1.0000
  H   H4738     1.0  0.59129  0.82918  0.43502  1.0000
  H   H4739     1.0  0.55207  0.83948  0.44332  1.0000
  H   H4740     1.0  0.56051  0.83951  0.45425  1.0000
  H   H4741     1.0  0.56147  0.85054  0.44047  1.0000
  H   H4742     1.0  0.58493  0.81574  0.42394  1.0000
  H   H4743     1.0  0.55973  0.85138  0.42202  1.0000
  H   H4744     1.0  0.58563  0.81718  0.40260  1.0000
  H   H4745     1.0  0.56114  0.85249  0.40067  1.0000
  H   H4746     1.0  0.57401  0.83564  0.39069  1.0000
  H   H4747     1.0  0.53228  0.62422  0.39347  1.0000
  C   C3958     1.0  0.61334  0.87874  0.40152  1.0000
  C   C3959     1.0  0.60005  0.88850  0.41753  1.0000
  S   S1067     1.0  0.63742  0.95935  0.57951  1.0000
  C   C3960     1.0  0.66533  0.85699  0.52027  1.0000
  H   H4748     1.0  0.69261  0.85441  0.38685  1.0000
  H   H4749     1.0  0.66989  0.80747  0.38823  1.0000
  H   H4750     1.0  0.53845  0.67949  0.39788  1.0000
  C   C3961     1.0  0.69059  0.97899  0.55338  1.0000
  H   H4751     1.0  0.65153  0.93270  0.57545  1.0000
  H   H4752     1.0  0.61901  0.87977  0.39205  1.0000
  H   H4753     1.0  0.61940  0.91993  0.57122  1.0000
  C   C3962     1.0  0.57667  0.90291  0.39209  1.0000
  C   C3963     1.0  0.59120  0.89632  0.50040  1.0000
  C   C3964     1.0  0.58780  0.93220  0.51732  1.0000
  C   C3965     1.0  0.58348  0.90358  0.49266  1.0000
  H   H4754     1.0  0.57374  0.81384  0.38756  1.0000
  C   C3966     1.0  0.70872  0.86746  0.40414  1.0000
  Fe  Fe535     1.0  0.70256  0.88476  0.58096  1.0000
  S   S1068     1.0  0.60480  0.77774  0.38354  1.0000
  H   H4755     1.0  0.64429  0.82301  0.40911  1.0000
  H   H4756     1.0  0.65970  0.81550  0.41116  1.0000
  H   H4757     1.0  0.65170  0.92620  0.55077  1.0000
  N   N262      1.0  0.65238  0.80734  0.40078  1.0000
  H   H4758     1.0  0.61986  0.87404  0.40770  1.0000
  H   H4759     1.0  0.59086  0.93782  0.50811  1.0000
  C   C3967     1.0  0.57788  0.76836  0.38484  1.0000
  C   C3968     1.0  0.60697  0.83787  0.39572  1.0000
  H   H4760     1.0  0.69072  0.91594  0.55482  1.0000
  N   N263      1.0  0.59315  0.91893  0.51785  1.0000
  H   H4761     1.0  0.55168  0.60859  0.39375  1.0000
  H   H4762     1.0  0.65182  0.88769  0.51004  1.0000
  C   C3969     1.0  0.57871  0.91589  0.49311  1.0000
  H   H4763     1.0  0.60682  0.88466  0.42353  1.0000
  C   C3970     1.0  0.72107  0.88666  0.38546  1.0000
  H   H4764     1.0  0.73712  0.85733  0.39182  1.0000
  H   H4765     1.0  0.67571  0.90722  0.56771  1.0000
  C   C3971     1.0  0.58168  0.92101  0.50125  1.0000
  C   C3972     1.0  0.65760  0.93564  0.56652  1.0000
  H   H4766     1.0  0.57896  0.91326  0.53302  1.0000
  C   C3973     1.0  0.69131  0.93755  0.52873  1.0000
  C   C3974     1.0  0.61486  0.89875  0.40258  1.0000
  H   H4767     1.0  0.58126  0.89964  0.48628  1.0000
  H   H4768     1.0  0.66482  0.79333  0.39176  1.0000
  H   H4769     1.0  0.65780  0.89328  0.49425  1.0000
  H   H4770     1.0  0.57758  0.93408  0.51974  1.0000
  C   C3975     1.0  0.63788  0.77992  0.41769  1.0000
  C   C3976     1.0  0.59423  0.90132  0.50857  1.0000
  C   C3977     1.0  0.70744  0.86304  0.38537  1.0000
  C   C3978     1.0  0.60728  0.83556  0.38443  1.0000
  H   H4771     1.0  0.58914  0.61579  0.38772  1.0000
  C   C3979     1.0  0.71359  0.86787  0.39147  1.0000
  C   C3980     1.0  0.69529  0.92771  0.53773  1.0000
  C   C3981     1.0  0.49711  0.68267  0.38948  1.0000
  C   C3982     1.0  0.68693  0.92353  0.54821  1.0000
  C   C3983     1.0  0.69527  0.93732  0.57050  1.0000
  C   C3984     1.0  0.53751  0.62127  0.38515  1.0000
  N   N264      1.0  0.66510  0.92509  0.56105  1.0000
  H   H4772     1.0  0.59327  0.90233  0.53197  1.0000
  C   C3985     1.0  0.66043  0.88767  0.50294  1.0000
  H   H4773     1.0  0.60150  0.82970  0.38428  1.0000
  H   H4774     1.0  0.68520  0.86869  0.53482  1.0000
  C   C3986     1.0  0.67424  0.92926  0.55007  1.0000
  C   C3987     1.0  0.66977  0.86779  0.51377  1.0000
  C   C3988     1.0  0.67050  0.93915  0.54064  1.0000
  H   H4775     1.0  0.64576  0.80650  0.42620  1.0000
  C   C3989     1.0  0.65884  0.86977  0.49744  1.0000
  H   H4776     1.0  0.68437  0.88028  0.49448  1.0000
  C   C3990     1.0  0.65688  0.91952  0.55744  1.0000
  H   H4777     1.0  0.64991  0.86935  0.50406  1.0000
  C   C3991     1.0  0.67791  0.95475  0.57014  1.0000
  S   S1069     1.0  0.64806  0.98408  0.56364  1.0000
  H   H4778     1.0  0.66101  0.94384  0.54129  1.0000
  C   C3992     1.0  0.67978  0.86532  0.53068  1.0000
  C   C3993     1.0  0.67838  0.87536  0.49244  1.0000
  N   N265      1.0  0.60620  0.89071  0.40437  1.0000
  H   H4779     1.0  0.73292  0.86895  0.40065  1.0000
  H   H4780     1.0  0.59440  0.89715  0.42024  1.0000
  H   H4781     1.0  0.66604  0.89262  0.50548  1.0000
  H   H4782     1.0  0.67652  0.88023  0.48325  1.0000
  C   C3994     1.0  0.58960  0.91384  0.50924  1.0000
  N   N266      1.0  0.66686  0.87494  0.50187  1.0000
  H   H4783     1.0  0.63570  0.81661  0.39453  1.0000
  H   H4784     1.0  0.59497  0.88675  0.49997  1.0000
  H   H4785     1.0  0.59177  0.91582  0.53730  1.0000
  C   C3995     1.0  0.62170  0.85066  0.38596  1.0000
  H   H4786     1.0  0.65729  0.82495  0.39685  1.0000
  C   C3996     1.0  0.58911  0.91231  0.53057  1.0000
  H   H4787     1.0  0.57271  0.92150  0.48703  1.0000
  C   C3997     1.0  0.69849  0.86235  0.41034  1.0000
  C   C3998     1.0  0.57064  0.78007  0.38509  1.0000
  H   H4788     1.0  0.61144  0.90756  0.51670  1.0000
  C   C3999     1.0  0.67512  0.85493  0.53690  1.0000
  H   H4789     1.0  0.66783  0.87370  0.57111  1.0000
  H   H4790     1.0  0.61402  0.84703  0.40528  1.0000
  C   C4000     1.0  0.61421  0.84535  0.39649  1.0000
  H   H4791     1.0  0.59074  0.93563  0.52394  1.0000
  H   H4792     1.0  0.57771  0.93061  0.50106  1.0000
  H   H4793     1.0  0.71271  0.87122  0.40931  1.0000
  C   C4001     1.0  0.60199  0.89994  0.38331  1.0000
  H   H4794     1.0  0.65645  0.87556  0.48870  1.0000
  C   C4002     1.0  0.66798  0.85073  0.53167  1.0000
  H   H4795     1.0  0.65005  0.91588  0.56543  1.0000
  H   H4796     1.0  0.59242  0.96474  0.57965  1.0000
  H   H4797     1.0  0.60123  0.63052  0.38760  1.0000
  S   S1070     1.0  0.61840  0.98484  0.56944  1.0000
  S   S1071     1.0  0.68908  0.87549  0.57812  1.0000
  H   H4798     1.0  0.66380  0.91327  0.57912  1.0000
  H   H4799     1.0  0.60984  0.90816  0.40370  1.0000
  C   C4003     1.0  0.67720  0.87165  0.51928  1.0000
  H   H4800     1.0  0.65959  0.85332  0.51688  1.0000
  C   C4004     1.0  0.64530  0.81212  0.39094  1.0000
  H   H4801     1.0  0.60972  0.92169  0.52091  1.0000
  C   C4005     1.0  0.64648  0.79844  0.41084  1.0000
  H   H4802     1.0  0.66333  0.86042  0.49577  1.0000
  H   H4803     1.0  0.58022  0.89547  0.40978  1.0000
  H   H4804     1.0  0.68083  0.87983  0.51500  1.0000
  C   C4006     1.0  0.59752  0.89637  0.39609  1.0000
  C   C4007     1.0  0.63517  0.78111  0.42977  1.0000
  C   C4008     1.0  0.69721  0.85798  0.39167  1.0000
  H   H4805     1.0  0.64566  0.78685  0.39917  1.0000
  H   H4806     1.0  0.60716  0.87254  0.40244  1.0000
  H   H4807     1.0  0.62116  0.89948  0.39342  1.0000
  C   C4009     1.0  0.65341  0.81812  0.40471  1.0000
  H   H4808     1.0  0.56682  0.90392  0.39544  1.0000
  H   H4809     1.0  0.62724  0.85662  0.38650  1.0000
  H   H4810     1.0  0.53052  0.59226  0.39010  1.0000
  H   H4811     1.0  0.63597  0.79172  0.44198  1.0000
  C   C4010     1.0  0.58455  0.89804  0.40027  1.0000
  S   S1072     1.0  0.63019  0.76642  0.39323  1.0000
  C   C4011     1.0  0.52380  0.67973  0.38957  1.0000
  H   H4812     1.0  0.74322  0.87102  0.38622  1.0000
  C   C4012     1.0  0.63831  0.79064  0.43259  1.0000
  H   H4813     1.0  0.66356  0.94084  0.56815  1.0000
  H   H4814     1.0  0.59412  0.88172  0.41984  1.0000
  H   H4815     1.0  0.67730  0.91958  0.57353  1.0000
  H   H4816     1.0  0.67047  0.79717  0.40283  1.0000
  H   H4817     1.0  0.64950  0.81898  0.38336  1.0000
  H   H4818     1.0  0.64495  0.80483  0.38660  1.0000
  H   H4819     1.0  0.69488  0.86217  0.42000  1.0000
  Fe  Fe536     1.0  0.71087  0.90869  0.57488  1.0000
  N   N267      1.0  0.72435  0.87346  0.38511  1.0000
  H   H4820     1.0  0.62798  0.93463  0.57822  1.0000
  H   H4821     1.0  0.71862  0.88822  0.39490  1.0000
  C   C4013     1.0  0.69200  0.97695  0.56532  1.0000
  C   C4014     1.0  0.69278  0.85758  0.40412  1.0000
  C   C4015     1.0  0.67076  0.91590  0.57074  1.0000
  H   H4822     1.0  0.57413  0.95804  0.57885  1.0000
  H   H4823     1.0  0.68484  0.85365  0.40892  1.0000
  C   C4016     1.0  0.53386  0.68377  0.39032  1.0000
  H   H4824     1.0  0.60248  0.72655  0.38266  1.0000
  C   C4017     1.0  0.58225  0.95128  0.58085  1.0000
  C   C4018     1.0  0.61814  0.91521  0.58106  1.0000
  C   C4019     1.0  0.53823  0.69312  0.38122  1.0000
  H   H4825     1.0  0.54630  0.69595  0.38156  1.0000
  N   N268      1.0  0.65220  0.90832  0.66766  1.0000
  S   S1073     1.0  0.70046  0.89492  0.62056  1.0000
  H   H4826     1.0  0.72553  0.89674  0.62113  1.0000
  Fe  Fe537     1.0  0.72873  0.88475  0.58172  1.0000
  C   C4020     1.0  0.65592  0.87350  0.67375  1.0000
  S   S1074     1.0  0.60566  0.96515  0.60136  1.0000
  H   H4827     1.0  0.70007  0.86942  0.62455  1.0000
  Fe  Fe538     1.0  0.63879  0.87955  0.64293  1.0000
  S   S1075     1.0  0.62097  0.87344  0.64765  1.0000
  S   S1076     1.0  0.65715  0.86659  0.64105  1.0000
  Fe  Fe539     1.0  0.62644  0.90604  0.64225  1.0000
  S   S1077     1.0  0.60747  0.90249  0.64688  1.0000
  S   S1078     1.0  0.63141  0.92399  0.63990  1.0000
  Fe  Fe540     1.0  0.61469  0.88629  0.66064  1.0000
  S   S1079     1.0  0.60467  0.88102  0.68019  1.0000
  Fe  Fe541     1.0  0.61548  0.89011  0.63341  1.0000
  S   S1080     1.0  0.60463  0.89022  0.61990  1.0000
  S   S1081     1.0  0.63301  0.89088  0.65703  1.0000
  S   S1082     1.0  0.63388  0.89516  0.62761  1.0000
  Fe  Fe542     1.0  0.59822  0.87627  0.75862  1.0000
  S   S1083     1.0  0.58843  0.88943  0.74457  1.0000
  S   S1084     1.0  0.59927  0.85633  0.76051  1.0000
  Fe  Fe543     1.0  0.60515  0.89614  0.76592  1.0000
  S   S1085     1.0  0.59629  0.91115  0.75223  1.0000
  C   C4021     1.0  0.62842  0.85268  0.60999  1.0000
  Fe  Fe544     1.0  0.58092  0.90108  0.75847  1.0000
  C   C4022     1.0  0.64835  0.87124  0.68532  1.0000
  Fe  Fe545     1.0  0.60461  0.89829  0.73926  1.0000
  S   S1086     1.0  0.61271  0.90546  0.71933  1.0000
  C   C4023     1.0  0.61024  0.83416  0.77238  1.0000
  S   S1087     1.0  0.61506  0.88416  0.75239  1.0000
  H   H4828     1.0  0.65294  0.90650  0.64952  1.0000
  H   H4829     1.0  0.62355  0.93543  0.59424  1.0000
  H   H4830     1.0  0.69917  0.92844  0.58827  1.0000
  H   H4831     1.0  0.66343  0.88647  0.65906  1.0000
  H   H4832     1.0  0.66780  0.90505  0.65275  1.0000
  C   C4024     1.0  0.55523  0.89154  0.77770  1.0000
  H   H4833     1.0  0.68405  0.85233  0.59528  1.0000
  C   C4025     1.0  0.62306  0.87821  0.58364  1.0000
  H   H4834     1.0  0.63986  0.89974  0.69101  1.0000
  C   C4026     1.0  0.58454  0.92194  0.68563  1.0000
  H   H4835     1.0  0.58085  0.93172  0.69971  1.0000
  C   C4027     1.0  0.60734  0.88768  0.69093  1.0000
  C   C4028     1.0  0.60417  0.88252  0.70343  1.0000
  C   C4029     1.0  0.60588  0.88784  0.71220  1.0000
  C   C4030     1.0  0.61055  0.89851  0.70853  1.0000
  C   C4031     1.0  0.61354  0.90379  0.69603  1.0000
  C   C4032     1.0  0.61209  0.89832  0.68724  1.0000
  H   H4836     1.0  0.60050  0.87430  0.70634  1.0000
  H   H4837     1.0  0.60373  0.88356  0.72177  1.0000
  H   H4838     1.0  0.61692  0.91216  0.69317  1.0000
  H   H4839     1.0  0.61434  0.90248  0.67763  1.0000
  C   C4033     1.0  0.61203  0.88614  0.60573  1.0000
  C   C4034     1.0  0.62482  0.88388  0.60174  1.0000
  H   H4840     1.0  0.64305  0.83685  0.77098  1.0000
  H   H4841     1.0  0.64676  0.86208  0.68953  1.0000
  C   C4035     1.0  0.61028  0.88110  0.58735  1.0000
  C   C4036     1.0  0.60479  0.88509  0.59832  1.0000
  H   H4842     1.0  0.66506  0.84985  0.62618  1.0000
  H   H4843     1.0  0.57436  0.93589  0.58285  1.0000
  C   C4037     1.0  0.65953  0.91262  0.67364  1.0000
  H   H4844     1.0  0.59490  0.88690  0.60132  1.0000
  C   C4038     1.0  0.61256  0.95373  0.61225  1.0000
  C   C4039     1.0  0.62428  0.95374  0.61335  1.0000
  C   C4040     1.0  0.62993  0.94468  0.62200  1.0000
  C   C4041     1.0  0.62404  0.93533  0.62931  1.0000
  C   C4042     1.0  0.61240  0.93514  0.62807  1.0000
  C   C4043     1.0  0.60657  0.94446  0.61965  1.0000
  H   H4845     1.0  0.62906  0.96074  0.60763  1.0000
  H   H4846     1.0  0.63897  0.94479  0.62286  1.0000
  H   H4847     1.0  0.60779  0.92796  0.63375  1.0000
  H   H4848     1.0  0.59752  0.94439  0.61877  1.0000
  H   H4849     1.0  0.66019  0.86607  0.66894  1.0000
  C   C4044     1.0  0.59255  0.95505  0.58126  1.0000
  C   C4045     1.0  0.68839  0.88711  0.62620  1.0000
  C   C4046     1.0  0.67632  0.89355  0.62951  1.0000
  C   C4047     1.0  0.66666  0.88729  0.63387  1.0000
  C   C4048     1.0  0.66910  0.87456  0.63527  1.0000
  C   C4049     1.0  0.68117  0.86812  0.63196  1.0000
  C   C4050     1.0  0.69079  0.87441  0.62725  1.0000
  H   H4850     1.0  0.67443  0.90340  0.62844  1.0000
  H   H4851     1.0  0.65732  0.89231  0.63621  1.0000
  H   H4852     1.0  0.68308  0.85828  0.63301  1.0000
  C   C4051     1.0  0.64272  0.88079  0.69142  1.0000
  H   H4853     1.0  0.67028  0.83746  0.61838  1.0000
  H   H4854     1.0  0.58912  0.92864  0.67882  1.0000
  C   C4052     1.0  0.63969  0.91635  0.66874  1.0000
  H   H4855     1.0  0.65532  0.91230  0.68350  1.0000
  H   H4856     1.0  0.66896  0.90678  0.67306  1.0000
  H   H4857     1.0  0.68252  0.94281  0.59905  1.0000
  C   C4053     1.0  0.65798  0.90987  0.65442  1.0000
  H   H4858     1.0  0.65780  0.91968  0.64986  1.0000
  H   H4859     1.0  0.58779  0.90998  0.67325  1.0000
  C   C4054     1.0  0.67051  0.84719  0.61750  1.0000
  N   N269      1.0  0.61447  0.92419  0.58909  1.0000
  H   H4860     1.0  0.66037  0.92226  0.66929  1.0000
  C   C4055     1.0  0.65145  0.89546  0.67378  1.0000
  C   C4056     1.0  0.65763  0.88538  0.66809  1.0000
  H   H4861     1.0  0.60996  0.83075  0.76469  1.0000
  H   H4862     1.0  0.61071  0.95000  0.58390  1.0000
  H   H4863     1.0  0.64023  0.87761  0.58791  1.0000
  H   H4864     1.0  0.60344  0.91321  0.60366  1.0000
  H   H4865     1.0  0.63538  0.91755  0.67821  1.0000
  H   H4866     1.0  0.63048  0.88470  0.60737  1.0000
  S   S1088     1.0  0.66461  0.96364  0.59056  1.0000
  C   C4057     1.0  0.64439  0.89269  0.68584  1.0000
  S   S1089     1.0  0.63186  0.98324  0.59170  1.0000
  H   H4867     1.0  0.61128  0.90948  0.58287  1.0000
  N   N270      1.0  0.66580  0.85518  0.60670  1.0000
  H   H4868     1.0  0.61911  0.91029  0.60474  1.0000
  N   N271      1.0  0.73538  0.87849  0.62786  1.0000
  C   C4058     1.0  0.60309  0.94640  0.58378  1.0000
  C   C4059     1.0  0.73995  0.88307  0.63617  1.0000
  H   H4869     1.0  0.67507  0.84182  0.59556  1.0000
  C   C4060     1.0  0.58240  0.93882  0.58310  1.0000
  C   C4061     1.0  0.64947  0.85069  0.59855  1.0000
  H   H4870     1.0  0.64568  0.85982  0.62518  1.0000
  C   C4062     1.0  0.56108  0.85713  0.77515  1.0000
  C   C4063     1.0  0.55106  0.86292  0.76965  1.0000
  C   C4064     1.0  0.72388  0.87441  0.63487  1.0000
  H   H4871     1.0  0.63570  0.85927  0.76476  1.0000
  H   H4872     1.0  0.63974  0.92575  0.66299  1.0000
  C   C4065     1.0  0.66593  0.86808  0.60615  1.0000
  H   H4873     1.0  0.63679  0.87903  0.70042  1.0000
  H   H4874     1.0  0.63465  0.84780  0.59246  1.0000
  H   H4875     1.0  0.68011  0.84770  0.61698  1.0000
  H   H4876     1.0  0.63346  0.91256  0.66566  1.0000
  H   H4877     1.0  0.62684  0.90853  0.58247  1.0000
  S   S1090     1.0  0.72307  0.90232  0.58844  1.0000
  C   C4066     1.0  0.63732  0.84996  0.59976  1.0000
  C   C4067     1.0  0.69328  0.93577  0.58318  1.0000
  H   H4878     1.0  0.66022  0.87134  0.61448  1.0000
  S   S1091     1.0  0.58907  0.88699  0.77322  1.0000
  C   C4068     1.0  0.53912  0.86330  0.77654  1.0000
  H   H4879     1.0  0.57807  0.89431  0.68874  1.0000
  C   C4069     1.0  0.74100  0.86253  0.61518  1.0000
  C   C4070     1.0  0.65307  0.85413  0.60770  1.0000
  C   C4071     1.0  0.55191  0.90424  0.77363  1.0000
  H   H4880     1.0  0.60367  0.92284  0.76962  1.0000
  S   S1092     1.0  0.56147  0.91192  0.76118  1.0000
  Fe  Fe546     1.0  0.62097  0.97236  0.58738  1.0000
  C   C4072     1.0  0.67615  0.95338  0.58278  1.0000
  S   S1093     1.0  0.71390  0.87603  0.59518  1.0000
  H   H4881     1.0  0.56963  0.89675  0.70957  1.0000
  H   H4882     1.0  0.71709  0.88173  0.63916  1.0000
  N   N272      1.0  0.56945  0.91656  0.71953  1.0000
  C   C4073     1.0  0.56384  0.90645  0.72803  1.0000
  C   C4074     1.0  0.57970  0.91746  0.72438  1.0000
  C   C4075     1.0  0.55998  0.92809  0.71977  1.0000
  C   C4076     1.0  0.57413  0.91473  0.70683  1.0000
  C   C4077     1.0  0.57980  0.92358  0.69763  1.0000
  C   C4078     1.0  0.57347  0.90416  0.70324  1.0000
  C   C4079     1.0  0.57821  0.90265  0.69121  1.0000
  C   C4080     1.0  0.58375  0.91148  0.68244  1.0000
  H   H4883     1.0  0.56053  0.90803  0.73754  1.0000
  H   H4884     1.0  0.55576  0.90551  0.72519  1.0000
  H   H4885     1.0  0.57061  0.89754  0.72863  1.0000
  H   H4886     1.0  0.58727  0.90926  0.72366  1.0000
  H   H4887     1.0  0.57677  0.91813  0.73417  1.0000
  H   H4888     1.0  0.58374  0.92554  0.71932  1.0000
  H   H4889     1.0  0.55231  0.92797  0.71576  1.0000
  H   H4890     1.0  0.55602  0.92948  0.72929  1.0000
  H   H4891     1.0  0.56374  0.93631  0.71458  1.0000
  C   C4081     1.0  0.63033  0.87992  0.59069  1.0000
  C   C4082     1.0  0.64374  0.85686  0.61799  1.0000
  C   C4083     1.0  0.67457  0.85150  0.59570  1.0000
  H   H4892     1.0  0.73214  0.86560  0.61271  1.0000
  H   H4893     1.0  0.61071  0.98185  0.61286  1.0000
  H   H4894     1.0  0.71904  0.87219  0.62896  1.0000
  H   H4895     1.0  0.72840  0.88639  0.61137  1.0000
  H   H4896     1.0  0.62459  0.85855  0.62687  1.0000
  Fe  Fe547     1.0  0.70743  0.89407  0.60081  1.0000
  C   C4084     1.0  0.63654  0.85518  0.77414  1.0000
  H   H4897     1.0  0.57017  0.85744  0.76951  1.0000
  Fe  Fe548     1.0  0.64823  0.97147  0.58199  1.0000
  C   C4085     1.0  0.60359  0.93361  0.58604  1.0000
  C   C4086     1.0  0.73242  0.88895  0.61773  1.0000
  C   C4087     1.0  0.68387  0.94392  0.58927  1.0000
  H   H4898     1.0  0.72574  0.86613  0.64219  1.0000
  H   H4899     1.0  0.56359  0.88636  0.77305  1.0000
  C   C4088     1.0  0.61130  0.91766  0.60198  1.0000
  H   H4900     1.0  0.65576  0.84883  0.59021  1.0000
  C   C4089     1.0  0.63162  0.85610  0.61909  1.0000
  H   H4901     1.0  0.67207  0.85755  0.58715  1.0000
  H   H4902     1.0  0.57756  0.92543  0.78033  1.0000
  H   H4903     1.0  0.66242  0.87436  0.59814  1.0000
  S   S1094     1.0  0.69473  0.90204  0.58791  1.0000
  H   H4904     1.0  0.55258  0.86739  0.76006  1.0000
  H   H4905     1.0  0.63341  0.92199  0.58980  1.0000
  H   H4906     1.0  0.60862  0.92405  0.60834  1.0000
  H   H4907     1.0  0.67539  0.86931  0.60526  1.0000
  H   H4908     1.0  0.61893  0.85254  0.61066  1.0000
  C   C4090     1.0  0.60618  0.84668  0.77234  1.0000
  C   C4091     1.0  0.64070  0.84256  0.77762  1.0000
  H   H4909     1.0  0.74231  0.87564  0.64407  1.0000
  C   C4092     1.0  0.59286  0.93009  0.58575  1.0000
  H   H4910     1.0  0.57244  0.91229  0.77985  1.0000
  C   C4093     1.0  0.62533  0.92934  0.58772  1.0000
  H   H4911     1.0  0.68579  0.98252  0.58229  1.0000
  H   H4912     1.0  0.60462  0.87970  0.58203  1.0000
  H   H4913     1.0  0.53137  0.86810  0.77233  1.0000
  H   H4914     1.0  0.58272  0.84065  0.77746  1.0000
  H   H4915     1.0  0.53837  0.92067  0.77652  1.0000
  C   C4094     1.0  0.54097  0.91084  0.77964  1.0000
  H   H4916     1.0  0.74076  0.89242  0.61231  1.0000
  H   H4917     1.0  0.73294  0.89056  0.63998  1.0000
  C   C4095     1.0  0.74429  0.86830  0.62279  1.0000
  H   H4918     1.0  0.59245  0.92053  0.58767  1.0000
  H   H4919     1.0  0.58831  0.98523  0.61270  1.0000
  C   C4096     1.0  0.60526  0.92251  0.77845  1.0000
  H   H4920     1.0  0.59803  0.94189  0.77764  1.0000
  S   S1095     1.0  0.61416  0.89760  0.78025  1.0000
  H   H4921     1.0  0.62953  0.87220  0.77968  1.0000
  S   S1096     1.0  0.73246  0.62536  0.87802  1.0000
  C   C4097     1.0  0.73153  0.63487  0.84284  1.0000
  Fe  Fe549     1.0  0.60241  0.71416  0.89102  1.0000
  S   S1097     1.0  0.60077  0.70179  0.88000  1.0000
  S   S1098     1.0  0.61361  0.70529  0.90534  1.0000
  Fe  Fe550     1.0  0.58731  0.73670  0.87736  1.0000
  S   S1099     1.0  0.58390  0.72595  0.86559  1.0000
  S   S1100     1.0  0.57884  0.75701  0.87335  1.0000
  Fe  Fe551     1.0  0.58102  0.71144  0.88267  1.0000
  S   S1101     1.0  0.56759  0.69896  0.88964  1.0000
  Fe  Fe552     1.0  0.60391  0.71729  0.86401  1.0000
  S   S1102     1.0  0.61530  0.71642  0.84514  1.0000
  S   S1103     1.0  0.58239  0.72296  0.89476  1.0000
  S   S1104     1.0  0.60757  0.72884  0.87471  1.0000
  Fe  Fe553     1.0  0.58547  0.63301  0.95118  1.0000
  S   S1105     1.0  0.57580  0.64422  0.96542  1.0000
  S   S1106     1.0  0.57816  0.62313  0.94122  1.0000
  Fe  Fe554     1.0  0.61056  0.63510  0.95228  1.0000
  S   S1107     1.0  0.60342  0.64684  0.96616  1.0000
  S   S1108     1.0  0.63034  0.62742  0.94503  1.0000
  H   H4922     1.0  0.61749  0.81631  0.78247  1.0000
  Fe  Fe555     1.0  0.58901  0.65644  0.95524  1.0000
  S   S1109     1.0  0.58166  0.67679  0.95172  1.0000
  S   S1110     1.0  0.59914  0.62127  0.96242  1.0000
  S   S1111     1.0  0.59748  0.64614  0.94024  1.0000
  Fe  Fe556     1.0  0.67017  0.62980  0.86226  1.0000
  S   S1112     1.0  0.66518  0.65020  0.86060  1.0000
  S   S1113     1.0  0.68957  0.61876  0.85778  1.0000
  Fe  Fe557     1.0  0.64338  0.62722  0.87035  1.0000
  S   S1114     1.0  0.63615  0.64727  0.86976  1.0000
  S   S1115     1.0  0.63144  0.61322  0.87646  1.0000
  Fe  Fe558     1.0  0.65001  0.64989  0.85221  1.0000
  S   S1116     1.0  0.64485  0.66408  0.83594  1.0000
  Fe  Fe559     1.0  0.65179  0.64591  0.87827  1.0000
  S   S1117     1.0  0.64829  0.65715  0.89220  1.0000
  S   S1118     1.0  0.65619  0.62984  0.85201  1.0000
  S   S1119     1.0  0.65781  0.62551  0.88071  1.0000
  Fe  Fe560     1.0  0.53750  0.63624  0.86450  1.0000
  S   S1120     1.0  0.53472  0.65183  0.87388  1.0000
  S   S1121     1.0  0.52032  0.63149  0.86192  1.0000
  Fe  Fe561     1.0  0.56497  0.62870  0.86559  1.0000
  S   S1122     1.0  0.56421  0.64339  0.87498  1.0000
  S   S1123     1.0  0.58244  0.61460  0.86168  1.0000
  Fe  Fe562     1.0  0.54649  0.63873  0.88641  1.0000
  S   S1124     1.0  0.54072  0.63686  0.90694  1.0000
  Fe  Fe563     1.0  0.55269  0.65532  0.86173  1.0000
  S   S1125     1.0  0.55673  0.67405  0.85267  1.0000
  S   S1126     1.0  0.54806  0.62285  0.87812  1.0000
  S   S1127     1.0  0.55474  0.64088  0.85124  1.0000
  Fe  Fe564     1.0  0.52112  0.89059  0.84746  1.0000
  S   S1128     1.0  0.50849  0.88581  0.83886  1.0000
  S   S1129     1.0  0.53019  0.87657  0.86159  1.0000
  Fe  Fe565     1.0  0.52008  0.91597  0.83108  1.0000
  H   H4923     1.0  0.52464  0.85860  0.82465  1.0000
  S   S1130     1.0  0.53039  0.93132  0.82417  1.0000
  Fe  Fe566     1.0  0.51922  0.89467  0.82116  1.0000
  S   S1131     1.0  0.52738  0.88413  0.80624  1.0000
  S   S1132     1.0  0.50944  0.90896  0.84982  1.0000
  S   S1133     1.0  0.53276  0.89788  0.82977  1.0000
  Fe  Fe567     1.0  0.60169  0.81617  0.85029  1.0000
  S   S1134     1.0  0.59486  0.81255  0.83562  1.0000
  S   S1135     1.0  0.60768  0.79931  0.86432  1.0000
  Fe  Fe568     1.0  0.59903  0.84370  0.83917  1.0000
  S   S1136     1.0  0.59207  0.84167  0.82373  1.0000
  S   S1137     1.0  0.59732  0.86423  0.83538  1.0000
  Fe  Fe569     1.0  0.58074  0.82967  0.83796  1.0000
  S   S1138     1.0  0.56115  0.83256  0.83676  1.0000
  Fe  Fe570     1.0  0.60693  0.82489  0.82298  1.0000
  S   S1139     1.0  0.61849  0.81977  0.80552  1.0000
  S   S1140     1.0  0.58651  0.83265  0.85360  1.0000
  S   S1141     1.0  0.61494  0.82753  0.83729  1.0000
  Fe  Fe571     1.0  0.60026  0.94278  0.82005  1.0000
  S   S1142     1.0  0.61709  0.93903  0.82775  1.0000
  S   S1143     1.0  0.59976  0.94644  0.80016  1.0000
  Fe  Fe572     1.0  0.58311  0.93970  0.84506  1.0000
  S   S1144     1.0  0.59858  0.93522  0.85479  1.0000
  S   S1145     1.0  0.56367  0.93927  0.85544  1.0000
  Fe  Fe573     1.0  0.60541  0.95113  0.84090  1.0000
  S   S1146     1.0  0.60691  0.96847  0.84615  1.0000
  Fe  Fe574     1.0  0.60873  0.92361  0.84095  1.0000
  S   S1147     1.0  0.61878  0.90388  0.84667  1.0000
  S   S1148     1.0  0.58920  0.95601  0.83188  1.0000
  S   S1149     1.0  0.59256  0.92699  0.83249  1.0000
  C   C4098     1.0  0.61461  0.77054  0.81867  1.0000
  C   C4099     1.0  0.61768  0.97483  0.84967  1.0000
  C   C4100     1.0  0.62965  0.96839  0.85050  1.0000
  H   H4924     1.0  0.49807  0.62508  0.86205  1.0000
  Fe  Fe575     1.0  0.59089  0.63384  0.97554  1.0000
  C   C4101     1.0  0.50533  0.86466  0.82529  1.0000
  H   H4925     1.0  0.59787  0.98636  0.87784  1.0000
  H   H4926     1.0  0.63266  0.95912  0.84906  1.0000
  C   C4102     1.0  0.63781  0.97401  0.85312  1.0000
  H   H4927     1.0  0.58963  0.87492  0.81310  1.0000
  C   C4103     1.0  0.60450  0.87448  0.83820  1.0000
  C   C4104     1.0  0.60185  0.88673  0.83202  1.0000
  C   C4105     1.0  0.60677  0.89555  0.83412  1.0000
  C   C4106     1.0  0.61399  0.89240  0.84280  1.0000
  C   C4107     1.0  0.61710  0.88001  0.84868  1.0000
  C   C4108     1.0  0.61241  0.87101  0.84633  1.0000
  H   H4928     1.0  0.59597  0.88947  0.82553  1.0000
  H   H4929     1.0  0.60502  0.90478  0.82891  1.0000
  H   H4930     1.0  0.62285  0.87743  0.85530  1.0000
  H   H4931     1.0  0.61456  0.86155  0.85111  1.0000
  H   H4932     1.0  0.62570  0.85148  0.82087  1.0000
  C   C4109     1.0  0.60421  0.93297  0.79439  1.0000
  C   C4110     1.0  0.63556  0.87565  0.80034  1.0000
  H   H4933     1.0  0.61142  0.92156  0.80993  1.0000
  H   H4934     1.0  0.63814  0.83963  0.80779  1.0000
  H   H4935     1.0  0.58649  0.91028  0.78440  1.0000
  C   C4111     1.0  0.61414  0.83027  0.79267  1.0000
  C   C4112     1.0  0.61027  0.84282  0.79257  1.0000
  H   H4936     1.0  0.62601  0.79470  0.81876  1.0000
  H   H4937     1.0  0.55078  0.97590  0.87185  1.0000
  H   H4938     1.0  0.61034  0.84615  0.80036  1.0000
  H   H4939     1.0  0.72172  0.64446  0.79609  1.0000
  C   C4113     1.0  0.53670  0.89204  0.79373  1.0000
  C   C4114     1.0  0.51441  0.84562  0.83733  1.0000
  C   C4115     1.0  0.49830  0.59063  0.82260  1.0000
  H   H4940     1.0  0.51742  0.57258  0.82742  1.0000
  H   H4941     1.0  0.58980  0.89629  0.80308  1.0000
  H   H4942     1.0  0.56372  0.98118  0.85158  1.0000
  N   N273      1.0  0.57016  0.84622  0.79354  1.0000
  C   C4116     1.0  0.53983  0.93285  0.83304  1.0000
  C   C4117     1.0  0.55035  0.93765  0.82715  1.0000
  C   C4118     1.0  0.55784  0.93937  0.83397  1.0000
  C   C4119     1.0  0.55461  0.93674  0.84675  1.0000
  C   C4120     1.0  0.54408  0.93197  0.85265  1.0000
  C   C4121     1.0  0.53682  0.92982  0.84582  1.0000
  H   H4943     1.0  0.55264  0.94018  0.81728  1.0000
  H   H4944     1.0  0.56591  0.94310  0.82932  1.0000
  H   H4945     1.0  0.54153  0.92992  0.86253  1.0000
  H   H4946     1.0  0.52865  0.92625  0.85042  1.0000
  C   C4122     1.0  0.53874  0.86420  0.85486  1.0000
  C   C4123     1.0  0.53817  0.86420  0.84300  1.0000
  C   C4124     1.0  0.54497  0.85437  0.83755  1.0000
  C   C4125     1.0  0.55250  0.84459  0.84387  1.0000
  C   C4126     1.0  0.55323  0.84462  0.85567  1.0000
  C   C4127     1.0  0.54626  0.85439  0.86121  1.0000
  H   H4947     1.0  0.53257  0.87176  0.83792  1.0000
  H   H4948     1.0  0.54459  0.85448  0.82835  1.0000
  H   H4949     1.0  0.55901  0.83700  0.86061  1.0000
  H   H4950     1.0  0.54679  0.85436  0.87037  1.0000
  C   C4128     1.0  0.61871  0.61524  0.87003  1.0000
  C   C4129     1.0  0.61726  0.60528  0.86636  1.0000
  C   C4130     1.0  0.60632  0.60558  0.86323  1.0000
  C   C4131     1.0  0.59648  0.61565  0.86417  1.0000
  C   C4132     1.0  0.59795  0.62581  0.86759  1.0000
  C   C4133     1.0  0.60915  0.62568  0.87032  1.0000
  H   H4951     1.0  0.62456  0.59716  0.86620  1.0000
  H   H4952     1.0  0.60530  0.59772  0.86055  1.0000
  H   H4953     1.0  0.59049  0.63372  0.86815  1.0000
  H   H4954     1.0  0.61022  0.63341  0.87314  1.0000
  C   C4134     1.0  0.56690  0.63025  0.93246  1.0000
  C   C4135     1.0  0.57018  0.63624  0.92021  1.0000
  C   C4136     1.0  0.56205  0.63890  0.91227  1.0000
  C   C4137     1.0  0.55070  0.63541  0.91658  1.0000
  C   C4138     1.0  0.54719  0.63010  0.92898  1.0000
  C   C4139     1.0  0.55530  0.62741  0.93683  1.0000
  H   H4955     1.0  0.57919  0.63829  0.91680  1.0000
  H   H4956     1.0  0.56469  0.64329  0.90277  1.0000
  H   H4957     1.0  0.53839  0.62747  0.93241  1.0000
  H   H4958     1.0  0.55279  0.62253  0.94619  1.0000
  C   C4140     1.0  0.63597  0.63591  0.93069  1.0000
  C   C4141     1.0  0.63075  0.64836  0.92726  1.0000
  C   C4142     1.0  0.63492  0.65494  0.91550  1.0000
  C   C4143     1.0  0.64406  0.64901  0.90712  1.0000
  C   C4144     1.0  0.64934  0.63659  0.91057  1.0000
  C   C4145     1.0  0.64536  0.63006  0.92242  1.0000
  H   H4959     1.0  0.62354  0.65288  0.93368  1.0000
  H   H4960     1.0  0.63083  0.66452  0.91276  1.0000
  H   H4961     1.0  0.65654  0.63203  0.90416  1.0000
  H   H4962     1.0  0.64941  0.62043  0.92510  1.0000
  C   C4146     1.0  0.60489  0.69753  0.91850  1.0000
  C   C4147     1.0  0.60994  0.68564  0.92421  1.0000
  C   C4148     1.0  0.60281  0.67916  0.93438  1.0000
  C   C4149     1.0  0.59081  0.68478  0.93917  1.0000
  C   C4150     1.0  0.58593  0.69685  0.93376  1.0000
  C   C4151     1.0  0.59287  0.70312  0.92329  1.0000
  H   H4963     1.0  0.61929  0.68141  0.92065  1.0000
  H   H4964     1.0  0.60664  0.66989  0.93861  1.0000
  H   H4965     1.0  0.57669  0.70128  0.93752  1.0000
  H   H4966     1.0  0.58901  0.71239  0.91907  1.0000
  C   C4152     1.0  0.56478  0.69223  0.87910  1.0000
  C   C4153     1.0  0.56610  0.69785  0.86669  1.0000
  C   C4154     1.0  0.56322  0.69245  0.85864  1.0000
  C   C4155     1.0  0.55922  0.68135  0.86295  1.0000
  C   C4156     1.0  0.55792  0.67579  0.87536  1.0000
  C   C4157     1.0  0.56078  0.68116  0.88337  1.0000
  H   H4967     1.0  0.56911  0.70644  0.86335  1.0000
  H   H4968     1.0  0.56419  0.69682  0.84905  1.0000
  H   H4969     1.0  0.55455  0.66743  0.87886  1.0000
  H   H4970     1.0  0.55994  0.67666  0.89290  1.0000
  C   C4158     1.0  0.62338  0.70172  0.84298  1.0000
  C   C4159     1.0  0.62535  0.69194  0.85289  1.0000
  C   C4160     1.0  0.63219  0.68038  0.85085  1.0000
  C   C4161     1.0  0.63684  0.67854  0.83889  1.0000
  C   C4162     1.0  0.63478  0.68831  0.82902  1.0000
  C   C4163     1.0  0.62817  0.69989  0.83106  1.0000
  H   H4971     1.0  0.62193  0.69335  0.86210  1.0000
  H   H4972     1.0  0.63394  0.67296  0.85852  1.0000
  H   H4973     1.0  0.63836  0.68694  0.81977  1.0000
  H   H4974     1.0  0.62671  0.70742  0.82337  1.0000
  C   C4164     1.0  0.58682  0.76860  0.87168  1.0000
  C   C4165     1.0  0.58167  0.78074  0.86664  1.0000
  C   C4166     1.0  0.58798  0.79017  0.86443  1.0000
  C   C4167     1.0  0.59945  0.78759  0.86743  1.0000
  C   C4168     1.0  0.60452  0.77549  0.87274  1.0000
  C   C4169     1.0  0.59827  0.76598  0.87478  1.0000
  H   H4975     1.0  0.57279  0.78286  0.86429  1.0000
  H   H4976     1.0  0.58388  0.79947  0.86053  1.0000
  H   H4977     1.0  0.61336  0.77344  0.87515  1.0000
  H   H4978     1.0  0.60229  0.75668  0.87877  1.0000
  C   C4170     1.0  0.50575  0.62393  0.83184  1.0000
  C   C4171     1.0  0.49885  0.62329  0.84382  1.0000
  C   C4172     1.0  0.50351  0.62560  0.85283  1.0000
  C   C4173     1.0  0.51515  0.62850  0.85008  1.0000
  C   C4174     1.0  0.52212  0.62899  0.83813  1.0000
  C   C4175     1.0  0.51745  0.62670  0.82910  1.0000
  C   C4176     1.0  0.58573  0.97798  0.87321  1.0000
  H   H4979     1.0  0.53109  0.63119  0.83583  1.0000
  H   H4980     1.0  0.52292  0.62720  0.81989  1.0000
  C   C4177     1.0  0.72003  0.62266  0.87379  1.0000
  C   C4178     1.0  0.70879  0.63122  0.87468  1.0000
  C   C4179     1.0  0.69915  0.62987  0.87026  1.0000
  C   C4180     1.0  0.70071  0.61993  0.86495  1.0000
  C   C4181     1.0  0.71179  0.61116  0.86445  1.0000
  C   C4182     1.0  0.72142  0.61251  0.86886  1.0000
  H   H4981     1.0  0.70762  0.63906  0.87855  1.0000
  H   H4982     1.0  0.69063  0.63666  0.87071  1.0000
  H   H4983     1.0  0.71299  0.60338  0.86047  1.0000
  H   H4984     1.0  0.72994  0.60575  0.86831  1.0000
  N   N274      1.0  0.56248  0.89288  0.84910  1.0000
  C   C4183     1.0  0.55019  0.89704  0.85655  1.0000
  C   C4184     1.0  0.56394  0.90146  0.83699  1.0000
  C   C4185     1.0  0.56289  0.88069  0.84695  1.0000
  C   C4186     1.0  0.57201  0.89276  0.85546  1.0000
  C   C4187     1.0  0.57959  0.88175  0.86062  1.0000
  C   C4188     1.0  0.57373  0.90392  0.85690  1.0000
  C   C4189     1.0  0.58851  0.88204  0.86653  1.0000
  C   C4190     1.0  0.58281  0.90411  0.86263  1.0000
  C   C4191     1.0  0.59024  0.89319  0.86738  1.0000
  H   H4985     1.0  0.54911  0.90620  0.85843  1.0000
  H   H4986     1.0  0.54272  0.89772  0.85191  1.0000
  H   H4987     1.0  0.54853  0.89054  0.86554  1.0000
  H   H4988     1.0  0.55747  0.90112  0.83161  1.0000
  H   H4989     1.0  0.57346  0.89919  0.83155  1.0000
  H   H4990     1.0  0.56199  0.91118  0.83775  1.0000
  H   H4991     1.0  0.55586  0.88115  0.84185  1.0000
  H   H4992     1.0  0.57201  0.87696  0.84153  1.0000
  H   H4993     1.0  0.56089  0.87393  0.85568  1.0000
  H   H4994     1.0  0.57907  0.87281  0.85994  1.0000
  H   H4995     1.0  0.56814  0.91264  0.85353  1.0000
  H   H4996     1.0  0.59445  0.87358  0.87009  1.0000
  H   H4997     1.0  0.58420  0.91279  0.86324  1.0000
  H   H4998     1.0  0.59754  0.89340  0.87147  1.0000
  C   C4192     1.0  0.63781  0.84446  0.79850  1.0000
  C   C4193     1.0  0.72914  0.63719  0.81238  1.0000
  C   C4194     1.0  0.71995  0.64006  0.80570  1.0000
  C   C4195     1.0  0.62057  0.66980  0.95920  1.0000
  H   H4999     1.0  0.55290  0.92047  0.79201  1.0000
  H   H5000     1.0  0.50449  0.88372  0.86844  1.0000
  H   H5001     1.0  0.52785  0.85841  0.79433  1.0000
  H   H5002     1.0  0.51115  0.86446  0.86143  1.0000
  N   N275      1.0  0.61214  0.62981  0.90726  1.0000
  C   C4196     1.0  0.62504  0.62949  0.90063  1.0000
  C   C4197     1.0  0.61170  0.62712  0.92057  1.0000
  C   C4198     1.0  0.60811  0.61970  0.90494  1.0000
  C   C4199     1.0  0.60460  0.64213  0.90328  1.0000
  C   C4200     1.0  0.59589  0.64426  0.89592  1.0000
  C   C4201     1.0  0.60631  0.65259  0.90622  1.0000
  C   C4202     1.0  0.58905  0.65606  0.89220  1.0000
  C   C4203     1.0  0.59947  0.66434  0.90242  1.0000
  C   C4204     1.0  0.59083  0.66607  0.89545  1.0000
  H   H5003     1.0  0.62882  0.63662  0.90223  1.0000
  H   H5004     1.0  0.63119  0.62048  0.90340  1.0000
  H   H5005     1.0  0.62580  0.63111  0.89064  1.0000
  H   H5006     1.0  0.61602  0.63326  0.92309  1.0000
  H   H5007     1.0  0.61689  0.61771  0.92387  1.0000
  H   H5008     1.0  0.60208  0.62784  0.92592  1.0000
  H   H5009     1.0  0.60921  0.62032  0.89503  1.0000
  H   H5010     1.0  0.61386  0.61063  0.90824  1.0000
  H   H5011     1.0  0.59841  0.61949  0.90969  1.0000
  H   H5012     1.0  0.59408  0.63695  0.89303  1.0000
  H   H5013     1.0  0.61308  0.65180  0.91136  1.0000
  H   H5014     1.0  0.58229  0.65747  0.88679  1.0000
  H   H5015     1.0  0.60097  0.67217  0.90482  1.0000
  H   H5016     1.0  0.58556  0.67520  0.89252  1.0000
  H   H5017     1.0  0.50316  0.85379  0.88816  1.0000
  H   H5018     1.0  0.64048  0.97315  0.82332  1.0000
  C   C4205     1.0  0.54711  0.85186  0.79452  1.0000
  C   C4206     1.0  0.55942  0.85145  0.78777  1.0000
  H   H5019     1.0  0.55756  0.96631  0.88438  1.0000
  C   C4207     1.0  0.64139  0.83723  0.78974  1.0000
  C   C4208     1.0  0.61053  0.91139  0.78534  1.0000
  H   H5020     1.0  0.72287  0.63242  0.84872  1.0000
  H   H5021     1.0  0.57587  0.94992  0.86799  1.0000
  C   C4209     1.0  0.50719  0.59500  0.86093  1.0000
  C   C4210     1.0  0.62911  0.65551  0.97567  1.0000
  C   C4211     1.0  0.57047  0.97258  0.85410  1.0000
  C   C4212     1.0  0.50142  0.86394  0.88533  1.0000
  C   C4213     1.0  0.73920  0.61506  0.83742  1.0000
  H   H5022     1.0  0.50277  0.85255  0.86765  1.0000
  C   C4214     1.0  0.55810  0.96788  0.87440  1.0000
  N   N276      1.0  0.49854  0.58109  0.83404  1.0000
  H   H5023     1.0  0.49561  0.64904  0.83777  1.0000
  H   H5024     1.0  0.73811  0.63249  0.84898  1.0000
  H   H5025     1.0  0.51863  0.59039  0.83219  1.0000
  C   C4215     1.0  0.70845  0.63733  0.81135  1.0000
  H   H5026     1.0  0.52341  0.59824  0.84740  1.0000
  C   C4216     1.0  0.51514  0.59466  0.84960  1.0000
  N   N277      1.0  0.60224  0.66736  0.84734  1.0000
  C   C4217     1.0  0.60923  0.66439  0.85712  1.0000
  C   C4218     1.0  0.60812  0.67564  0.83656  1.0000
  C   C4219     1.0  0.58974  0.67420  0.85199  1.0000
  C   C4220     1.0  0.60229  0.65600  0.84381  1.0000
  C   C4221     1.0  0.59136  0.65273  0.84361  1.0000
  H   H5027     1.0  0.61919  0.66091  0.85380  1.0000
  H   H5028     1.0  0.60859  0.67262  0.86065  1.0000
  H   H5029     1.0  0.60579  0.65732  0.86497  1.0000
  H   H5030     1.0  0.61780  0.67136  0.83289  1.0000
  H   H5031     1.0  0.60835  0.68431  0.83883  1.0000
  H   H5032     1.0  0.60312  0.67811  0.82901  1.0000
  H   H5033     1.0  0.58476  0.66845  0.86009  1.0000
  H   H5034     1.0  0.59000  0.68254  0.85486  1.0000
  H   H5035     1.0  0.58413  0.67749  0.84486  1.0000
  H   H5036     1.0  0.62230  0.64987  0.83990  1.0000
  H   H5037     1.0  0.58232  0.65830  0.84611  1.0000
  H   H5038     1.0  0.61608  0.78976  0.84066  1.0000
  S   S1150     1.0  0.50704  0.91338  0.82108  1.0000
  H   H5039     1.0  0.64706  0.96894  0.85365  1.0000
  H   H5040     1.0  0.61227  0.87694  0.81141  1.0000
  H   H5041     1.0  0.58037  0.86016  0.78305  1.0000
  C   C4222     1.0  0.61579  0.87023  0.80537  1.0000
  H   H5042     1.0  0.62499  0.78263  0.80468  1.0000
  C   C4223     1.0  0.51567  0.85645  0.82869  1.0000
  N   N278      1.0  0.62915  0.86527  0.80433  1.0000
  H   H5043     1.0  0.49617  0.86782  0.89348  1.0000
  H   H5044     1.0  0.55017  0.87572  0.79082  1.0000
  H   H5045     1.0  0.56974  0.86384  0.79658  1.0000
  H   H5046     1.0  0.50900  0.56302  0.83985  1.0000
  H   H5047     1.0  0.58337  0.75538  0.84438  1.0000
  H   H5048     1.0  0.73107  0.61163  0.84347  1.0000
  H   H5049     1.0  0.60230  0.67964  0.96351  1.0000
  H   H5050     1.0  0.69718  0.62948  0.82814  1.0000
  C   C4224     1.0  0.60211  0.93329  0.78298  1.0000
  C   C4225     1.0  0.61276  0.91110  0.79668  1.0000
  C   C4226     1.0  0.58878  0.76266  0.84011  1.0000
  N   N279      1.0  0.57446  0.60366  0.90421  1.0000
  C   C4227     1.0  0.57088  0.59655  0.89737  1.0000
  C   C4228     1.0  0.56479  0.60468  0.91549  1.0000
  C   C4229     1.0  0.57457  0.61620  0.89670  1.0000
  C   C4230     1.0  0.58688  0.59780  0.90662  1.0000
  C   C4231     1.0  0.58943  0.59443  0.91854  1.0000
  C   C4232     1.0  0.59700  0.59573  0.89678  1.0000
  C   C4233     1.0  0.60133  0.58903  0.92040  1.0000
  C   C4234     1.0  0.60888  0.59042  0.89872  1.0000
  C   C4235     1.0  0.61102  0.58695  0.91052  1.0000
  H   H5051     1.0  0.57147  0.58680  0.90230  1.0000
  H   H5052     1.0  0.56130  0.60042  0.89600  1.0000
  H   H5053     1.0  0.57672  0.59668  0.88802  1.0000
  H   H5054     1.0  0.56408  0.59552  0.92152  1.0000
  H   H5055     1.0  0.55554  0.60914  0.91340  1.0000
  H   H5056     1.0  0.56656  0.61049  0.92076  1.0000
  H   H5057     1.0  0.58021  0.61615  0.88733  1.0000
  H   H5058     1.0  0.56517  0.62138  0.89563  1.0000
  H   H5059     1.0  0.57836  0.62149  0.90092  1.0000
  H   H5060     1.0  0.58242  0.59594  0.92661  1.0000
  H   H5061     1.0  0.59580  0.59831  0.88747  1.0000
  H   H5062     1.0  0.60306  0.58655  0.92956  1.0000
  H   H5063     1.0  0.61649  0.58911  0.89099  1.0000
  H   H5064     1.0  0.62026  0.58286  0.91197  1.0000
  H   H5065     1.0  0.54490  0.84805  0.80421  1.0000
  C   C4236     1.0  0.57896  0.83681  0.78719  1.0000
  C   C4237     1.0  0.57038  0.87681  0.81481  1.0000
  H   H5066     1.0  0.59925  0.75507  0.81943  1.0000
  C   C4238     1.0  0.72700  0.63149  0.82501  1.0000
  H   H5067     1.0  0.58391  0.85289  0.79771  1.0000
  H   H5068     1.0  0.58426  0.67342  0.97664  1.0000
  C   C4239     1.0  0.60959  0.92186  0.80121  1.0000
  C   C4240     1.0  0.65846  0.68677  0.84922  1.0000
  H   H5069     1.0  0.60439  0.75357  0.85488  1.0000
  H   H5070     1.0  0.70132  0.63961  0.80619  1.0000
  H   H5071     1.0  0.71291  0.62426  0.83989  1.0000
  H   H5072     1.0  0.57454  0.82933  0.78740  1.0000
  C   C4241     1.0  0.50277  0.84286  0.84243  1.0000
  N   N280      1.0  0.55795  0.67471  0.92953  1.0000
  C   C4242     1.0  0.56808  0.66365  0.92931  1.0000
  C   C4243     1.0  0.56359  0.68555  0.92371  1.0000
  C   C4244     1.0  0.55219  0.67542  0.94242  1.0000
  C   C4245     1.0  0.54859  0.67393  0.92341  1.0000
  C   C4246     1.0  0.54302  0.66362  0.92730  1.0000
  C   C4247     1.0  0.54454  0.68333  0.91371  1.0000
  C   C4248     1.0  0.53427  0.66262  0.92158  1.0000
  C   C4249     1.0  0.53589  0.68215  0.90795  1.0000
  C   C4250     1.0  0.53086  0.67176  0.91180  1.0000
  H   H5073     1.0  0.57200  0.66224  0.91981  1.0000
  H   H5074     1.0  0.57567  0.66445  0.93304  1.0000
  H   H5075     1.0  0.56509  0.65516  0.93498  1.0000
  H   H5076     1.0  0.56818  0.68551  0.91399  1.0000
  H   H5077     1.0  0.57075  0.68571  0.92834  1.0000
  H   H5078     1.0  0.55673  0.69433  0.92416  1.0000
  H   H5079     1.0  0.54865  0.66707  0.94769  1.0000
  H   H5080     1.0  0.55885  0.67633  0.94729  1.0000
  H   H5081     1.0  0.54437  0.68347  0.94298  1.0000
  H   H5082     1.0  0.54549  0.65617  0.93472  1.0000
  H   H5083     1.0  0.54814  0.69158  0.91012  1.0000
  H   H5084     1.0  0.53029  0.65455  0.92453  1.0000
  H   H5085     1.0  0.65764  0.69854  0.83154  1.0000
  H   H5086     1.0  0.52439  0.67072  0.90714  1.0000
  H   H5087     1.0  0.58492  0.76883  0.83228  1.0000
  C   C4251     1.0  0.70612  0.63164  0.82367  1.0000
  H   H5088     1.0  0.55796  0.93274  0.79414  1.0000
  C   C4252     1.0  0.60655  0.74909  0.84702  1.0000
  C   C4253     1.0  0.57632  0.85620  0.79267  1.0000
  C   C4254     1.0  0.63301  0.86250  0.78279  1.0000
  C   C4255     1.0  0.60946  0.77477  0.83894  1.0000
  H   H5089     1.0  0.50937  0.59872  0.86750  1.0000
  Fe  Fe576     1.0  0.49738  0.90470  0.83981  1.0000
  H   H5090     1.0  0.63331  0.88201  0.79182  1.0000
  H   H5091     1.0  0.62807  0.86508  0.82323  1.0000
  H   H5092     1.0  0.56120  0.84702  0.81224  1.0000
  H   H5093     1.0  0.57989  0.95463  0.87959  1.0000
  H   H5094     1.0  0.64570  0.87228  0.79869  1.0000
  H   H5095     1.0  0.56211  0.83277  0.80812  1.0000
  C   C4256     1.0  0.63114  0.85875  0.81677  1.0000
  N   N281      1.0  0.57014  0.91499  0.79792  1.0000
  C   C4257     1.0  0.55766  0.92288  0.79787  1.0000
  C   C4258     1.0  0.57628  0.92021  0.80441  1.0000
  H   H5096     1.0  0.74136  0.65949  0.88592  1.0000
  C   C4259     1.0  0.57005  0.90194  0.80372  1.0000
  C   C4260     1.0  0.58109  0.89348  0.80585  1.0000
  C   C4261     1.0  0.55929  0.89709  0.80685  1.0000
  H   H5097     1.0  0.61448  0.76563  0.81206  1.0000
  C   C4262     1.0  0.55952  0.88470  0.81233  1.0000
  H   H5098     1.0  0.73783  0.63953  0.80744  1.0000
  H   H5099     1.0  0.55184  0.92220  0.80726  1.0000
  C   C4263     1.0  0.51226  0.59021  0.84092  1.0000
  C   C4264     1.0  0.63353  0.85737  0.79526  1.0000
  H   H5100     1.0  0.57624  0.93011  0.80035  1.0000
  H   H5101     1.0  0.58611  0.91571  0.80391  1.0000
  H   H5102     1.0  0.57164  0.91947  0.81420  1.0000
  H   H5103     1.0  0.58707  0.83259  0.79149  1.0000
  C   C4265     1.0  0.63416  0.98611  0.85499  1.0000
  N   N282      1.0  0.60204  0.75739  0.83623  1.0000
  H   H5104     1.0  0.52507  0.90991  0.79449  1.0000
  H   H5105     1.0  0.55057  0.90266  0.80511  1.0000
  C   C4266     1.0  0.56697  0.84028  0.80666  1.0000
  H   H5106     1.0  0.55119  0.88121  0.81461  1.0000
  H   H5107     1.0  0.58835  0.95739  0.86393  1.0000
  H   H5108     1.0  0.52254  0.83932  0.84001  1.0000
  C   C4267     1.0  0.57696  0.91582  0.78508  1.0000
  H   H5109     1.0  0.63868  0.65826  0.95683  1.0000
  N   N283      1.0  0.73636  0.62848  0.83250  1.0000
  C   C4268     1.0  0.63352  0.98112  0.82067  1.0000
  H   H5110     1.0  0.64417  0.82735  0.79251  1.0000
  H   H5111     1.0  0.50246  0.83428  0.84896  1.0000
  H   H5112     1.0  0.74272  0.60993  0.82992  1.0000
  H   H5113     1.0  0.51067  0.86628  0.88271  1.0000
  C   C4269     1.0  0.60659  0.85109  0.78226  1.0000
  C   C4270     1.0  0.60952  0.67298  0.96742  1.0000
  C   C4271     1.0  0.50127  0.58591  0.84336  1.0000
  C   C4272     1.0  0.53716  0.85777  0.78893  1.0000
  H   H5114     1.0  0.55563  0.95990  0.87273  1.0000
  H   H5115     1.0  0.61314  0.74547  0.82417  1.0000
  H   H5116     1.0  0.62152  0.67402  0.94955  1.0000
  H   H5117     1.0  0.59851  0.74196  0.83168  1.0000
  C   C4273     1.0  0.61443  0.82600  0.78244  1.0000
  H   H5118     1.0  0.66289  0.67861  0.84554  1.0000
  C   C4274     1.0  0.60881  0.76746  0.83122  1.0000
  H   H5119     1.0  0.59267  0.96960  0.87316  1.0000
  C   C4275     1.0  0.57414  0.97939  0.87038  1.0000
  H   H5120     1.0  0.60216  0.74104  0.85049  1.0000
  C   C4276     1.0  0.58116  0.88116  0.81142  1.0000
  S   S1151     1.0  0.50008  0.62150  0.82005  1.0000
  H   H5121     1.0  0.64102  0.85459  0.81665  1.0000
  H   H5122     1.0  0.57529  0.83604  0.81062  1.0000
  C   C4277     1.0  0.71523  0.62871  0.83038  1.0000
  C   C4278     1.0  0.60333  0.74972  0.82741  1.0000
  H   H5123     1.0  0.63234  0.71239  0.88160  1.0000
  H   H5124     1.0  0.60324  0.62550  0.83472  1.0000
  H   H5125     1.0  0.61665  0.74554  0.84474  1.0000
  H   H5126     1.0  0.53332  0.68923  0.90026  1.0000
  H   H5127     1.0  0.61687  0.90255  0.80205  1.0000
  C   C4279     1.0  0.60302  0.63405  0.83697  1.0000
  H   H5128     1.0  0.63288  0.88143  0.80729  1.0000
  H   H5129     1.0  0.62261  0.63084  0.83456  1.0000
  H   H5130     1.0  0.50634  0.87317  0.81867  1.0000
  C   C4280     1.0  0.62073  0.78027  0.81428  1.0000
  C   C4281     1.0  0.57905  0.95735  0.86987  1.0000
  H   H5131     1.0  0.58336  0.63941  0.84041  1.0000
  C   C4282     1.0  0.53346  0.90477  0.78982  1.0000
  C   C4283     1.0  0.61389  0.63704  0.83696  1.0000
  H   H5132     1.0  0.57049  0.86726  0.81925  1.0000
  C   C4284     1.0  0.62133  0.78712  0.82219  1.0000
  H   H5133     1.0  0.72949  0.64500  0.83953  1.0000
  H   H5134     1.0  0.64626  0.71690  0.83984  1.0000
  N   N284      1.0  0.64514  0.69503  0.88041  1.0000
  C   C4285     1.0  0.64111  0.70699  0.88424  1.0000
  C   C4286     1.0  0.63478  0.68864  0.88506  1.0000
  C   C4287     1.0  0.65547  0.68778  0.88638  1.0000
  C   C4288     1.0  0.64889  0.69628  0.86698  1.0000
  C   C4289     1.0  0.64577  0.70754  0.85865  1.0000
  C   C4290     1.0  0.65511  0.68586  0.86186  1.0000
  C   C4291     1.0  0.64909  0.70833  0.84601  1.0000
  C   C4292     1.0  0.65546  0.69798  0.84131  1.0000
  H   H5135     1.0  0.63912  0.70573  0.89438  1.0000
  H   H5136     1.0  0.64824  0.71258  0.88036  1.0000
  H   H5137     1.0  0.62638  0.69443  0.88197  1.0000
  H   H5138     1.0  0.63246  0.68621  0.89524  1.0000
  H   H5139     1.0  0.63680  0.68002  0.88178  1.0000
  H   H5140     1.0  0.65805  0.67806  0.88555  1.0000
  H   H5141     1.0  0.66377  0.69178  0.88244  1.0000
  H   H5142     1.0  0.65303  0.68731  0.89642  1.0000
  H   H5143     1.0  0.64046  0.71580  0.86166  1.0000
  C   C4293     1.0  0.61359  0.64790  0.84021  1.0000
  H   H5144     1.0  0.65702  0.67680  0.86758  1.0000
  C   C4294     1.0  0.59180  0.64190  0.84023  1.0000
  N   N285      1.0  0.57056  0.96943  0.86730  1.0000
  C   C4295     1.0  0.61574  0.78434  0.83451  1.0000
  H   H5145     1.0  0.60499  0.77324  0.84847  1.0000
  H   H5146     1.0  0.61341  0.87508  0.79642  1.0000
  H   H5147     1.0  0.60363  0.86078  0.78219  1.0000
  C   C4296     1.0  0.50824  0.57025  0.83137  1.0000
  H   H5148     1.0  0.58705  0.76819  0.84710  1.0000
  H   H5149     1.0  0.61059  0.86277  0.80921  1.0000
  C   C4297     1.0  0.61400  0.98688  0.85166  1.0000
  H   H5150     1.0  0.56806  0.96521  0.85130  1.0000
  C   C4298     1.0  0.54758  0.88548  0.78766  1.0000
  H   H5151     1.0  0.57967  0.97391  0.84846  1.0000
  C   C4299     1.0  0.62407  0.97975  0.81622  1.0000
  H   H5152     1.0  0.49698  0.86599  0.85708  1.0000
  C   C4300     1.0  0.63027  0.66096  0.96329  1.0000
  H   H5153     1.0  0.50631  0.56616  0.82464  1.0000
  H   H5154     1.0  0.50735  0.59314  0.81827  1.0000
  H   H5155     1.0  0.62371  0.97076  0.81540  1.0000
  C   C4301     1.0  0.50170  0.86267  0.86490  1.0000
  H   H5156     1.0  0.49546  0.58773  0.81560  1.0000
  H   H5157     1.0  0.63667  0.64862  0.97884  1.0000
  H   H5158     1.0  0.58774  0.68710  0.97832  1.0000
  H   H5159     1.0  0.74405  0.65353  0.90096  1.0000
  C   C4302     1.0  0.49630  0.59093  0.86361  1.0000
  N   N286      1.0  0.49482  0.86882  0.87513  1.0000
  C   C4303     1.0  0.49501  0.88208  0.87090  1.0000
  C   C4304     1.0  0.60790  0.66729  0.98008  1.0000
  H   H5160     1.0  0.87771  0.07301  0.15203  1.0000
  S   S1152     1.0  0.75891  0.11623  0.12923  1.0000
  Fe  Fe577     1.0  0.77820  0.09571  0.10657  1.0000
  S   S1153     1.0  0.78710  0.10617  0.11404  1.0000
  S   S1154     1.0  0.78725  0.08414  0.09259  1.0000
  Fe  Fe578     1.0  0.77452  0.10007  0.13181  1.0000
  S   S1155     1.0  0.78245  0.09321  0.14872  1.0000
  Fe  Fe579     1.0  0.77094  0.12159  0.11091  1.0000
  S   S1156     1.0  0.77074  0.14164  0.10412  1.0000
  S   S1157     1.0  0.76675  0.08831  0.12458  1.0000
  S   S1158     1.0  0.76334  0.11187  0.10145  1.0000
  Fe  Fe580     1.0  0.83530  0.03075  0.11673  1.0000
  S   S1159     1.0  0.83667  0.04487  0.12587  1.0000
  S   S1160     1.0  0.81970  0.03153  0.10836  1.0000
  Fe  Fe581     1.0  0.86032  0.01474  0.11969  1.0000
  S   S1161     1.0  0.86416  0.02762  0.12896  1.0000
  C   C4305     1.0  0.85702  0.10399  0.02848  1.0000
  Fe  Fe582     1.0  0.84466  0.02877  0.13915  1.0000
  S   S1162     1.0  0.83935  0.02794  0.15930  1.0000
  Fe  Fe583     1.0  0.85596  0.04277  0.11494  1.0000
  S   S1163     1.0  0.86320  0.06000  0.10704  1.0000
  S   S1164     1.0  0.84136  0.01462  0.13116  1.0000
  S   S1165     1.0  0.85407  0.02994  0.10458  1.0000
  Fe  Fe584     1.0  0.84868  0.08826  0.17065  1.0000
  S   S1166     1.0  0.86663  0.09376  0.16760  1.0000
  C   C4306     1.0  0.85473  0.04226  0.07094  1.0000
  Fe  Fe585     1.0  0.83640  0.11319  0.15772  1.0000
  S   S1167     1.0  0.85318  0.12102  0.15388  1.0000
  S   S1168     1.0  0.82017  0.12377  0.14923  1.0000
  Fe  Fe586     1.0  0.86319  0.10303  0.14867  1.0000
  S   S1169     1.0  0.87605  0.10003  0.13076  1.0000
  Fe  Fe587     1.0  0.85515  0.11126  0.17325  1.0000
  H   H5161     1.0  0.87167  0.07542  0.12017  1.0000
  S   S1170     1.0  0.84637  0.09586  0.15148  1.0000
  C   C4307     1.0  0.85163  0.10395  0.00926  1.0000
  Fe  Fe588     1.0  0.83109  0.13884  0.05839  1.0000
  S   S1171     1.0  0.84909  0.14460  0.05248  1.0000
  S   S1172     1.0  0.81475  0.15432  0.06083  1.0000
  Fe  Fe589     1.0  0.84344  0.11213  0.05913  1.0000
  S   S1173     1.0  0.86242  0.11593  0.05363  1.0000
  S   S1174     1.0  0.84041  0.09312  0.06234  1.0000
  Fe  Fe590     1.0  0.85490  0.12840  0.06705  1.0000
  S   S1175     1.0  0.86162  0.13292  0.08154  1.0000
  Fe  Fe591     1.0  0.85438  0.13167  0.03976  1.0000
  S   S1176     1.0  0.86445  0.13608  0.01990  1.0000
  S   S1177     1.0  0.83656  0.12329  0.07350  1.0000
  S   S1178     1.0  0.83579  0.12711  0.04469  1.0000
  C   C4308     1.0  0.85652  0.13876  0.00803  1.0000
  H   H5162     1.0  0.84164  0.99214  0.08255  1.0000
  C   C4309     1.0  0.84407  0.13847  0.01063  1.0000
  H   H5163     1.0  0.82856  0.13931  0.00332  1.0000
  H   H5164     1.0  0.83895  0.13738  0.01993  1.0000
  H   H5165     1.0  0.78688  0.11702  0.13508  1.0000
  H   H5166     1.0  0.86679  0.09935  0.02577  1.0000
  C   C4310     1.0  0.84453  0.14151  0.98894  1.0000
  C   C4311     1.0  0.87075  0.10836  0.11735  1.0000
  C   C4312     1.0  0.87597  0.10437  0.10633  1.0000
  C   C4313     1.0  0.87244  0.11134  0.09539  1.0000
  C   C4314     1.0  0.86384  0.12247  0.09538  1.0000
  C   C4315     1.0  0.85831  0.12619  0.10649  1.0000
  C   C4316     1.0  0.86160  0.11908  0.11746  1.0000
  H   H5167     1.0  0.88303  0.09608  0.10617  1.0000
  H   H5168     1.0  0.87692  0.10849  0.08685  1.0000
  H   H5169     1.0  0.85177  0.13481  0.10660  1.0000
  H   H5170     1.0  0.85749  0.12221  0.12591  1.0000
  C   C4317     1.0  0.85709  0.06902  0.09443  1.0000
  C   C4318     1.0  0.84999  0.06454  0.08933  1.0000
  C   C4319     1.0  0.84498  0.07193  0.07938  1.0000
  C   C4320     1.0  0.84691  0.08387  0.07462  1.0000
  C   C4321     1.0  0.85393  0.08838  0.07978  1.0000
  C   C4322     1.0  0.85912  0.08091  0.08959  1.0000
  H   H5171     1.0  0.84821  0.05545  0.09314  1.0000
  H   H5172     1.0  0.83931  0.06856  0.07558  1.0000
  H   H5173     1.0  0.85541  0.09760  0.07622  1.0000
  H   H5174     1.0  0.86463  0.08441  0.09347  1.0000
  C   C4323     1.0  0.84145  0.03984  0.16474  1.0000
  C   C4324     1.0  0.80854  0.03727  0.14679  1.0000
  C   C4325     1.0  0.84301  0.03982  0.07544  1.0000
  H   H5175     1.0  0.88328  0.11872  0.18014  1.0000
  C   C4326     1.0  0.84590  0.05997  0.16180  1.0000
  C   C4327     1.0  0.84498  0.05045  0.15689  1.0000
  H   H5176     1.0  0.85459  0.10145  0.03864  1.0000
  C   C4328     1.0  0.79639  0.03216  0.13566  1.0000
  H   H5177     1.0  0.84870  0.06810  0.15582  1.0000
  H   H5178     1.0  0.84694  0.05132  0.14710  1.0000
  C   C4329     1.0  0.85009  0.08698  0.02678  1.0000
  C   C4330     1.0  0.83897  0.03876  0.17737  1.0000
  C   C4331     1.0  0.86500  0.03265  0.07125  1.0000
  H   H5179     1.0  0.83614  0.09804  0.00701  1.0000
  C   C4332     1.0  0.75715  0.09117  0.08164  1.0000
  C   C4333     1.0  0.79609  0.06958  0.09749  1.0000
  C   C4334     1.0  0.80073  0.06666  0.10810  1.0000
  C   C4335     1.0  0.80837  0.05510  0.11132  1.0000
  C   C4336     1.0  0.81082  0.04630  0.10427  1.0000
  C   C4337     1.0  0.80586  0.04916  0.09389  1.0000
  C   C4338     1.0  0.79872  0.06083  0.09039  1.0000
  H   H5180     1.0  0.79874  0.07342  0.11360  1.0000
  H   H5181     1.0  0.81213  0.05289  0.11938  1.0000
  H   H5182     1.0  0.80772  0.04240  0.08843  1.0000
  H   H5183     1.0  0.79519  0.06308  0.08216  1.0000
  C   C4339     1.0  0.78300  0.14481  0.09200  1.0000
  C   C4340     1.0  0.78327  0.15703  0.08625  1.0000
  C   C4341     1.0  0.79293  0.15983  0.07647  1.0000
  C   C4342     1.0  0.80244  0.15044  0.07256  1.0000
  C   C4343     1.0  0.80221  0.13820  0.07831  1.0000
  C   C4344     1.0  0.79243  0.13538  0.08801  1.0000
  H   H5184     1.0  0.77597  0.16433  0.08930  1.0000
  H   H5185     1.0  0.79308  0.16929  0.07199  1.0000
  H   H5186     1.0  0.80947  0.13095  0.07515  1.0000
  H   H5187     1.0  0.79217  0.12593  0.09237  1.0000
  C   C4345     1.0  0.79259  0.10188  0.14926  1.0000
  C   C4346     1.0  0.80056  0.09722  0.15743  1.0000
  C   C4347     1.0  0.80906  0.10386  0.15752  1.0000
  C   C4348     1.0  0.80945  0.11531  0.14960  1.0000
  C   C4349     1.0  0.80138  0.11999  0.14157  1.0000
  C   C4350     1.0  0.79305  0.11328  0.14132  1.0000
  H   H5188     1.0  0.80020  0.08847  0.16369  1.0000
  H   H5189     1.0  0.86706  0.99530  0.07686  1.0000
  H   H5190     1.0  0.80162  0.12877  0.13540  1.0000
  H   H5191     1.0  0.84359  0.08367  0.02359  1.0000
  C   C4351     1.0  0.79256  0.06258  0.16095  1.0000
  H   H5192     1.0  0.79779  0.07376  0.13724  1.0000
  C   C4352     1.0  0.87891  0.05619  0.14624  1.0000
  N   N287      1.0  0.82802  0.15878  0.09042  1.0000
  C   C4353     1.0  0.84025  0.16174  0.08830  1.0000
  C   C4354     1.0  0.82986  0.14764  0.08572  1.0000
  C   C4355     1.0  0.82050  0.16916  0.08312  1.0000
  C   C4356     1.0  0.82169  0.15645  0.10345  1.0000
  C   C4357     1.0  0.80936  0.15489  0.10680  1.0000
  C   C4358     1.0  0.82772  0.15473  0.11313  1.0000
  C   C4359     1.0  0.80332  0.15226  0.11905  1.0000
  C   C4360     1.0  0.82162  0.15194  0.12535  1.0000
  C   C4361     1.0  0.80943  0.15085  0.12831  1.0000
  H   H5193     1.0  0.84692  0.15384  0.09237  1.0000
  H   H5194     1.0  0.84458  0.16377  0.07837  1.0000
  H   H5195     1.0  0.83957  0.16984  0.09201  1.0000
  H   H5196     1.0  0.83548  0.13961  0.09093  1.0000
  H   H5197     1.0  0.83469  0.14890  0.07595  1.0000
  H   H5198     1.0  0.82104  0.14524  0.08628  1.0000
  H   H5199     1.0  0.81816  0.17756  0.08688  1.0000
  H   H5200     1.0  0.82537  0.17134  0.07336  1.0000
  H   H5201     1.0  0.81183  0.16708  0.08272  1.0000
  H   H5202     1.0  0.80435  0.15542  0.10000  1.0000
  H   H5203     1.0  0.83720  0.15528  0.11152  1.0000
  H   H5204     1.0  0.79393  0.15103  0.12139  1.0000
  H   H5205     1.0  0.82643  0.15032  0.13265  1.0000
  H   H5206     1.0  0.80486  0.14850  0.13783  1.0000
  H   H5207     1.0  0.87248  0.14114  0.99364  1.0000
  H   H5208     1.0  0.81568  0.06122  0.16125  1.0000
  H   H5209     1.0  0.87198  0.01362  0.07623  1.0000
  C   C4362     1.0  0.89178  0.06793  0.12955  1.0000
  H   H5210     1.0  0.89249  0.04523  0.12720  1.0000
  C   C4363     1.0  0.87343  0.04643  0.17179  1.0000
  H   H5211     1.0  0.86724  0.99750  0.09163  1.0000
  H   H5212     1.0  0.83360  0.01024  0.09971  1.0000
  H   H5213     1.0  0.90015  0.06150  0.13223  1.0000
  H   H5214     1.0  0.76796  0.06750  0.08802  1.0000
  H   H5215     1.0  0.75309  0.14095  0.09089  1.0000
  N   N288      1.0  0.88131  0.06169  0.13298  1.0000
  C   C4364     1.0  0.80581  0.06921  0.14155  1.0000
  H   H5216     1.0  0.83502  0.04733  0.07552  1.0000
  H   H5217     1.0  0.76341  0.08017  0.10277  1.0000
  H   H5218     1.0  0.87790  0.03782  0.14521  1.0000
  H   H5219     1.0  0.88653  0.05693  0.11527  1.0000
  C   C4365     1.0  0.83815  0.13971  0.00117  1.0000
  H   H5220     1.0  0.83387  0.10468  0.03788  1.0000
  C   C4366     1.0  0.86185  0.10923  0.00243  1.0000
  N   N289      1.0  0.83212  0.10091  0.11771  1.0000
  C   C4367     1.0  0.82966  0.11435  0.11688  1.0000
  C   C4368     1.0  0.82666  0.09519  0.13037  1.0000
  C   C4369     1.0  0.84563  0.09634  0.11541  1.0000
  C   C4370     1.0  0.82702  0.09752  0.10902  1.0000
  C   C4371     1.0  0.82056  0.10634  0.10050  1.0000
  C   C4372     1.0  0.82830  0.08498  0.10907  1.0000
  C   C4373     1.0  0.81586  0.10270  0.09248  1.0000
  C   C4374     1.0  0.82339  0.08150  0.10114  1.0000
  C   C4375     1.0  0.81726  0.09033  0.09280  1.0000
  H   H5221     1.0  0.81963  0.11836  0.11887  1.0000
  H   H5222     1.0  0.83351  0.11654  0.12366  1.0000
  H   H5223     1.0  0.83398  0.11918  0.10772  1.0000
  H   H5224     1.0  0.81646  0.09738  0.13197  1.0000
  H   H5225     1.0  0.82912  0.09860  0.13725  1.0000
  H   H5226     1.0  0.82981  0.08506  0.13247  1.0000
  H   H5227     1.0  0.84973  0.09855  0.12196  1.0000
  H   H5228     1.0  0.84837  0.08624  0.11630  1.0000
  H   H5229     1.0  0.85005  0.10055  0.10599  1.0000
  H   H5230     1.0  0.81907  0.11608  0.09978  1.0000
  H   H5231     1.0  0.83328  0.07775  0.11511  1.0000
  H   H5232     1.0  0.81112  0.10949  0.08590  1.0000
  H   H5233     1.0  0.82467  0.07188  0.10119  1.0000
  H   H5234     1.0  0.81372  0.08758  0.08646  1.0000
  C   C4376     1.0  0.87021  0.07082  0.13004  1.0000
  H   H5235     1.0  0.83222  0.02638  0.08375  1.0000
  H   H5236     1.0  0.82907  0.10314  0.02523  1.0000
  C   C4377     1.0  0.87466  0.03915  0.16360  1.0000
  C   C4378     1.0  0.87481  0.05851  0.16744  1.0000
  H   H5237     1.0  0.75402  0.06185  0.09449  1.0000
  H   H5238     1.0  0.87310  0.02990  0.16705  1.0000
  C   C4379     1.0  0.87735  0.06340  0.15488  1.0000
  C   C4380     1.0  0.84401  0.10209  0.00249  1.0000
  C   C4381     1.0  0.86361  0.02054  0.07606  1.0000
  C   C4382     1.0  0.85176  0.01772  0.08076  1.0000
  C   C4383     1.0  0.87737  0.04389  0.15099  1.0000
  C   C4384     1.0  0.88439  0.05258  0.12518  1.0000
  N   N290      1.0  0.84882  0.10045  0.02279  1.0000
  C   C4385     1.0  0.80093  0.04920  0.14654  1.0000
  H   H5239     1.0  0.83996  0.10473  0.98477  1.0000
  N   N291      1.0  0.80338  0.05852  0.15157  1.0000
  Fe  Fe592     1.0  0.75233  0.10529  0.11997  1.0000
  H   H5240     1.0  0.83340  0.00767  0.07956  1.0000
  H   H5241     1.0  0.87652  0.04831  0.12635  1.0000
  H   H5242     1.0  0.79416  0.06944  0.16512  1.0000
  H   H5243     1.0  0.85956  0.08213  0.02317  1.0000
  H   H5244     1.0  0.75028  0.07383  0.11018  1.0000
  N   N292      1.0  0.84990  0.00505  0.08613  1.0000
  H   H5245     1.0  0.86805  0.11128  0.00670  1.0000
  H   H5246     1.0  0.79493  0.02580  0.13115  1.0000
  H   H5247     1.0  0.86224  0.06640  0.13217  1.0000
  H   H5248     1.0  0.84780  0.00682  0.10454  1.0000
  H   H5249     1.0  0.85635  0.11407  0.02600  1.0000
  H   H5250     1.0  0.79027  0.05470  0.16844  1.0000
  C   C4386     1.0  0.75802  0.06941  0.08783  1.0000
  C   C4387     1.0  0.78861  0.04368  0.13546  1.0000
  H   H5251     1.0  0.88983  0.07586  0.13389  1.0000
  H   H5252     1.0  0.87410  0.03465  0.06798  1.0000
  H   H5253     1.0  0.87331  0.06429  0.17388  1.0000
  C   C4388     1.0  0.86288  0.14079  0.99576  1.0000
  H   H5254     1.0  0.78106  0.04624  0.13081  1.0000
  H   H5255     1.0  0.76667  0.09061  0.08242  1.0000
  H   H5256     1.0  0.75794  0.09057  0.07209  1.0000
  H   H5257     1.0  0.89403  0.07180  0.11954  1.0000
  H   H5258     1.0  0.75176  0.10045  0.08274  1.0000
  H   H5259     1.0  0.86752  0.07814  0.13534  1.0000
  C   C4389     1.0  0.80628  0.02894  0.14138  1.0000
  H   H5260     1.0  0.81371  0.06642  0.13420  1.0000
  H   H5261     1.0  0.85590  0.05163  0.06741  1.0000
  C   C4390     1.0  0.84151  0.02775  0.08019  1.0000
  H   H5262     1.0  0.81522  0.10019  0.16380  1.0000
  C   C4391     1.0  0.84290  0.00420  0.09895  1.0000
  H   H5263     1.0  0.83445  0.11657  0.02418  1.0000
  H   H5264     1.0  0.78425  0.06714  0.15711  1.0000
  S   S1179     1.0  0.87455  0.99791  0.11506  1.0000
  H   H5265     1.0  0.81240  0.02002  0.14138  1.0000
  H   H5266     1.0  0.80785  0.07639  0.14493  1.0000
  C   C4392     1.0  0.79081  0.05210  0.14080  1.0000
  H   H5267     1.0  0.78471  0.06105  0.14012  1.0000
  H   H5268     1.0  0.84749  0.00285  0.06922  1.0000
  C   C4393     1.0  0.84280  0.00180  0.07905  1.0000
  H   H5269     1.0  0.84149  0.99474  0.10336  1.0000
  H   H5270     1.0  0.74877  0.09027  0.10576  1.0000
  H   H5271     1.0  0.84819  0.08406  0.03696  1.0000
  C   C4394     1.0  0.83602  0.10645  0.02769  1.0000
  H   H5272     1.0  0.81644  0.03418  0.15095  1.0000
  C   C4395     1.0  0.84351  0.05873  0.17453  1.0000
  C   C4396     1.0  0.75350  0.08145  0.10292  1.0000
  S   S1180     1.0  0.83724  0.10506  0.17736  1.0000
  C   C4397     1.0  0.84618  0.10574  0.98974  1.0000
  H   H5273     1.0  0.75752  0.06894  0.07857  1.0000
  H   H5274     1.0  0.74583  0.15881  0.10150  1.0000
  N   N293      1.0  0.75148  0.08146  0.09083  1.0000
  C   C4398     1.0  0.86154  0.99567  0.08626  1.0000
  H   H5275     1.0  0.81301  0.04603  0.16516  1.0000
  C   C4399     1.0  0.85689  0.14226  0.98622  1.0000
  C   C4400     1.0  0.86407  0.11260  0.98966  1.0000
  C   C4401     1.0  0.85616  0.11104  0.98335  1.0000
  H   H5276     1.0  0.82272  0.05138  0.15073  1.0000
  C   C4402     1.0  0.81414  0.05406  0.15743  1.0000
  H   H5277     1.0  0.74642  0.13822  0.11239  1.0000
  H   H5278     1.0  0.87167  0.11699  0.98467  1.0000
  H   H5279     1.0  0.85135  0.98979  0.12344  1.0000
  H   H5280     1.0  0.94034  0.17941  0.32302  1.0000
  H   H5281     1.0  0.75989  0.40328  0.34740  1.0000
  H   H5282     1.0  0.83826  0.04707  0.19204  1.0000
  S   S1181     1.0  0.83036  0.01478  0.34193  1.0000
  Fe  Fe593     1.0  0.90875  0.12570  0.25331  1.0000
  S   S1182     1.0  0.89207  0.13281  0.26661  1.0000
  S   S1183     1.0  0.92737  0.11870  0.25870  1.0000
  Fe  Fe594     1.0  0.89411  0.12960  0.23318  1.0000
  S   S1184     1.0  0.87650  0.13765  0.24493  1.0000
  S   S1185     1.0  0.89606  0.12690  0.21379  1.0000
  Fe  Fe595     1.0  0.88759  0.14752  0.25059  1.0000
  S   S1186     1.0  0.88019  0.16731  0.25205  1.0000
  Fe  Fe596     1.0  0.88246  0.12232  0.25997  1.0000
  S   S1187     1.0  0.86802  0.11320  0.27342  1.0000
  S   S1188     1.0  0.90488  0.14115  0.23734  1.0000
  S   S1189     1.0  0.89952  0.11357  0.24811  1.0000
  Fe  Fe597     1.0  0.97573  0.12090  0.32460  1.0000
  S   S1190     1.0  0.96576  0.11118  0.34245  1.0000
  Fe  Fe598     1.0  0.95294  0.12685  0.31261  1.0000
  S   S1191     1.0  0.94158  0.11780  0.32987  1.0000
  S   S1192     1.0  0.94181  0.13804  0.29822  1.0000
  Fe  Fe599     1.0  0.94976  0.12673  0.33960  1.0000
  S   S1193     1.0  0.93809  0.13654  0.35439  1.0000
  Fe  Fe600     1.0  0.95841  0.10306  0.33104  1.0000
  S   S1194     1.0  0.95565  0.08360  0.33729  1.0000
  S   S1195     1.0  0.95994  0.13700  0.32239  1.0000
  S   S1196     1.0  0.96971  0.11140  0.31310  1.0000
  Fe  Fe601     1.0  0.89050  0.18376  0.32825  1.0000
  S   S1197     1.0  0.87945  0.18122  0.34744  1.0000
  S   S1198     1.0  0.91043  0.18397  0.32349  1.0000
  Fe  Fe602     1.0  0.86923  0.18660  0.31685  1.0000
  S   S1199     1.0  0.85598  0.18489  0.33512  1.0000
  S   S1200     1.0  0.86353  0.19109  0.29877  1.0000
  Fe  Fe603     1.0  0.86565  0.19718  0.33969  1.0000
  S   S1201     1.0  0.85559  0.21407  0.34789  1.0000
  Fe  Fe604     1.0  0.87094  0.16919  0.34121  1.0000
  S   S1202     1.0  0.86871  0.15040  0.35291  1.0000
  S   S1203     1.0  0.87740  0.20026  0.32076  1.0000
  S   S1204     1.0  0.88350  0.17029  0.32270  1.0000
  Fe  Fe605     1.0  0.86521  0.08751  0.34425  1.0000
  S   S1205     1.0  0.88502  0.08663  0.33537  1.0000
  S   S1206     1.0  0.85228  0.10608  0.34449  1.0000
  Fe  Fe606     1.0  0.86832  0.05926  0.35188  1.0000
  S   S1207     1.0  0.88866  0.05655  0.34402  1.0000
  S   S1208     1.0  0.86150  0.04141  0.36056  1.0000
  Fe  Fe607     1.0  0.88856  0.07219  0.35191  1.0000
  S   S1209     1.0  0.90259  0.07256  0.36200  1.0000
  Fe  Fe608     1.0  0.88324  0.07117  0.32830  1.0000
  S   S1210     1.0  0.89278  0.06846  0.30946  1.0000
  S   S1211     1.0  0.86867  0.07373  0.36144  1.0000
  S   S1212     1.0  0.86293  0.07323  0.33561  1.0000
  S   S1213     1.0  0.97245  0.40675  0.34199  1.0000
  H   H5283     1.0  0.98135  0.41313  0.31555  1.0000
  S   S1214     1.0  0.85406  0.27774  0.37236  1.0000
  C   C4403     1.0  0.90562  0.12298  0.34713  1.0000
  C   C4404     1.0  0.91647  0.11585  0.36404  1.0000
  C   C4405     1.0  0.94605  0.36753  0.36889  1.0000
  C   C4406     1.0  0.86480  0.15192  0.19131  1.0000
  C   C4407     1.0  0.96007  0.15788  0.35726  1.0000
  S   S1215     1.0  0.86779  0.30786  0.36094  1.0000
  H   H5284     1.0  0.85532  0.00158  0.30757  1.0000
  H   H5285     1.0  0.94786  0.40294  0.35106  1.0000
  H   H5286     1.0  0.94620  0.37739  0.36742  1.0000
  S   S1216     1.0  0.80734  0.35727  0.35602  1.0000
  H   H5287     1.0  0.88471  0.21980  0.36912  1.0000
  H   H5288     1.0  0.89340  0.03391  0.33351  1.0000
  S   S1217     1.0  0.81621  0.38048  0.35956  1.0000
  Fe  Fe609     1.0  0.79844  0.37605  0.35979  1.0000
  S   S1218     1.0  0.78388  0.39091  0.35162  1.0000
  Fe  Fe610     1.0  0.82481  0.36114  0.35777  1.0000
  S   S1219     1.0  0.84368  0.35598  0.34625  1.0000
  N   N294      1.0  0.92478  0.10600  0.37092  1.0000
  C   C4408     1.0  0.95309  0.16825  0.33424  1.0000
  Fe  Fe611     1.0  0.90114  0.36819  0.35540  1.0000
  S   S1220     1.0  0.90214  0.35083  0.36982  1.0000
  S   S1221     1.0  0.88277  0.38078  0.35383  1.0000
  Fe  Fe612     1.0  0.92882  0.36441  0.34647  1.0000
  S   S1222     1.0  0.93208  0.34662  0.36009  1.0000
  S   S1223     1.0  0.94544  0.37017  0.33288  1.0000
  Fe  Fe613     1.0  0.91636  0.34251  0.35531  1.0000
  S   S1224     1.0  0.91801  0.32327  0.35343  1.0000
  S   S1225     1.0  0.79408  0.36965  0.38016  1.0000
  S   S1226     1.0  0.91421  0.35944  0.34044  1.0000
  S   S1227     1.0  0.91556  0.37465  0.36022  1.0000
  H   H5289     1.0  0.87664  0.02437  0.34227  1.0000
  C   C4409     1.0  0.77357  0.38670  0.34560  1.0000
  C   C4410     1.0  0.76227  0.39473  0.34440  1.0000
  H   H5290     1.0  0.80360  0.41650  0.34251  1.0000
  C   C4411     1.0  0.75702  0.38075  0.33535  1.0000
  C   C4412     1.0  0.76841  0.37280  0.33640  1.0000
  C   C4413     1.0  0.77664  0.37573  0.34156  1.0000
  C   C4414     1.0  0.78222  0.40006  0.31531  1.0000
  H   H5291     1.0  0.89559  0.14178  0.34448  1.0000
  H   H5292     1.0  0.77091  0.36441  0.33308  1.0000
  H   H5293     1.0  0.78549  0.36968  0.34211  1.0000
  C   C4415     1.0  0.85452  0.36302  0.34822  1.0000
  C   C4416     1.0  0.86683  0.35682  0.34721  1.0000
  C   C4417     1.0  0.87559  0.36224  0.34885  1.0000
  C   C4418     1.0  0.87210  0.37399  0.35129  1.0000
  C   C4419     1.0  0.85985  0.38029  0.35212  1.0000
  C   C4420     1.0  0.85105  0.37478  0.35069  1.0000
  H   H5294     1.0  0.86962  0.34781  0.34519  1.0000
  H   H5295     1.0  0.88506  0.35738  0.34810  1.0000
  H   H5296     1.0  0.85715  0.38937  0.35404  1.0000
  H   H5297     1.0  0.84165  0.37971  0.35131  1.0000
  C   C4421     1.0  0.88171  0.31177  0.35983  1.0000
  C   C4422     1.0  0.89280  0.30318  0.35826  1.0000
  C   C4423     1.0  0.90396  0.30680  0.35619  1.0000
  C   C4424     1.0  0.90401  0.31893  0.35596  1.0000
  C   C4425     1.0  0.89291  0.32744  0.35775  1.0000
  C   C4426     1.0  0.88180  0.32390  0.35949  1.0000
  H   H5298     1.0  0.89281  0.29384  0.35825  1.0000
  H   H5299     1.0  0.91255  0.30021  0.35471  1.0000
  H   H5300     1.0  0.89288  0.33681  0.35751  1.0000
  C   C4427     1.0  0.76886  0.39451  0.30583  1.0000
  C   C4428     1.0  0.74947  0.42062  0.29098  1.0000
  S   S1228     1.0  0.81941  0.98905  0.33484  1.0000
  H   H5301     1.0  0.83961  0.02794  0.31774  1.0000
  H   H5302     1.0  0.85539  0.05503  0.28960  1.0000
  C   C4429     1.0  0.98679  0.36968  0.36413  1.0000
  H   H5303     1.0  0.74964  0.42881  0.29410  1.0000
  H   H5304     1.0  0.88282  0.01396  0.33220  1.0000
  C   C4430     1.0  0.97227  0.35955  0.35562  1.0000
  H   H5305     1.0  0.97299  0.36994  0.38027  1.0000
  H   H5306     1.0  0.75810  0.42363  0.31084  1.0000
  C   C4431     1.0  0.96511  0.39640  0.33953  1.0000
  C   C4432     1.0  0.97124  0.38831  0.33175  1.0000
  C   C4433     1.0  0.96505  0.38046  0.32964  1.0000
  C   C4434     1.0  0.95275  0.38044  0.33548  1.0000
  C   C4435     1.0  0.94655  0.38862  0.34316  1.0000
  C   C4436     1.0  0.95271  0.39658  0.34516  1.0000
  H   H5307     1.0  0.98074  0.38809  0.32733  1.0000
  H   H5308     1.0  0.96985  0.37425  0.32358  1.0000
  C   C4437     1.0  0.98359  0.36174  0.34840  1.0000
  H   H5309     1.0  0.86163  0.09850  0.37063  1.0000
  C   C4438     1.0  0.86205  0.22262  0.35428  1.0000
  C   C4439     1.0  0.87260  0.21742  0.35910  1.0000
  C   C4440     1.0  0.87669  0.22405  0.36522  1.0000
  C   C4441     1.0  0.87044  0.23604  0.36646  1.0000
  C   C4442     1.0  0.86016  0.24142  0.36124  1.0000
  C   C4443     1.0  0.85589  0.23469  0.35536  1.0000
  H   H5310     1.0  0.87743  0.20816  0.35840  1.0000
  C   C4444     1.0  0.86147  0.16716  0.21753  1.0000
  H   H5311     1.0  0.85551  0.25073  0.36177  1.0000
  H   H5312     1.0  0.84774  0.23882  0.35166  1.0000
  C   C4445     1.0  0.86389  0.13976  0.34782  1.0000
  C   C4446     1.0  0.87259  0.13077  0.34221  1.0000
  C   C4447     1.0  0.86920  0.12042  0.34099  1.0000
  C   C4448     1.0  0.85700  0.11908  0.34527  1.0000
  C   C4449     1.0  0.84822  0.12833  0.35037  1.0000
  C   C4450     1.0  0.85168  0.13849  0.35183  1.0000
  H   H5313     1.0  0.88206  0.13153  0.33932  1.0000
  H   H5314     1.0  0.87604  0.11342  0.33692  1.0000
  H   H5315     1.0  0.83875  0.12742  0.35366  1.0000
  H   H5316     1.0  0.84493  0.14515  0.35649  1.0000
  C   C4451     1.0  0.94075  0.08059  0.34329  1.0000
  C   C4452     1.0  0.93902  0.07134  0.35378  1.0000
  C   C4453     1.0  0.92734  0.06881  0.35917  1.0000
  C   C4454     1.0  0.91726  0.07518  0.35391  1.0000
  C   C4455     1.0  0.91893  0.08432  0.34322  1.0000
  C   C4456     1.0  0.93066  0.08714  0.33799  1.0000
  H   H5317     1.0  0.94674  0.06618  0.35788  1.0000
  H   H5318     1.0  0.92614  0.06180  0.36745  1.0000
  H   H5319     1.0  0.91115  0.08948  0.33924  1.0000
  H   H5320     1.0  0.93192  0.09430  0.32986  1.0000
  C   C4457     1.0  0.92946  0.14951  0.34641  1.0000
  C   C4458     1.0  0.93001  0.15032  0.33409  1.0000
  C   C4459     1.0  0.92433  0.16100  0.32708  1.0000
  C   C4460     1.0  0.91753  0.17077  0.33249  1.0000
  C   C4461     1.0  0.91641  0.16987  0.34499  1.0000
  C   C4462     1.0  0.92253  0.15924  0.35196  1.0000
  H   H5321     1.0  0.93489  0.14278  0.32981  1.0000
  H   H5322     1.0  0.92534  0.16163  0.31744  1.0000
  H   H5323     1.0  0.91103  0.17746  0.34918  1.0000
  H   H5324     1.0  0.92199  0.15863  0.36153  1.0000
  C   C4463     1.0  0.93784  0.13205  0.28763  1.0000
  C   C4464     1.0  0.94607  0.12304  0.28179  1.0000
  C   C4465     1.0  0.94289  0.11925  0.27272  1.0000
  C   C4466     1.0  0.93137  0.12426  0.26956  1.0000
  C   C4467     1.0  0.92310  0.13315  0.27552  1.0000
  C   C4468     1.0  0.92634  0.13701  0.28447  1.0000
  H   H5325     1.0  0.95502  0.11921  0.28403  1.0000
  H   H5326     1.0  0.94935  0.11235  0.26817  1.0000
  H   H5327     1.0  0.91422  0.13710  0.27321  1.0000
  H   H5328     1.0  0.91981  0.14384  0.28899  1.0000
  C   C4469     1.0  0.87471  0.10001  0.28280  1.0000
  C   C4470     1.0  0.86771  0.09535  0.29409  1.0000
  C   C4471     1.0  0.87323  0.08549  0.30221  1.0000
  C   C4472     1.0  0.88563  0.08004  0.29892  1.0000
  C   C4473     1.0  0.89250  0.08432  0.28740  1.0000
  C   C4474     1.0  0.88708  0.09446  0.27942  1.0000
  H   H5329     1.0  0.85808  0.09949  0.29664  1.0000
  H   H5330     1.0  0.86779  0.08206  0.31093  1.0000
  H   H5331     1.0  0.90209  0.08004  0.28477  1.0000
  H   H5332     1.0  0.89249  0.09792  0.27065  1.0000
  C   C4475     1.0  0.86895  0.18360  0.28635  1.0000
  C   C4476     1.0  0.86580  0.19024  0.27527  1.0000
  C   C4477     1.0  0.86933  0.18498  0.26504  1.0000
  C   C4478     1.0  0.87592  0.17287  0.26569  1.0000
  C   C4479     1.0  0.87913  0.16603  0.27680  1.0000
  C   C4480     1.0  0.87571  0.17144  0.28714  1.0000
  H   H5333     1.0  0.86056  0.19958  0.27457  1.0000
  H   H5334     1.0  0.86686  0.19036  0.25653  1.0000
  H   H5335     1.0  0.88438  0.15671  0.27734  1.0000
  H   H5336     1.0  0.87808  0.16619  0.29571  1.0000
  C   C4481     1.0  0.83920  0.02194  0.34717  1.0000
  C   C4482     1.0  0.84632  0.01550  0.35582  1.0000
  C   C4483     1.0  0.85294  0.02164  0.35990  1.0000
  C   C4484     1.0  0.85274  0.03423  0.35525  1.0000
  C   C4485     1.0  0.84573  0.04063  0.34648  1.0000
  C   C4486     1.0  0.83898  0.03453  0.34252  1.0000
  H   H5337     1.0  0.84653  0.00584  0.35956  1.0000
  H   H5338     1.0  0.85825  0.01659  0.36674  1.0000
  H   H5339     1.0  0.84529  0.05035  0.34297  1.0000
  H   H5340     1.0  0.83337  0.03966  0.33597  1.0000
  C   C4487     1.0  0.86522  0.11995  0.20834  1.0000
  C   C4488     1.0  0.87372  0.12170  0.21413  1.0000
  C   C4489     1.0  0.88561  0.12271  0.20759  1.0000
  C   C4490     1.0  0.88905  0.12124  0.19540  1.0000
  H   H5341     1.0  0.85592  0.11970  0.21337  1.0000
  H   H5342     1.0  0.87093  0.12270  0.22353  1.0000
  H   H5343     1.0  0.99240  0.37381  0.36726  1.0000
  C   C4491     1.0  0.83700  0.21245  0.37696  1.0000
  C   C4492     1.0  0.77667  0.34843  0.36476  1.0000
  N   N295      1.0  0.85646  0.13353  0.30156  1.0000
  C   C4493     1.0  0.85821  0.12277  0.31183  1.0000
  C   C4494     1.0  0.84710  0.13200  0.29585  1.0000
  C   C4495     1.0  0.86826  0.13328  0.29246  1.0000
  C   C4496     1.0  0.85255  0.14546  0.30534  1.0000
  C   C4497     1.0  0.85023  0.15655  0.29659  1.0000
  C   C4498     1.0  0.85140  0.14650  0.31753  1.0000
  C   C4499     1.0  0.84682  0.16794  0.29987  1.0000
  C   C4500     1.0  0.84818  0.15796  0.32066  1.0000
  C   C4501     1.0  0.84589  0.16865  0.31185  1.0000
  H   H5344     1.0  0.84959  0.12234  0.31896  1.0000
  H   H5345     1.0  0.86092  0.11395  0.30872  1.0000
  H   H5346     1.0  0.86558  0.12288  0.31621  1.0000
  H   H5347     1.0  0.83793  0.13273  0.30220  1.0000
  H   H5348     1.0  0.84958  0.12293  0.29326  1.0000
  H   H5349     1.0  0.84611  0.13892  0.28725  1.0000
  H   H5350     1.0  0.86718  0.13974  0.28360  1.0000
  H   H5351     1.0  0.87516  0.13585  0.29578  1.0000
  H   H5352     1.0  0.87225  0.12405  0.29029  1.0000
  H   H5353     1.0  0.85127  0.15654  0.28706  1.0000
  H   H5354     1.0  0.85298  0.13863  0.32481  1.0000
  H   H5355     1.0  0.84528  0.17632  0.29299  1.0000
  H   H5356     1.0  0.84754  0.15858  0.32996  1.0000
  H   H5357     1.0  0.84360  0.17753  0.31424  1.0000
  N   N296      1.0  0.87363  0.32755  0.32408  1.0000
  C   C4502     1.0  0.86227  0.32981  0.33356  1.0000
  C   C4503     1.0  0.87020  0.32954  0.31218  1.0000
  C   C4504     1.0  0.87979  0.31444  0.32726  1.0000
  C   C4505     1.0  0.88137  0.33615  0.32328  1.0000
  C   C4506     1.0  0.87712  0.34899  0.31946  1.0000
  C   C4507     1.0  0.89298  0.33223  0.32668  1.0000
  C   C4508     1.0  0.88416  0.35732  0.31876  1.0000
  C   C4509     1.0  0.89990  0.34066  0.32604  1.0000
  C   C4510     1.0  0.89555  0.35316  0.32200  1.0000
  H   H5358     1.0  0.85629  0.33895  0.33101  1.0000
  H   H5359     1.0  0.85664  0.32284  0.33541  1.0000
  H   H5360     1.0  0.86445  0.32952  0.34240  1.0000
  H   H5361     1.0  0.86429  0.33873  0.30968  1.0000
  H   H5362     1.0  0.86486  0.32279  0.31235  1.0000
  H   H5363     1.0  0.87853  0.32865  0.30468  1.0000
  H   H5364     1.0  0.88195  0.31203  0.33645  1.0000
  H   H5365     1.0  0.87381  0.30818  0.32770  1.0000
  H   H5366     1.0  0.88845  0.31215  0.32047  1.0000
  H   H5367     1.0  0.86811  0.35271  0.31741  1.0000
  H   H5368     1.0  0.89683  0.32272  0.33014  1.0000
  H   H5369     1.0  0.88060  0.36709  0.31610  1.0000
  H   H5370     1.0  0.90861  0.33748  0.32893  1.0000
  H   H5371     1.0  0.90087  0.35968  0.32166  1.0000
  N   N297      1.0  0.97974  0.41396  0.29730  1.0000
  C   C4511     1.0  0.78560  0.42067  0.36018  1.0000
  H   H5372     1.0  0.87535  0.01307  0.29543  1.0000
  S   S1229     1.0  0.82236  0.35331  0.37795  1.0000
  H   H5373     1.0  0.84481  0.00719  0.32034  1.0000
  C   C4512     1.0  0.96509  0.16094  0.33465  1.0000
  H   H5374     1.0  0.88756  0.16669  0.22599  1.0000
  C   C4513     1.0  0.88544  0.04036  0.30027  1.0000
  H   H5375     1.0  0.87403  0.01483  0.31607  1.0000
  H   H5376     1.0  0.90016  0.02522  0.32176  1.0000
  C   C4514     1.0  0.97555  0.36738  0.37152  1.0000
  C   C4515     1.0  0.95778  0.17251  0.31211  1.0000
  C   C4516     1.0  0.84754  0.04193  0.30459  1.0000
  C   C4517     1.0  0.86905  0.16931  0.22393  1.0000
  N   N298      1.0  0.95599  0.35961  0.37501  1.0000
  H   H5377     1.0  0.76631  0.36806  0.37780  1.0000
  C   C4518     1.0  0.93678  0.10267  0.36261  1.0000
  H   H5378     1.0  0.94612  0.16952  0.34237  1.0000
  C   C4519     1.0  0.96798  0.36212  0.36751  1.0000
  H   H5379     1.0  0.88392  0.11073  0.35805  1.0000
  H   H5380     1.0  0.94130  0.41007  0.32308  1.0000
  H   H5381     1.0  0.74534  0.39800  0.33854  1.0000
  H   H5382     1.0  0.97223  0.43131  0.28668  1.0000
  C   C4520     1.0  0.95879  0.41261  0.31142  1.0000
  S   S1230     1.0  0.99440  0.12595  0.32187  1.0000
  H   H5383     1.0  0.81616  0.40660  0.37665  1.0000
  H   H5384     1.0  0.95122  0.15512  0.35849  1.0000
  H   H5385     1.0  0.97172  0.40058  0.28593  1.0000
  H   H5386     1.0  0.85529  0.14245  0.21548  1.0000
  H   H5387     1.0  0.78533  0.38251  0.31090  1.0000
  Fe  Fe614     1.0  0.83018  0.99434  0.34555  1.0000
  H   H5388     1.0  0.81953  0.21923  0.37189  1.0000
  C   C4521     1.0  0.99020  0.40341  0.29541  1.0000
  H   H5389     1.0  0.99175  0.11576  0.34826  1.0000
  C   C4522     1.0  0.76018  0.33866  0.36721  1.0000
  C   C4523     1.0  0.97318  0.15961  0.32325  1.0000
  H   H5390     1.0  0.98377  0.15283  0.35513  1.0000
  H   H5391     1.0  0.82098  0.00794  0.31216  1.0000
  C   C4524     1.0  0.88127  0.03164  0.31074  1.0000
  C   C4525     1.0  0.77447  0.41158  0.31527  1.0000
  H   H5392     1.0  0.90086  0.14592  0.36185  1.0000
  Fe  Fe615     1.0  0.81258  0.37245  0.37963  1.0000
  H   H5393     1.0  0.96349  0.15316  0.36578  1.0000
  H   H5394     1.0  0.98664  0.35977  0.33932  1.0000
  N   N299      1.0  0.83835  0.01321  0.30339  1.0000
  C   C4526     1.0  0.82527  0.01603  0.30976  1.0000
  H   H5395     1.0  0.85186  0.36811  0.37559  1.0000
  C   C4527     1.0  0.84544  0.00401  0.31196  1.0000
  C   C4528     1.0  0.84323  0.02455  0.29938  1.0000
  C   C4529     1.0  0.84319  0.03109  0.30810  1.0000
  C   C4530     1.0  0.84795  0.02953  0.28691  1.0000
  C   C4531     1.0  0.96955  0.16534  0.31218  1.0000
  C   C4532     1.0  0.85228  0.04040  0.28348  1.0000
  C   C4533     1.0  0.85208  0.04658  0.29230  1.0000
  C   C4534     1.0  0.91935  0.09497  0.37595  1.0000
  C   C4535     1.0  0.88248  0.02932  0.28674  1.0000
  H   H5396     1.0  0.81979  0.02362  0.30398  1.0000
  C   C4536     1.0  0.88505  0.10142  0.36396  1.0000
  H   H5397     1.0  0.89822  0.12194  0.19023  1.0000
  H   H5398     1.0  0.95491  0.17676  0.30353  1.0000
  C   C4537     1.0  0.88173  0.16521  0.22086  1.0000
  H   H5399     1.0  0.83334  0.01355  0.28669  1.0000
  Fe  Fe616     1.0  0.86804  0.26229  0.38047  1.0000
  H   H5400     1.0  0.88830  0.04818  0.30112  1.0000
  H   H5401     1.0  0.84828  0.02527  0.27960  1.0000
  H   H5402     1.0  0.88933  0.04595  0.28063  1.0000
  H   H5403     1.0  0.85572  0.04414  0.27391  1.0000
  H   H5404     1.0  0.84453  0.14737  0.20568  1.0000
  C   C4538     1.0  0.82366  0.23191  0.38002  1.0000
  C   C4539     1.0  0.87818  0.02069  0.29682  1.0000
  C   C4540     1.0  0.83232  0.40707  0.34768  1.0000
  H   H5405     1.0  0.94334  0.09522  0.36735  1.0000
  C   C4541     1.0  0.83898  0.00740  0.29324  1.0000
  H   H5406     1.0  0.86513  0.17392  0.23151  1.0000
  C   C4542     1.0  0.95569  0.34658  0.37634  1.0000
  S   S1231     1.0  0.87563  0.24367  0.37494  1.0000
  H   H5407     1.0  0.89671  0.15528  0.20940  1.0000
  H   H5408     1.0  0.91846  0.09096  0.36866  1.0000
  C   C4543     1.0  0.75398  0.39172  0.33940  1.0000
  C   C4544     1.0  0.97063  0.14107  0.34754  1.0000
  H   H5409     1.0  0.82605  0.26592  0.38063  1.0000
  C   C4545     1.0  0.90122  0.13453  0.34996  1.0000
  H   H5410     1.0  0.91379  0.13024  0.37413  1.0000
  C   C4546     1.0  0.94958  0.17399  0.32310  1.0000
  C   C4547     1.0  0.86397  0.10480  0.37499  1.0000
  C   C4548     1.0  0.74729  0.39973  0.29627  1.0000
  C   C4549     1.0  0.87751  0.02180  0.30868  1.0000
  H   H5411     1.0  0.97582  0.16392  0.30363  1.0000
  H   H5412     1.0  0.76010  0.34179  0.35728  1.0000
  H   H5413     1.0  0.79020  0.39757  0.31936  1.0000
  H   H5414     1.0  0.88408  0.15145  0.19804  1.0000
  H   H5415     1.0  0.87041  0.14288  0.19476  1.0000
  Fe  Fe617     1.0  0.86537  0.29005  0.37388  1.0000
  H   H5416     1.0  0.76707  0.38730  0.30276  1.0000
  C   C4550     1.0  0.98177  0.41956  0.30647  1.0000
  H   H5417     1.0  0.78529  0.41423  0.35474  1.0000
  C   C4551     1.0  0.89326  0.03348  0.32410  1.0000
  C   C4552     1.0  0.97995  0.42323  0.28567  1.0000
  H   H5418     1.0  0.98046  0.16703  0.34426  1.0000
  C   C4553     1.0  0.88604  0.03918  0.28847  1.0000
  C   C4554     1.0  0.75580  0.35993  0.37028  1.0000
  N   N300      1.0  0.74927  0.40956  0.30103  1.0000
  C   C4555     1.0  0.87668  0.02303  0.33310  1.0000
  C   C4556     1.0  0.96536  0.40279  0.29412  1.0000
  H   H5419     1.0  0.86708  0.02263  0.33345  1.0000
  H   H5420     1.0  0.84723  0.04681  0.31144  1.0000
  H   H5421     1.0  0.84441  0.17511  0.20302  1.0000
  H   H5422     1.0  0.97914  0.41949  0.27815  1.0000
  H   H5423     1.0  0.87326  0.33059  0.36055  1.0000
  C   C4557     1.0  0.79369  0.42378  0.37575  1.0000
  H   H5424     1.0  0.89488  0.09829  0.36453  1.0000
  C   C4558     1.0  0.88060  0.11931  0.18966  1.0000
  H   H5425     1.0  0.93698  0.38887  0.34748  1.0000
  H   H5426     1.0  0.87097  0.15732  0.18411  1.0000
  H   H5427     1.0  0.83541  0.99877  0.29670  1.0000
  S   S1232     1.0  0.74715  0.37702  0.32834  1.0000
  H   H5428     1.0  0.90336  0.12112  0.33948  1.0000
  C   C4559     1.0  0.91317  0.11382  0.35399  1.0000
  H   H5429     1.0  0.83721  0.40216  0.36519  1.0000
  H   H5430     1.0  0.86295  0.04496  0.32429  1.0000
  H   H5431     1.0  0.96186  0.13867  0.34801  1.0000
  C   C4560     1.0  0.87229  0.04474  0.32528  1.0000
  H   H5432     1.0  0.91647  0.30546  0.37591  1.0000
  C   C4561     1.0  0.84991  0.15070  0.21027  1.0000
  H   H5433     1.0  0.75769  0.41909  0.28348  1.0000
  C   C4562     1.0  0.80764  0.41251  0.36079  1.0000
  H   H5434     1.0  0.77655  0.41806  0.31920  1.0000
  H   H5435     1.0  0.88312  0.09535  0.35906  1.0000
  N   N301      1.0  0.91393  0.10099  0.30068  1.0000
  C   C4563     1.0  0.92749  0.09667  0.29824  1.0000
  C   C4564     1.0  0.90854  0.09064  0.30879  1.0000
  C   C4565     1.0  0.91006  0.10401  0.28884  1.0000
  C   C4566     1.0  0.90952  0.11181  0.30638  1.0000
  C   C4567     1.0  0.89684  0.11748  0.30860  1.0000
  C   C4568     1.0  0.91753  0.11719  0.30965  1.0000
  C   C4569     1.0  0.89256  0.12821  0.31319  1.0000
  C   C4570     1.0  0.91314  0.12793  0.31420  1.0000
  C   C4571     1.0  0.90073  0.13352  0.31581  1.0000
  H   H5436     1.0  0.93055  0.08875  0.29364  1.0000
  H   H5437     1.0  0.93213  0.10398  0.29203  1.0000
  H   H5438     1.0  0.93102  0.09355  0.30683  1.0000
  H   H5439     1.0  0.89840  0.09265  0.31006  1.0000
  H   H5440     1.0  0.91084  0.08829  0.31795  1.0000
  H   H5441     1.0  0.91199  0.08222  0.30494  1.0000
  H   H5442     1.0  0.89997  0.10553  0.28996  1.0000
  H   H5443     1.0  0.91285  0.11248  0.28290  1.0000
  H   H5444     1.0  0.91422  0.09660  0.28361  1.0000
  H   H5445     1.0  0.89020  0.11371  0.30661  1.0000
  H   H5446     1.0  0.92731  0.11354  0.30842  1.0000
  H   H5447     1.0  0.88288  0.13253  0.31469  1.0000
  H   H5448     1.0  0.91951  0.13206  0.31626  1.0000
  H   H5449     1.0  0.89743  0.14192  0.31921  1.0000
  N   N302      1.0  0.91153  0.17807  0.28880  1.0000
  C   C4572     1.0  0.91078  0.16688  0.29861  1.0000
  C   C4573     1.0  0.92203  0.18297  0.28905  1.0000
  C   C4574     1.0  0.90014  0.18742  0.29170  1.0000
  C   C4575     1.0  0.91339  0.17485  0.27685  1.0000
  C   C4576     1.0  0.90454  0.17947  0.26938  1.0000
  C   C4577     1.0  0.92414  0.16644  0.27260  1.0000
  C   C4578     1.0  0.90639  0.17573  0.25843  1.0000
  C   C4579     1.0  0.92582  0.16268  0.26170  1.0000
  C   C4580     1.0  0.91692  0.16726  0.25466  1.0000
  H   H5450     1.0  0.91961  0.15998  0.29803  1.0000
  H   H5451     1.0  0.90858  0.16903  0.30782  1.0000
  H   H5452     1.0  0.90353  0.16245  0.29821  1.0000
  H   H5453     1.0  0.93078  0.17599  0.28853  1.0000
  H   H5454     1.0  0.92058  0.18607  0.29770  1.0000
  H   H5455     1.0  0.92337  0.19094  0.28132  1.0000
  H   H5456     1.0  0.89175  0.18403  0.29260  1.0000
  H   H5457     1.0  0.89921  0.18987  0.30058  1.0000
  H   H5458     1.0  0.90002  0.19609  0.28462  1.0000
  H   H5459     1.0  0.89599  0.18578  0.27187  1.0000
  H   H5460     1.0  0.93116  0.16231  0.27790  1.0000
  H   H5461     1.0  0.89945  0.17920  0.25295  1.0000
  H   H5462     1.0  0.93392  0.15590  0.25887  1.0000
  H   H5463     1.0  0.91810  0.16412  0.24636  1.0000
  H   H5464     1.0  0.87146  0.04600  0.33464  1.0000
  H   H5465     1.0  0.91662  0.10516  0.35122  1.0000
  C   C4581     1.0  0.91159  0.12765  0.36688  1.0000
  H   H5466     1.0  0.98225  0.15372  0.32280  1.0000
  C   C4582     1.0  0.81764  0.40824  0.36681  1.0000
  N   N303      1.0  0.88086  0.03309  0.32312  1.0000
  C   C4583     1.0  0.74507  0.36279  0.36543  1.0000
  H   H5467     1.0  0.89652  0.04169  0.31797  1.0000
  H   H5468     1.0  0.79271  0.39678  0.37031  1.0000
  C   C4584     1.0  0.84008  0.04810  0.18222  1.0000
  C   C4585     1.0  0.86850  0.11896  0.19601  1.0000
  H   H5469     1.0  0.92038  0.28941  0.37747  1.0000
  C   C4586     1.0  0.82977  0.40560  0.36033  1.0000
  H   H5470     1.0  0.97490  0.42820  0.30761  1.0000
  H   H5471     1.0  0.93595  0.09936  0.35484  1.0000
  C   C4587     1.0  0.82605  0.22099  0.37602  1.0000
  N   N304      1.0  0.96903  0.15443  0.34626  1.0000
  C   C4588     1.0  0.86643  0.16083  0.20780  1.0000
  S   S1233     1.0  0.88027  0.27469  0.38031  1.0000
  C   C4589     1.0  0.87941  0.15673  0.20496  1.0000
  N   N305      1.0  0.87695  0.10107  0.37628  1.0000
  H   H5472     1.0  0.84196  0.99539  0.31516  1.0000
  H   H5473     1.0  0.77695  0.35193  0.35484  1.0000
  S   S1234     1.0  0.85663  0.11981  0.18846  1.0000
  H   H5474     1.0  0.99093  0.42204  0.30376  1.0000
  C   C4590     1.0  0.90416  0.13683  0.35983  1.0000
  Fe  Fe618     1.0  0.91767  0.35643  0.37335  1.0000
  H   H5475     1.0  0.82410  0.01878  0.31853  1.0000
  C   C4591     1.0  0.99082  0.36680  0.35263  1.0000
  C   C4592     1.0  0.96796  0.40982  0.30102  1.0000
  H   H5476     1.0  0.75091  0.33713  0.37237  1.0000
  H   H5477     1.0  0.78752  0.42936  0.35385  1.0000
  H   H5478     1.0  0.87451  0.12602  0.36843  1.0000
  H   H5479     1.0  0.93784  0.39698  0.31131  1.0000
  H   H5480     1.0  0.87533  0.05290  0.31885  1.0000
  H   H5481     1.0  0.81507  0.23826  0.37905  1.0000
  Fe  Fe619     1.0  0.99303  0.40471  0.33537  1.0000
  H   H5482     1.0  0.76661  0.32953  0.36832  1.0000
  C   C4593     1.0  0.88688  0.15890  0.21145  1.0000
  H   H5483     1.0  0.75488  0.39731  0.28852  1.0000
  H   H5484     1.0  0.78056  0.35454  0.36786  1.0000
  H   H5485     1.0  0.86186  0.11408  0.36913  1.0000
  C   C4594     1.0  0.82710  0.25689  0.37835  1.0000
  H   H5486     1.0  0.85842  0.14992  0.18679  1.0000
  H   H5487     1.0  0.87421  0.36228  0.37525  1.0000
  H   H5488     1.0  0.81848  0.25726  0.37570  1.0000
  C   C4595     1.0  0.76391  0.41465  0.31050  1.0000
  H   H5489     1.0  0.82478  0.41194  0.33166  1.0000
  N   N306      1.0  0.79486  0.41514  0.36793  1.0000
  H   H5490     1.0  0.84861  0.00468  0.28825  1.0000
  H   H5491     1.0  0.78315  0.33933  0.36591  1.0000
  H   H5492     1.0  0.99075  0.40002  0.28718  1.0000
  H   H5493     1.0  0.87090  0.04289  0.18155  1.0000
  H   H5494     1.0  0.98864  0.15304  0.33933  1.0000
  Fe  Fe620     1.0  0.80421  0.35114  0.37646  1.0000
  H   H5495     1.0  0.94114  0.11071  0.35861  1.0000
  C   C4596     1.0  0.77945  0.39159  0.31054  1.0000
  N   N307      1.0  0.76402  0.34760  0.37167  1.0000
  H   H5496     1.0  0.88302  0.02841  0.27757  1.0000
  C   C4597     1.0  0.76073  0.40618  0.30568  1.0000
  H   H5497     1.0  0.98946  0.39557  0.30341  1.0000
  C   C4598     1.0  0.98095  0.15699  0.34621  1.0000
  H   H5498     1.0  0.85011  0.34891  0.37821  1.0000
  H   H5499     1.0  0.95299  0.39252  0.29266  1.0000
  H   H5500     1.0  0.84174  0.40489  0.34269  1.0000
  H   H5501     1.0  0.93682  0.36624  0.37438  1.0000
  H   H5502     1.0  0.83621  0.03063  0.18347  1.0000
  H   H5503     1.0  0.95988  0.41785  0.31731  1.0000
  H   H5504     1.0  0.97714  0.13780  0.33960  1.0000
  C   C4599     1.0  0.94798  0.40818  0.31489  1.0000
  C   C4600     1.0  0.94599  0.40084  0.30824  1.0000
  C   C4601     1.0  0.75824  0.36946  0.37419  1.0000
  H   H5505     1.0  0.74647  0.39128  0.30356  1.0000
  N   N308      1.0  0.85817  0.15839  0.20139  1.0000
  C   C4602     1.0  0.82274  0.41107  0.34148  1.0000
  H   H5506     1.0  0.85653  0.17632  0.18963  1.0000
  H   H5507     1.0  0.84323  0.15565  0.21709  1.0000
  H   H5508     1.0  0.97408  0.13568  0.35589  1.0000
  H   H5509     1.0  0.93184  0.11746  0.37794  1.0000
  C   C4603     1.0  0.81056  0.41372  0.34788  1.0000
  H   H5510     1.0  0.84460  0.16857  0.19074  1.0000
  H   H5511     1.0  0.83466  0.25624  0.37012  1.0000
  H   H5512     1.0  0.94686  0.36557  0.35984  1.0000
  C   C4604     1.0  0.95460  0.39825  0.29780  1.0000
  H   H5513     1.0  0.79692  0.43223  0.37021  1.0000
  C   C4605     1.0  0.85060  0.17011  0.19599  1.0000
  H   H5514     1.0  0.95820  0.16792  0.35672  1.0000
  H   H5515     1.0  0.96679  0.35606  0.35170  1.0000
  H   H5516     1.0  0.85169  0.17027  0.22044  1.0000
  C   C4606     1.0  0.79173  0.40357  0.37586  1.0000
  H   H5517     1.0  0.75252  0.38819  0.37635  1.0000
  H   H5518     1.0  0.77614  0.42281  0.36578  1.0000
  C   C4607     1.0  0.75035  0.38102  0.37349  1.0000
  H   H5519     1.0  0.87700  0.08195  0.37843  1.0000
  H   H5520     1.0  0.95635  0.34431  0.36747  1.0000
  H   H5521     1.0  0.98871  0.42657  0.28262  1.0000
  H   H5522     1.0  0.87831  0.14041  0.37794  1.0000
  H   H5523     1.0  0.82036  0.32495  0.37787  1.0000
  H   H5524     1.0  0.96340  0.34030  0.38039  1.0000
  C   C4608     1.0  0.87773  0.12236  0.37685  1.0000
  H   H5525     1.0  0.85399  0.32737  0.37802  1.0000
  H   H5526     1.0  0.83907  0.20423  0.37338  1.0000
  H   H5527     1.0  0.78401  0.42659  0.38062  1.0000
  S   S1235     1.0  0.84512  0.06981  0.18143  1.0000
  H   H5528     1.0  0.79376  0.40307  0.54391  1.0000
  C   C4609     1.0  0.84250  0.34171  0.51611  1.0000
  C   C4610     1.0  0.76428  0.34253  0.38479  1.0000
  Fe  Fe621     1.0  0.86124  0.40960  0.53741  1.0000
  S   S1236     1.0  0.87176  0.39040  0.54347  1.0000
  S   S1237     1.0  0.86972  0.42611  0.53269  1.0000
  Fe  Fe622     1.0  0.83854  0.40086  0.53879  1.0000
  S   S1238     1.0  0.84712  0.38120  0.54523  1.0000
  S   S1239     1.0  0.81906  0.40548  0.53672  1.0000
  Fe  Fe623     1.0  0.85429  0.38831  0.55756  1.0000
  C   C4611     1.0  0.83179  0.34975  0.52049  1.0000
  Fe  Fe624     1.0  0.86337  0.38530  0.53046  1.0000
  S   S1240     1.0  0.87291  0.37228  0.51737  1.0000
  S   S1241     1.0  0.84439  0.40777  0.55201  1.0000
  S   S1242     1.0  0.85432  0.40472  0.52338  1.0000
  Fe  Fe625     1.0  0.86323  0.33067  0.45019  1.0000
  S   S1243     1.0  0.85576  0.34265  0.43418  1.0000
  S   S1244     1.0  0.87472  0.31171  0.44879  1.0000
  Fe  Fe626     1.0  0.85166  0.34978  0.46644  1.0000
  S   S1245     1.0  0.84293  0.36291  0.45143  1.0000
  S   S1246     1.0  0.84606  0.35744  0.48388  1.0000
  Fe  Fe627     1.0  0.83843  0.34675  0.44804  1.0000
  S   S1247     1.0  0.82094  0.34676  0.44316  1.0000
  Fe  Fe628     1.0  0.86104  0.35763  0.43905  1.0000
  S   S1248     1.0  0.86827  0.37267  0.42449  1.0000
  S   S1249     1.0  0.84546  0.33379  0.46404  1.0000
  S   S1250     1.0  0.87024  0.34540  0.45404  1.0000
  Fe  Fe629     1.0  0.86915  0.27667  0.39908  1.0000
  S   S1251     1.0  0.87806  0.27584  0.41447  1.0000
  S   S1252     1.0  0.81717  0.38189  0.39174  1.0000
  H   H5529     1.0  0.90558  0.32044  0.38478  1.0000
  C   C4612     1.0  0.87465  0.30246  0.43889  1.0000
  C   C4613     1.0  0.88113  0.29029  0.44111  1.0000
  C   C4614     1.0  0.88189  0.28243  0.43356  1.0000
  C   C4615     1.0  0.87619  0.28653  0.42359  1.0000
  C   C4616     1.0  0.86968  0.29876  0.42118  1.0000
  C   C4617     1.0  0.86893  0.30676  0.42882  1.0000
  H   H5530     1.0  0.88563  0.28688  0.44877  1.0000
  H   H5531     1.0  0.88695  0.27305  0.43551  1.0000
  H   H5532     1.0  0.86513  0.30197  0.41358  1.0000
  H   H5533     1.0  0.86393  0.31616  0.42699  1.0000
  C   C4618     1.0  0.88266  0.36725  0.41575  1.0000
  C   C4619     1.0  0.88595  0.37309  0.40350  1.0000
  C   C4620     1.0  0.89733  0.36870  0.39632  1.0000
  C   C4621     1.0  0.90567  0.35882  0.40154  1.0000
  C   C4622     1.0  0.90252  0.35320  0.41388  1.0000
  C   C4623     1.0  0.89087  0.35717  0.42090  1.0000
  H   H5534     1.0  0.87962  0.38091  0.39951  1.0000
  H   H5535     1.0  0.87831  0.31846  0.40261  1.0000
  H   H5536     1.0  0.90900  0.34560  0.41795  1.0000
  H   H5537     1.0  0.88839  0.35267  0.43038  1.0000
  C   C4624     1.0  0.81925  0.35713  0.42928  1.0000
  C   C4625     1.0  0.81109  0.35618  0.42279  1.0000
  C   C4626     1.0  0.81053  0.36365  0.41116  1.0000
  C   C4627     1.0  0.81764  0.37256  0.40630  1.0000
  C   C4628     1.0  0.82538  0.37390  0.41302  1.0000
  C   C4629     1.0  0.82638  0.36602  0.42438  1.0000
  H   H5538     1.0  0.80525  0.34963  0.42675  1.0000
  H   H5539     1.0  0.80442  0.36269  0.40606  1.0000
  H   H5540     1.0  0.83080  0.38086  0.40933  1.0000
  H   H5541     1.0  0.83261  0.36689  0.42938  1.0000
  C   C4630     1.0  0.86575  0.36912  0.50712  1.0000
  C   C4631     1.0  0.87227  0.36042  0.49995  1.0000
  C   C4632     1.0  0.86660  0.35709  0.49235  1.0000
  C   C4633     1.0  0.85430  0.36240  0.49188  1.0000
  C   C4634     1.0  0.84793  0.37137  0.49875  1.0000
  C   C4635     1.0  0.85361  0.37477  0.50626  1.0000
  H   H5542     1.0  0.88166  0.35598  0.50056  1.0000
  H   H5543     1.0  0.87157  0.35003  0.48729  1.0000
  H   H5544     1.0  0.83845  0.37556  0.49838  1.0000
  H   H5545     1.0  0.84854  0.38157  0.51158  1.0000
  C   C4636     1.0  0.86529  0.43824  0.54057  1.0000
  C   C4637     1.0  0.85663  0.43826  0.55171  1.0000
  C   C4638     1.0  0.85338  0.44852  0.55722  1.0000
  C   C4639     1.0  0.85870  0.45877  0.55150  1.0000
  C   C4640     1.0  0.86735  0.45857  0.54050  1.0000
  C   C4641     1.0  0.87069  0.44838  0.53515  1.0000
  H   H5546     1.0  0.85236  0.43048  0.55594  1.0000
  H   H5547     1.0  0.84655  0.44864  0.56566  1.0000
  H   H5548     1.0  0.87149  0.46640  0.53600  1.0000
  H   H5549     1.0  0.87738  0.44845  0.52659  1.0000
  C   C4642     1.0  0.83233  0.23468  0.38491  1.0000
  C   C4643     1.0  0.84289  0.30132  0.44764  1.0000
  C   C4644     1.0  0.81029  0.38455  0.57026  1.0000
  C   C4645     1.0  0.81656  0.39137  0.55979  1.0000
  C   C4646     1.0  0.81072  0.39783  0.55017  1.0000
  C   C4647     1.0  0.79836  0.39795  0.55128  1.0000
  C   C4648     1.0  0.82509  0.43846  0.53687  1.0000
  H   H5550     1.0  0.89576  0.43543  0.56660  1.0000
  H   H5551     1.0  0.82589  0.39167  0.55928  1.0000
  C   C4649     1.0  0.80911  0.36437  0.53081  1.0000
  N   N309      1.0  0.90734  0.29544  0.39306  1.0000
  H   H5552     1.0  0.95237  0.37182  0.38726  1.0000
  C   C4650     1.0  0.90180  0.32638  0.40142  1.0000
  H   H5553     1.0  0.80934  0.36675  0.52083  1.0000
  C   C4651     1.0  0.83578  0.44310  0.53301  1.0000
  H   H5554     1.0  0.79984  0.29250  0.40650  1.0000
  C   C4652     1.0  0.84334  0.22566  0.38593  1.0000
  H   H5555     1.0  0.88582  0.13318  0.39726  1.0000
  H   H5556     1.0  0.80660  0.46147  0.55091  1.0000
  C   C4653     1.0  0.82246  0.37817  0.52726  1.0000
  H   H5557     1.0  0.87365  0.40789  0.55936  1.0000
  H   H5558     1.0  0.84417  0.43799  0.52821  1.0000
  H   H5559     1.0  0.78230  0.39165  0.56299  1.0000
  C   C4654     1.0  0.81843  0.36439  0.54685  1.0000
  H   H5560     1.0  0.79130  0.43381  0.53900  1.0000
  H   H5561     1.0  0.81270  0.42130  0.55262  1.0000
  S   S1253     1.0  0.85472  0.47233  0.55722  1.0000
  Fe  Fe630     1.0  0.84521  0.27904  0.39175  1.0000
  H   H5562     1.0  0.82562  0.42970  0.53492  1.0000
  C   C4655     1.0  0.87444  0.38588  0.46753  1.0000
  H   H5563     1.0  0.77003  0.33306  0.38630  1.0000
  H   H5564     1.0  0.85065  0.22697  0.38925  1.0000
  H   H5565     1.0  0.82434  0.37947  0.51715  1.0000
  N   N310      1.0  0.82886  0.31921  0.42024  1.0000
  C   C4656     1.0  0.83542  0.32946  0.41639  1.0000
  C   C4657     1.0  0.82830  0.31590  0.40896  1.0000
  C   C4658     1.0  0.81607  0.32355  0.42658  1.0000
  C   C4659     1.0  0.83507  0.30891  0.42870  1.0000
  C   C4660     1.0  0.83927  0.29678  0.42660  1.0000
  C   C4661     1.0  0.83688  0.31083  0.43959  1.0000
  C   C4662     1.0  0.84523  0.28732  0.43475  1.0000
  H   H5566     1.0  0.84525  0.32633  0.41217  1.0000
  H   H5567     1.0  0.83124  0.33721  0.40968  1.0000
  H   H5568     1.0  0.83519  0.33343  0.42416  1.0000
  H   H5569     1.0  0.83763  0.31266  0.40365  1.0000
  H   H5570     1.0  0.82371  0.32390  0.40275  1.0000
  H   H5571     1.0  0.82288  0.30869  0.41107  1.0000
  H   H5572     1.0  0.81569  0.32747  0.43446  1.0000
  H   H5573     1.0  0.81082  0.33083  0.42034  1.0000
  H   H5574     1.0  0.81108  0.31590  0.43019  1.0000
  H   H5575     1.0  0.83823  0.29434  0.41867  1.0000
  H   H5576     1.0  0.83377  0.31975  0.44192  1.0000
  H   H5577     1.0  0.84876  0.27823  0.43276  1.0000
  C   C4663     1.0  0.86394  0.37575  0.45923  1.0000
  H   H5578     1.0  0.79663  0.42392  0.55935  1.0000
  H   H5579     1.0  0.85209  0.28234  0.45125  1.0000
  C   C4664     1.0  0.87400  0.41868  0.57170  1.0000
  C   C4665     1.0  0.81890  0.24713  0.39898  1.0000
  H   H5580     1.0  0.80714  0.43025  0.53231  1.0000
  H   H5581     1.0  0.89732  0.33010  0.41946  1.0000
  H   H5582     1.0  0.74636  0.40189  0.56977  1.0000
  H   H5583     1.0  0.91636  0.35354  0.43858  1.0000
  N   N311      1.0  0.87375  0.38270  0.45623  1.0000
  H   H5584     1.0  0.86586  0.39215  0.47116  1.0000
  C   C4666     1.0  0.90512  0.30478  0.40038  1.0000
  C   C4667     1.0  0.85340  0.34704  0.52819  1.0000
  C   C4668     1.0  0.83581  0.45419  0.53546  1.0000
  C   C4669     1.0  0.87996  0.42677  0.57406  1.0000
  C   C4670     1.0  0.79989  0.43735  0.53641  1.0000
  C   C4671     1.0  0.80481  0.42818  0.55623  1.0000
  C   C4672     1.0  0.90310  0.37026  0.43453  1.0000
  H   H5585     1.0  0.94424  0.35970  0.39295  1.0000
  N   N312      1.0  0.80275  0.43984  0.54709  1.0000
  H   H5586     1.0  0.88873  0.08444  0.38395  1.0000
  H   H5587     1.0  0.88226  0.39041  0.46585  1.0000
  C   C4673     1.0  0.90438  0.31738  0.39460  1.0000
  H   H5588     1.0  0.90774  0.37251  0.42501  1.0000
  H   H5589     1.0  0.81048  0.24672  0.39640  1.0000
  H   H5590     1.0  0.84259  0.33690  0.50927  1.0000
  H   H5591     1.0  0.86164  0.33441  0.51622  1.0000
  C   C4674     1.0  0.84008  0.24830  0.39278  1.0000
  H   H5592     1.0  0.84356  0.36047  0.53849  1.0000
  H   H5593     1.0  0.82395  0.35066  0.51673  1.0000
  H   H5594     1.0  0.80758  0.35486  0.53462  1.0000
  H   H5595     1.0  0.81429  0.38532  0.52997  1.0000
  H   H5596     1.0  0.87140  0.38996  0.57680  1.0000
  N   N313      1.0  0.82053  0.36566  0.53341  1.0000
  C   C4675     1.0  0.91809  0.29675  0.38273  1.0000
  H   H5597     1.0  0.79907  0.41968  0.38302  1.0000
  H   H5598     1.0  0.84812  0.37751  0.38639  1.0000
  H   H5599     1.0  0.74816  0.37950  0.57612  1.0000
  C   C4676     1.0  0.82522  0.46057  0.54200  1.0000
  C   C4677     1.0  0.90291  0.30183  0.41337  1.0000
  H   H5600     1.0  0.84853  0.24822  0.38538  1.0000
  C   C4678     1.0  0.90025  0.31092  0.42006  1.0000
  H   H5601     1.0  0.84103  0.36469  0.38982  1.0000
  H   H5602     1.0  0.87922  0.35914  0.38925  1.0000
  C   C4679     1.0  0.87953  0.10964  0.38220  1.0000
  H   H5603     1.0  0.78344  0.44403  0.55552  1.0000
  H   H5604     1.0  0.78951  0.45706  0.54614  1.0000
  H   H5605     1.0  0.86579  0.36703  0.46600  1.0000
  C   C4680     1.0  0.86171  0.34669  0.39119  1.0000
  C   C4681     1.0  0.90793  0.35953  0.44213  1.0000
  H   H5606     1.0  0.80683  0.42966  0.56444  1.0000
  H   H5607     1.0  0.86820  0.31204  0.38985  1.0000
  C   C4682     1.0  0.79170  0.44816  0.55263  1.0000
  H   H5608     1.0  0.90299  0.29260  0.41864  1.0000
  H   H5609     1.0  0.86572  0.41618  0.57762  1.0000
  H   H5610     1.0  0.89849  0.30849  0.42998  1.0000
  C   C4683     1.0  0.89077  0.36396  0.45875  1.0000
  H   H5611     1.0  0.85482  0.38102  0.46321  1.0000
  H   H5612     1.0  0.86841  0.39259  0.43921  1.0000
  C   C4684     1.0  0.86625  0.32157  0.39040  1.0000
  C   C4685     1.0  0.90176  0.35637  0.45422  1.0000
  H   H5613     1.0  0.83039  0.38012  0.52950  1.0000
  H   H5614     1.0  0.96035  0.35628  0.39267  1.0000
  H   H5615     1.0  0.81822  0.35475  0.55178  1.0000
  C   C4686     1.0  0.79192  0.39144  0.56200  1.0000
  C   C4687     1.0  0.88387  0.10576  0.39327  1.0000
  H   H5616     1.0  0.78809  0.31385  0.40204  1.0000
  S   S1254     1.0  0.82486  0.28132  0.39858  1.0000
  C   C4688     1.0  0.84711  0.28960  0.44519  1.0000
  C   C4689     1.0  0.79770  0.31162  0.39770  1.0000
  H   H5617     1.0  0.84456  0.30312  0.45566  1.0000
  H   H5618     1.0  0.88862  0.38575  0.43237  1.0000
  C   C4690     1.0  0.81590  0.31788  0.38414  1.0000
  H   H5619     1.0  0.91782  0.28082  0.40450  1.0000
  C   C4691     1.0  0.87005  0.39434  0.44755  1.0000
  C   C4692     1.0  0.85326  0.34033  0.51997  1.0000
  C   C4693     1.0  0.89514  0.42437  0.55499  1.0000
  C   C4694     1.0  0.89204  0.37786  0.43892  1.0000
  C   C4695     1.0  0.80435  0.29953  0.40022  1.0000
  H   H5620     1.0  0.81497  0.37942  0.57754  1.0000
  C   C4696     1.0  0.80344  0.32083  0.38973  1.0000
  H   H5621     1.0  0.90544  0.34791  0.46008  1.0000
  H   H5622     1.0  0.80668  0.44322  0.57552  1.0000
  C   C4697     1.0  0.85713  0.36147  0.40410  1.0000
  Fe  Fe631     1.0  0.84558  0.47369  0.57667  1.0000
  H   H5623     1.0  0.90176  0.28048  0.40745  1.0000
  C   C4698     1.0  0.86986  0.33758  0.39784  1.0000
  H   H5624     1.0  0.86127  0.40003  0.45165  1.0000
  H   H5625     1.0  0.83784  0.25728  0.39548  1.0000
  S   S1255     1.0  0.91986  0.35321  0.39260  1.0000
  C   C4699     1.0  0.89961  0.32315  0.41413  1.0000
  S   S1256     1.0  0.85837  0.26286  0.40002  1.0000
  H   H5626     1.0  0.88621  0.36097  0.46812  1.0000
  H   H5627     1.0  0.83217  0.30342  0.38229  1.0000
  H   H5628     1.0  0.87714  0.40000  0.44475  1.0000
  H   H5629     1.0  0.91860  0.11192  0.38803  1.0000
  H   H5630     1.0  0.86503  0.35738  0.40864  1.0000
  H   H5631     1.0  0.85479  0.37133  0.40455  1.0000
  H   H5632     1.0  0.84925  0.35732  0.40974  1.0000
  C   C4700     1.0  0.87852  0.41370  0.56126  1.0000
  H   H5633     1.0  0.87483  0.33996  0.40319  1.0000
  C   C4701     1.0  0.84275  0.35511  0.53261  1.0000
  C   C4702     1.0  0.88558  0.37499  0.45127  1.0000
  C   C4703     1.0  0.83155  0.35663  0.52903  1.0000
  C   C4704     1.0  0.90984  0.28262  0.40019  1.0000
  H   H5634     1.0  0.81684  0.25586  0.40220  1.0000
  H   H5635     1.0  0.80086  0.37070  0.53489  1.0000
  H   H5636     1.0  0.88126  0.44951  0.57572  1.0000
  H   H5637     1.0  0.87560  0.37773  0.47513  1.0000
  H   H5638     1.0  0.79880  0.44579  0.52910  1.0000
  H   H5639     1.0  0.85753  0.10491  0.38403  1.0000
  C   C4705     1.0  0.81443  0.45607  0.54584  1.0000
  H   H5640     1.0  0.89221  0.41299  0.54463  1.0000
  H   H5641     1.0  0.75488  0.34224  0.39044  1.0000
  H   H5642     1.0  0.86308  0.37337  0.45090  1.0000
  S   S1257     1.0  0.79464  0.33585  0.38708  1.0000
  C   C4706     1.0  0.82258  0.30570  0.38666  1.0000
  H   H5643     1.0  0.80960  0.37033  0.55050  1.0000
  H   H5644     1.0  0.82048  0.23939  0.40690  1.0000
  C   C4707     1.0  0.87143  0.36399  0.38468  1.0000
  H   H5645     1.0  0.84416  0.45771  0.53251  1.0000
  C   C4708     1.0  0.81399  0.44491  0.54322  1.0000
  H   H5646     1.0  0.86195  0.34641  0.53072  1.0000
  H   H5647     1.0  0.82555  0.36730  0.54952  1.0000
  H   H5648     1.0  0.82544  0.46903  0.54417  1.0000
  C   C4709     1.0  0.81679  0.29653  0.39478  1.0000
  H   H5649     1.0  0.88811  0.29604  0.39563  1.0000
  N   N314      1.0  0.85996  0.35978  0.39135  1.0000
  H   H5650     1.0  0.87043  0.37399  0.38386  1.0000
  H   H5651     1.0  0.90320  0.42671  0.54835  1.0000
  C   C4710     1.0  0.88902  0.41658  0.55291  1.0000
  H   H5652     1.0  0.93349  0.10193  0.38622  1.0000
  H   H5653     1.0  0.79282  0.45003  0.56110  1.0000
  C   C4711     1.0  0.87897  0.08812  0.38316  1.0000
  H   H5654     1.0  0.88545  0.09629  0.39807  1.0000
  H   H5655     1.0  0.86619  0.44929  0.57471  1.0000
  C   C4712     1.0  0.79797  0.38462  0.57141  1.0000
  C   C4713     1.0  0.88616  0.11419  0.39857  1.0000
  C   C4714     1.0  0.89632  0.29722  0.38812  1.0000
  C   C4715     1.0  0.87202  0.32522  0.39747  1.0000
  S   S1258     1.0  0.85511  0.29274  0.39258  1.0000
  S   S1259     1.0  0.85011  0.38013  0.57804  1.0000
  H   H5656     1.0  0.84391  0.40776  0.57789  1.0000
  N   N315      1.0  0.82975  0.24650  0.38869  1.0000
  H   H5657     1.0  0.88931  0.11109  0.40709  1.0000
  H   H5658     1.0  0.89973  0.37310  0.38679  1.0000
  H   H5659     1.0  0.87288  0.08705  0.39243  1.0000
  C   C4716     1.0  0.95320  0.36197  0.38752  1.0000
  H   H5660     1.0  0.82452  0.40689  0.57340  1.0000
  C   C4717     1.0  0.88417  0.12664  0.39308  1.0000
  C   C4718     1.0  0.89074  0.42937  0.56543  1.0000
  H   H5661     1.0  0.90144  0.33592  0.39683  1.0000
  H   H5662     1.0  0.84228  0.24120  0.40095  1.0000
  C   C4719     1.0  0.85821  0.33024  0.38377  1.0000
  H   H5663     1.0  0.92636  0.29643  0.38603  1.0000
  H   H5664     1.0  0.91186  0.27582  0.39436  1.0000
  C   C4720     1.0  0.87287  0.44602  0.58081  1.0000
  C   C4721     1.0  0.85604  0.34265  0.38399  1.0000
  H   H5665     1.0  0.79777  0.39922  0.38252  1.0000
  H   H5666     1.0  0.76837  0.34800  0.38851  1.0000
  C   C4722     1.0  0.84979  0.36782  0.38554  1.0000
  H   H5667     1.0  0.91006  0.09718  0.38181  1.0000
  H   H5668     1.0  0.94692  0.34432  0.38230  1.0000
  C   C4723     1.0  0.84556  0.21472  0.38202  1.0000
  H   H5669     1.0  0.89754  0.29045  0.38245  1.0000
  H   H5670     1.0  0.85425  0.20822  0.38233  1.0000
  H   H5671     1.0  0.89415  0.30652  0.38227  1.0000
  C   C4724     1.0  0.87994  0.13071  0.38225  1.0000
  H   H5672     1.0  0.92519  0.08748  0.38150  1.0000
  C   C4725     1.0  0.92722  0.10952  0.38125  1.0000
  H   H5673     1.0  0.78211  0.40502  0.38125  1.0000
  Fe  Fe632     1.0  0.89829  0.38455  0.72908  1.0000
  S   S1260     1.0  0.88333  0.39294  0.74323  1.0000
  S   S1261     1.0  0.89397  0.39022  0.70987  1.0000
  Fe  Fe633     1.0  0.91532  0.37331  0.74776  1.0000
  S   S1262     1.0  0.90116  0.38050  0.76286  1.0000
  S   S1263     1.0  0.93341  0.36301  0.75316  1.0000
  Fe  Fe634     1.0  0.88795  0.37477  0.75579  1.0000
  S   S1264     1.0  0.87293  0.36610  0.76886  1.0000
  Fe  Fe635     1.0  0.89816  0.39777  0.74873  1.0000
  S   S1265     1.0  0.89843  0.41488  0.75397  1.0000
  S   S1266     1.0  0.90225  0.36593  0.74160  1.0000
  S   S1267     1.0  0.91300  0.39098  0.73374  1.0000
  S   S1268     1.0  0.76204  0.38853  0.61030  1.0000
  Fe  Fe636     1.0  0.77416  0.41870  0.59385  1.0000
  S   S1269     1.0  0.78584  0.40173  0.60284  1.0000
  N   N316      1.0  0.87533  0.43246  0.58486  1.0000
  H   H5674     1.0  0.96688  0.38002  0.75544  1.0000
  Fe  Fe637     1.0  0.76928  0.40049  0.61791  1.0000
  S   S1270     1.0  0.77193  0.39651  0.63734  1.0000
  H   H5675     1.0  0.81718  0.34636  0.60422  1.0000
  H   H5676     1.0  0.84507  0.38225  0.72453  1.0000
  H   H5677     1.0  0.92821  0.36665  0.77813  1.0000
  Fe  Fe638     1.0  0.84863  0.46465  0.60256  1.0000
  S   S1271     1.0  0.86074  0.45081  0.61412  1.0000
  Fe  Fe639     1.0  0.85776  0.38860  0.63841  1.0000
  S   S1272     1.0  0.83749  0.39556  0.64121  1.0000
  S   S1273     1.0  0.86918  0.39223  0.61906  1.0000
  Fe  Fe640     1.0  0.85660  0.37900  0.66615  1.0000
  S   S1274     1.0  0.83595  0.38501  0.67076  1.0000
  S   S1275     1.0  0.86778  0.36872  0.68083  1.0000
  Fe  Fe641     1.0  0.83605  0.37792  0.65453  1.0000
  S   S1276     1.0  0.82200  0.36803  0.65380  1.0000
  Fe  Fe642     1.0  0.83919  0.40210  0.65691  1.0000
  S   S1277     1.0  0.82826  0.42099  0.65817  1.0000
  S   S1278     1.0  0.85644  0.37023  0.65095  1.0000
  S   S1279     1.0  0.85976  0.39668  0.65315  1.0000
  H   H5678     1.0  0.90346  0.39923  0.67789  1.0000
  S   S1280     1.0  0.75761  0.41808  0.60938  1.0000
  C   C4726     1.0  0.87023  0.39136  0.59530  1.0000
  C   C4727     1.0  0.86370  0.38936  0.60751  1.0000
  C   C4728     1.0  0.85287  0.38508  0.61037  1.0000
  C   C4729     1.0  0.84876  0.38258  0.60118  1.0000
  H   H5679     1.0  0.79589  0.40536  0.68237  1.0000
  H   H5680     1.0  0.87866  0.39463  0.59300  1.0000
  H   H5681     1.0  0.84773  0.38349  0.61971  1.0000
  H   H5682     1.0  0.81230  0.40636  0.65613  1.0000
  C   C4730     1.0  0.85149  0.44351  0.62706  1.0000
  C   C4731     1.0  0.85691  0.43475  0.63603  1.0000
  C   C4732     1.0  0.84961  0.42838  0.64608  1.0000
  C   C4733     1.0  0.83691  0.43074  0.64716  1.0000
  C   C4734     1.0  0.83143  0.43987  0.63846  1.0000
  C   C4735     1.0  0.83873  0.44612  0.62830  1.0000
  H   H5683     1.0  0.86675  0.43281  0.63517  1.0000
  H   H5684     1.0  0.85382  0.42169  0.65305  1.0000
  H   H5685     1.0  0.82164  0.44168  0.63925  1.0000
  H   H5686     1.0  0.83448  0.45276  0.62135  1.0000
  H   H5687     1.0  0.90371  0.39490  0.77980  1.0000
  C   C4736     1.0  0.80000  0.35423  0.64196  1.0000
  N   N317      1.0  0.79332  0.41291  0.66384  1.0000
  C   C4737     1.0  0.79874  0.45887  0.59831  1.0000
  C   C4738     1.0  0.96092  0.34340  0.76556  1.0000
  H   H5688     1.0  0.84072  0.42710  0.60944  1.0000
  H   H5689     1.0  0.77442  0.44502  0.60443  1.0000
  H   H5690     1.0  0.77972  0.40566  0.65980  1.0000
  C   C4739     1.0  0.79096  0.44649  0.63619  1.0000
  C   C4740     1.0  0.78621  0.38892  0.64134  1.0000
  C   C4741     1.0  0.79751  0.38944  0.63306  1.0000
  C   C4742     1.0  0.80863  0.38342  0.63690  1.0000
  C   C4743     1.0  0.80844  0.37680  0.64898  1.0000
  C   C4744     1.0  0.79715  0.37632  0.65717  1.0000
  C   C4745     1.0  0.78614  0.38249  0.65343  1.0000
  H   H5691     1.0  0.79769  0.39445  0.62375  1.0000
  H   H5692     1.0  0.81733  0.38352  0.63046  1.0000
  H   H5693     1.0  0.79691  0.37105  0.66643  1.0000
  H   H5694     1.0  0.77747  0.38201  0.65987  1.0000
  C   C4746     1.0  0.84936  0.40181  0.75367  1.0000
  C   C4747     1.0  0.94061  0.36968  0.76065  1.0000
  C   C4748     1.0  0.95154  0.37350  0.75436  1.0000
  C   C4749     1.0  0.82991  0.35836  0.61155  1.0000
  H   H5695     1.0  0.81668  0.43838  0.62110  1.0000
  H   H5696     1.0  0.78183  0.45924  0.61191  1.0000
  C   C4750     1.0  0.83507  0.41443  0.59440  1.0000
  H   H5697     1.0  0.95298  0.40343  0.75276  1.0000
  H   H5698     1.0  0.85965  0.41765  0.72521  1.0000
  C   C4751     1.0  0.89173  0.34852  0.77722  1.0000
  H   H5699     1.0  0.89753  0.35159  0.76852  1.0000
  C   C4752     1.0  0.88618  0.41867  0.76594  1.0000
  H   H5700     1.0  0.81616  0.41668  0.63327  1.0000
  C   C4753     1.0  0.78788  0.35867  0.64067  1.0000
  H   H5701     1.0  0.79943  0.45304  0.64672  1.0000
  H   H5702     1.0  0.80194  0.35009  0.65098  1.0000
  C   C4754     1.0  0.88583  0.38412  0.70273  1.0000
  C   C4755     1.0  0.88666  0.37150  0.70462  1.0000
  C   C4756     1.0  0.88092  0.36699  0.69798  1.0000
  C   C4757     1.0  0.87430  0.37500  0.68935  1.0000
  C   C4758     1.0  0.87327  0.38763  0.68763  1.0000
  C   C4759     1.0  0.87902  0.39214  0.69427  1.0000
  H   H5703     1.0  0.89206  0.36517  0.71089  1.0000
  H   H5704     1.0  0.88183  0.35720  0.69936  1.0000
  H   H5705     1.0  0.86826  0.39393  0.68101  1.0000
  H   H5706     1.0  0.87839  0.40191  0.69263  1.0000
  H   H5707     1.0  0.88689  0.41840  0.59556  1.0000
  H   H5708     1.0  0.84153  0.37141  0.74786  1.0000
  N   N318      1.0  0.89756  0.37587  0.64612  1.0000
  C   C4760     1.0  0.89367  0.38409  0.63496  1.0000
  C   C4761     1.0  0.88814  0.36847  0.65238  1.0000
  H   H5709     1.0  0.89262  0.37885  0.62870  1.0000
  H   H5710     1.0  0.88454  0.39023  0.63722  1.0000
  H   H5711     1.0  0.90046  0.38981  0.62963  1.0000
  H   H5712     1.0  0.90870  0.36282  0.63519  1.0000
  H   H5713     1.0  0.87929  0.37441  0.65585  1.0000
  H   H5714     1.0  0.88640  0.36359  0.64619  1.0000
  H   H5715     1.0  0.89066  0.36141  0.66044  1.0000
  H   H5716     1.0  0.90491  0.36598  0.66799  1.0000
  H   H5717     1.0  0.80122  0.43435  0.66230  1.0000
  H   H5718     1.0  0.83130  0.36317  0.61801  1.0000
  H   H5719     1.0  0.85567  0.41902  0.77671  1.0000
  C   C4762     1.0  0.89811  0.40144  0.66092  1.0000
  C   C4763     1.0  0.83553  0.42060  0.61636  1.0000
  N   N319      1.0  0.81741  0.36300  0.60891  1.0000
  H   H5720     1.0  0.93654  0.42273  0.73817  1.0000
  C   C4764     1.0  0.82382  0.41808  0.60255  1.0000
  C   C4765     1.0  0.85117  0.39025  0.75111  1.0000
  C   C4766     1.0  0.90489  0.38189  0.67370  1.0000
  H   H5721     1.0  0.92414  0.41455  0.74339  1.0000
  H   H5722     1.0  0.80540  0.41571  0.67369  1.0000
  H   H5723     1.0  0.84389  0.41423  0.59597  1.0000
  C   C4767     1.0  0.95841  0.37719  0.76046  1.0000
  H   H5724     1.0  0.80167  0.40200  0.65027  1.0000
  C   C4768     1.0  0.91279  0.44451  0.77248  1.0000
  H   H5725     1.0  0.91594  0.43270  0.74806  1.0000
  H   H5726     1.0  0.77368  0.41578  0.67029  1.0000
  H   H5727     1.0  0.78920  0.42150  0.67918  1.0000
  H   H5728     1.0  0.93015  0.40057  0.77431  1.0000
  C   C4769     1.0  0.79601  0.44544  0.64609  1.0000
  N   N320      1.0  0.82325  0.42190  0.61388  1.0000
  S   S1281     1.0  0.83200  0.47795  0.60981  1.0000
  H   H5729     1.0  0.89592  0.41138  0.65931  1.0000
  C   C4770     1.0  0.89644  0.39553  0.65266  1.0000
  C   C4771     1.0  0.78679  0.43668  0.63517  1.0000
  H   H5730     1.0  0.77591  0.36805  0.62826  1.0000
  H   H5731     1.0  0.84035  0.37939  0.60350  1.0000
  Fe  Fe643     1.0  0.75184  0.40610  0.60022  1.0000
  Fe  Fe644     1.0  0.82316  0.47278  0.59735  1.0000
  H   H5732     1.0  0.78041  0.35795  0.64863  1.0000
  C   C4772     1.0  0.90240  0.39464  0.67136  1.0000
  H   H5733     1.0  0.79248  0.37018  0.61024  1.0000
  H   H5734     1.0  0.80771  0.35976  0.59698  1.0000
  C   C4773     1.0  0.81287  0.41794  0.59935  1.0000
  H   H5735     1.0  0.83720  0.35979  0.60309  1.0000
  H   H5736     1.0  0.84107  0.41108  0.61665  1.0000
  H   H5737     1.0  0.84599  0.40304  0.76300  1.0000
  H   H5738     1.0  0.80764  0.38009  0.59946  1.0000
  C   C4774     1.0  0.95470  0.37680  0.77305  1.0000
  H   H5739     1.0  0.86333  0.39765  0.72047  1.0000
  H   H5740     1.0  0.83482  0.42266  0.62536  1.0000
  C   C4775     1.0  0.81654  0.35630  0.60008  1.0000
  H   H5741     1.0  0.94893  0.40759  0.76701  1.0000
  H   H5742     1.0  0.91685  0.37268  0.63794  1.0000
  C   C4776     1.0  0.81626  0.41440  0.62453  1.0000
  C   C4777     1.0  0.89906  0.38250  0.65469  1.0000
  C   C4778     1.0  0.92709  0.42431  0.76199  1.0000
  H   H5743     1.0  0.85101  0.42058  0.74639  1.0000
  C   C4779     1.0  0.79495  0.36568  0.61894  1.0000
  C   C4780     1.0  0.80743  0.36137  0.61991  1.0000
  C   C4781     1.0  0.80968  0.35556  0.63179  1.0000
  H   H5744     1.0  0.90409  0.44987  0.75716  1.0000
  H   H5745     1.0  0.85505  0.36473  0.75434  1.0000
  Fe  Fe645     1.0  0.77770  0.39153  0.59441  1.0000
  C   C4782     1.0  0.78743  0.45550  0.60414  1.0000
  H   H5746     1.0  0.82391  0.37786  0.59500  1.0000
  H   H5747     1.0  0.80438  0.39452  0.66524  1.0000
  C   C4783     1.0  0.86378  0.42909  0.59276  1.0000
  H   H5748     1.0  0.95488  0.37332  0.74476  1.0000
  C   C4784     1.0  0.92148  0.43583  0.77830  1.0000
  H   H5749     1.0  0.87296  0.41305  0.75986  1.0000
  C   C4785     1.0  0.88812  0.42364  0.77477  1.0000
  C   C4786     1.0  0.90935  0.36753  0.64210  1.0000
  C   C4787     1.0  0.87921  0.35394  0.77966  1.0000
  C   C4788     1.0  0.85155  0.36739  0.74575  1.0000
  H   H5750     1.0  0.90718  0.45208  0.77664  1.0000
  H   H5751     1.0  0.93950  0.40630  0.74053  1.0000
  C   C4789     1.0  0.87156  0.37069  0.73478  1.0000
  S   S1282     1.0  0.79002  0.37687  0.58499  1.0000
  H   H5752     1.0  0.91900  0.40435  0.76497  1.0000
  H   H5753     1.0  0.87412  0.36180  0.73183  1.0000
  C   C4790     1.0  0.94366  0.37312  0.77942  1.0000
  H   H5754     1.0  0.87448  0.36904  0.74354  1.0000
  C   C4791     1.0  0.85578  0.38831  0.73898  1.0000
  H   H5755     1.0  0.78181  0.40025  0.67494  1.0000
  C   C4792     1.0  0.93355  0.41436  0.74423  1.0000
  C   C4793     1.0  0.85890  0.39853  0.72974  1.0000
  H   H5756     1.0  0.82035  0.40447  0.62507  1.0000
  H   H5757     1.0  0.85542  0.36783  0.72267  1.0000
  C   C4794     1.0  0.78761  0.42580  0.64410  1.0000
  C   C4795     1.0  0.85468  0.37700  0.72445  1.0000
  H   H5758     1.0  0.78288  0.43751  0.62742  1.0000
  C   C4796     1.0  0.92897  0.40266  0.76472  1.0000
  C   C4797     1.0  0.97015  0.34614  0.76927  1.0000
  C   C4798     1.0  0.85700  0.41006  0.73240  1.0000
  H   H5759     1.0  0.79041  0.45492  0.62925  1.0000
  S   S1283     1.0  0.80425  0.46808  0.60466  1.0000
  C   C4799     1.0  0.81621  0.37621  0.60300  1.0000
  H   H5760     1.0  0.96147  0.34429  0.75591  1.0000
  C   C4800     1.0  0.80333  0.40353  0.65864  1.0000
  H   H5761     1.0  0.84923  0.38290  0.75885  1.0000
  H   H5762     1.0  0.87712  0.37695  0.72799  1.0000
  N   N321      1.0  0.85826  0.37606  0.73609  1.0000
  H   H5763     1.0  0.81611  0.38169  0.60954  1.0000
  H   H5764     1.0  0.97792  0.34906  0.76255  1.0000
  H   H5765     1.0  0.86076  0.38149  0.71631  1.0000
  H   H5766     1.0  0.82148  0.44091  0.60479  1.0000
  H   H5767     1.0  0.83166  0.34833  0.61551  1.0000
  H   H5768     1.0  0.80649  0.41587  0.62409  1.0000
  C   C4801     1.0  0.79687  0.43462  0.65508  1.0000
  C   C4802     1.0  0.90318  0.37588  0.66556  1.0000
  C   C4803     1.0  0.79242  0.42453  0.65451  1.0000
  N   N322      1.0  0.93413  0.41331  0.75711  1.0000
  C   C4804     1.0  0.95062  0.34013  0.77414  1.0000
  H   H5769     1.0  0.88128  0.43251  0.60089  1.0000
  C   C4805     1.0  0.85221  0.41170  0.74433  1.0000
  C   C4806     1.0  0.81688  0.43494  0.61298  1.0000
  C   C4807     1.0  0.78164  0.40853  0.66735  1.0000
  H   H5770     1.0  0.85277  0.35859  0.74298  1.0000
  H   H5771     1.0  0.80392  0.42101  0.60481  1.0000
  H   H5772     1.0  0.82395  0.35726  0.59168  1.0000
  H   H5773     1.0  0.78449  0.41840  0.64269  1.0000
  H   H5774     1.0  0.89710  0.42509  0.77419  1.0000
  C   C4808     1.0  0.78321  0.44741  0.59993  1.0000
  H   H5775     1.0  0.91226  0.36015  0.64977  1.0000
  C   C4809     1.0  0.91808  0.43333  0.75631  1.0000
  H   H5776     1.0  0.86901  0.45063  0.58868  1.0000
  C   C4810     1.0  0.85541  0.38422  0.58903  1.0000
  C   C4811     1.0  0.87452  0.41680  0.76673  1.0000
  H   H5777     1.0  0.89296  0.40138  0.64485  1.0000
  C   C4812     1.0  0.78536  0.36439  0.62918  1.0000
  C   C4813     1.0  0.88464  0.42857  0.59252  1.0000
  C   C4814     1.0  0.79602  0.41399  0.67525  1.0000
  H   H5778     1.0  0.80719  0.43644  0.61230  1.0000
  C   C4815     1.0  0.86610  0.38880  0.58608  1.0000
  H   H5779     1.0  0.90782  0.37667  0.68207  1.0000
  H   H5780     1.0  0.95117  0.41922  0.75320  1.0000
  C   C4816     1.0  0.86475  0.42021  0.77623  1.0000
  C   C4817     1.0  0.92843  0.42578  0.77326  1.0000
  C   C4818     1.0  0.93659  0.36967  0.77320  1.0000
  C   C4819     1.0  0.94732  0.41087  0.75754  1.0000
  C   C4820     1.0  0.91111  0.44328  0.76150  1.0000
  H   H5781     1.0  0.86055  0.43358  0.60074  1.0000
  H   H5782     1.0  0.94369  0.33852  0.77051  1.0000
  H   H5783     1.0  0.81881  0.35222  0.63360  1.0000
  H   H5784     1.0  0.93344  0.39431  0.76099  1.0000
  S   S1284     1.0  0.83943  0.45835  0.59146  1.0000
  H   H5785     1.0  0.80475  0.41389  0.58666  1.0000
  H   H5786     1.0  0.74964  0.12317  0.77915  1.0000
  H   H5787     1.0  0.85625  0.43210  0.58765  1.0000
  C   C4821     1.0  0.81320  0.41395  0.58893  1.0000
  S   S1285     1.0  0.96389  0.38168  0.78008  1.0000
  H   H5788     1.0  0.93466  0.41905  0.77842  1.0000
  H   H5789     1.0  0.89332  0.43162  0.58761  1.0000
  H   H5790     1.0  0.81436  0.45683  0.58340  1.0000
  C   C4822     1.0  0.79004  0.44297  0.58953  1.0000
  C   C4823     1.0  0.80565  0.45431  0.58799  1.0000
  H   H5791     1.0  0.86512  0.41903  0.59663  1.0000
  S   S1286     1.0  0.85644  0.47870  0.58724  1.0000
  S   S1287     1.0  0.76746  0.40844  0.58389  1.0000
  C   C4824     1.0  0.83524  0.41063  0.58392  1.0000
  C   C4825     1.0  0.80125  0.44653  0.58356  1.0000
  S   S1288     1.0  0.78436  0.43393  0.58309  1.0000
  C   C4826     1.0  0.82435  0.41017  0.58133  1.0000
  Fe  Fe646     1.0  0.95470  0.37902  0.82556  1.0000
  S   S1289     1.0  0.97069  0.38488  0.81130  1.0000
  S   S1290     1.0  0.94117  0.39026  0.83831  1.0000
  Fe  Fe647     1.0  0.96145  0.35331  0.82116  1.0000
  S   S1291     1.0  0.97816  0.35685  0.80675  1.0000
  S   S1292     1.0  0.95517  0.33558  0.82593  1.0000
  H   H5792     1.0  0.77944  0.12699  0.88287  1.0000
  Fe  Fe648     1.0  0.96555  0.37459  0.80000  1.0000
  H   H5793     1.0  0.86204  0.35398  0.79279  1.0000
  S   S1293     1.0  0.96576  0.36151  0.83433  1.0000
  S   S1294     1.0  0.94878  0.37035  0.81374  1.0000
  Fe  Fe649     1.0  0.86211  0.43113  0.81235  1.0000
  S   S1295     1.0  0.85081  0.43238  0.83115  1.0000
  S   S1296     1.0  0.85478  0.42824  0.79759  1.0000
  Fe  Fe650     1.0  0.88545  0.43270  0.81851  1.0000
  S   S1297     1.0  0.87631  0.43423  0.83782  1.0000
  S   S1298     1.0  0.90533  0.43223  0.80969  1.0000
  Fe  Fe651     1.0  0.86724  0.41938  0.83756  1.0000
  S   S1299     1.0  0.86771  0.40173  0.85179  1.0000
  Fe  Fe652     1.0  0.86077  0.44715  0.82967  1.0000
  S   S1300     1.0  0.85144  0.46649  0.83199  1.0000
  S   S1301     1.0  0.87766  0.41694  0.81886  1.0000
  S   S1302     1.0  0.87081  0.44678  0.81026  1.0000
  Fe  Fe653     1.0  0.88576  0.32659  0.82723  1.0000
  S   S1303     1.0  0.86616  0.32516  0.83545  1.0000
  S   S1304     1.0  0.89588  0.32361  0.80854  1.0000
  Fe  Fe654     1.0  0.88920  0.33327  0.84943  1.0000
  S   S1305     1.0  0.87007  0.33199  0.85979  1.0000
  S   S1306     1.0  0.90075  0.34099  0.85690  1.0000
  Fe  Fe655     1.0  0.87329  0.31507  0.85241  1.0000
  S   S1307     1.0  0.87014  0.29661  0.86388  1.0000
  Fe  Fe656     1.0  0.86486  0.34218  0.84197  1.0000
  S   S1308     1.0  0.85026  0.35947  0.84059  1.0000
  S   S1309     1.0  0.89310  0.31542  0.84369  1.0000
  S   S1310     1.0  0.88380  0.34448  0.83205  1.0000
  H   H5794     1.0  0.87212  0.24281  0.83857  1.0000
  Fe  Fe657     1.0  0.86285  0.15802  0.93598  1.0000
  S   S1311     1.0  0.85834  0.15070  0.92226  1.0000
  S   S1312     1.0  0.87582  0.17081  0.92962  1.0000
  Fe  Fe658     1.0  0.84576  0.14553  0.95737  1.0000
  S   S1313     1.0  0.83952  0.13716  0.94538  1.0000
  S   S1314     1.0  0.98921  0.15125  0.84402  1.0000
  Fe  Fe659     1.0  0.85944  0.13310  0.93622  1.0000
  S   S1315     1.0  0.86759  0.11456  0.93163  1.0000
  Fe  Fe660     1.0  0.83885  0.15540  0.93235  1.0000
  S   S1316     1.0  0.82480  0.16553  0.92088  1.0000
  S   S1317     1.0  0.86583  0.13990  0.94927  1.0000
  S   S1318     1.0  0.84329  0.16426  0.94505  1.0000
  Fe  Fe661     1.0  0.83764  0.24652  0.86417  1.0000
  S   S1319     1.0  0.83449  0.23383  0.85417  1.0000
  S   S1320     1.0  0.83450  0.26716  0.85697  1.0000
  Fe  Fe662     1.0  0.84527  0.22556  0.88477  1.0000
  S   S1321     1.0  0.84327  0.21116  0.87648  1.0000
  S   S1322     1.0  0.84996  0.22271  0.90299  1.0000
  Fe  Fe663     1.0  0.85213  0.22206  0.85887  1.0000
  S   S1323     1.0  0.86662  0.21300  0.84512  1.0000
  Fe  Fe664     1.0  0.82578  0.22396  0.87263  1.0000
  S   S1324     1.0  0.80928  0.21517  0.87892  1.0000
  S   S1325     1.0  0.85596  0.23528  0.86749  1.0000
  S   S1326     1.0  0.82711  0.23779  0.88226  1.0000
  Fe  Fe665     1.0  0.89934  0.14212  0.84566  1.0000
  S   S1327     1.0  0.89325  0.14176  0.86561  1.0000
  S   S1328     1.0  0.88528  0.14686  0.83393  1.0000
  Fe  Fe666     1.0  0.92658  0.13717  0.84653  1.0000
  S   S1329     1.0  0.92246  0.13654  0.86669  1.0000
  S   S1330     1.0  0.94558  0.13429  0.83444  1.0000
  Fe  Fe667     1.0  0.90877  0.12560  0.86787  1.0000
  S   S1331     1.0  0.90612  0.10865  0.88230  1.0000
  Fe  Fe668     1.0  0.90730  0.15280  0.86257  1.0000
  S   S1332     1.0  0.90102  0.16814  0.87263  1.0000
  S   S1333     1.0  0.91389  0.12488  0.84800  1.0000
  S   S1334     1.0  0.91251  0.15440  0.84226  1.0000
  Fe  Fe669     1.0  0.80370  0.13956  0.87950  1.0000
  S   S1335     1.0  0.80551  0.12541  0.86891  1.0000
  S   S1336     1.0  0.80414  0.13253  0.89939  1.0000
  Fe  Fe670     1.0  0.80302  0.16042  0.85724  1.0000
  S   S1337     1.0  0.80445  0.14792  0.84489  1.0000
  S   S1338     1.0  0.80391  0.18009  0.84808  1.0000
  Fe  Fe671     1.0  0.79075  0.13890  0.86004  1.0000
  S   S1339     1.0  0.77226  0.13488  0.86025  1.0000
  Fe  Fe672     1.0  0.81897  0.13561  0.85491  1.0000
  S   S1340     1.0  0.83728  0.12593  0.84541  1.0000
  S   S1341     1.0  0.78817  0.15260  0.87165  1.0000
  S   S1342     1.0  0.81829  0.14859  0.86627  1.0000
  H   H5795     1.0  0.92490  0.34288  0.81092  1.0000
  H   H5796     1.0  0.85054  0.21086  0.82820  1.0000
  H   H5797     1.0  0.85782  0.28125  0.82986  1.0000
  H   H5798     1.0  0.95811  0.16788  0.80959  1.0000
  C   C4827     1.0  0.76655  0.12560  0.85398  1.0000
  C   C4828     1.0  0.84961  0.48189  0.86485  1.0000
  H   H5799     1.0  0.86307  0.29881  0.83093  1.0000
  C   C4829     1.0  0.75632  0.11167  0.84407  1.0000
  C   C4830     1.0  0.76894  0.11179  0.84058  1.0000
  C   C4831     1.0  0.77404  0.11868  0.84550  1.0000
  H   H5800     1.0  0.92054  0.33263  0.79818  1.0000
  C   C4832     1.0  0.75394  0.12547  0.85749  1.0000
  H   H5801     1.0  0.77483  0.10649  0.83401  1.0000
  H   H5802     1.0  0.78375  0.11865  0.84268  1.0000
  C   C4833     1.0  0.95782  0.13794  0.83810  1.0000
  C   C4834     1.0  0.96970  0.13516  0.83100  1.0000
  C   C4835     1.0  0.97953  0.13861  0.83316  1.0000
  C   C4836     1.0  0.97747  0.14522  0.84222  1.0000
  C   C4837     1.0  0.96566  0.14767  0.84958  1.0000
  C   C4838     1.0  0.95588  0.14395  0.84760  1.0000
  H   H5803     1.0  0.97130  0.13033  0.82376  1.0000
  N   N323      1.0  0.85711  0.15543  0.88523  1.0000
  H   H5804     1.0  0.96402  0.15266  0.85668  1.0000
  H   H5805     1.0  0.94678  0.14605  0.85319  1.0000
  C   C4839     1.0  0.87261  0.13978  0.83859  1.0000
  C   C4840     1.0  0.87157  0.13218  0.83159  1.0000
  C   C4841     1.0  0.86074  0.12792  0.83391  1.0000
  C   C4842     1.0  0.85075  0.13136  0.84314  1.0000
  C   C4843     1.0  0.85180  0.13884  0.85030  1.0000
  C   C4844     1.0  0.86268  0.14313  0.84794  1.0000
  H   H5806     1.0  0.87905  0.12981  0.82413  1.0000
  H   H5807     1.0  0.86003  0.12212  0.82835  1.0000
  H   H5808     1.0  0.84420  0.14149  0.85750  1.0000
  H   H5809     1.0  0.86318  0.14957  0.85287  1.0000
  C   C4845     1.0  0.80801  0.20538  0.87028  1.0000
  C   C4846     1.0  0.81166  0.20792  0.85754  1.0000
  C   C4847     1.0  0.81024  0.20017  0.85083  1.0000
  C   C4848     1.0  0.80569  0.18953  0.85683  1.0000
  C   C4849     1.0  0.80249  0.18672  0.86960  1.0000
  C   C4850     1.0  0.80341  0.19476  0.87630  1.0000
  H   H5810     1.0  0.81517  0.21610  0.85285  1.0000
  H   H5811     1.0  0.81254  0.20252  0.84096  1.0000
  H   H5812     1.0  0.79895  0.17856  0.87430  1.0000
  H   H5813     1.0  0.80065  0.19269  0.88616  1.0000
  C   C4851     1.0  0.87655  0.20095  0.85274  1.0000
  C   C4852     1.0  0.87594  0.19953  0.86523  1.0000
  C   C4853     1.0  0.88357  0.18951  0.87132  1.0000
  C   C4854     1.0  0.89175  0.18087  0.86495  1.0000
  C   C4855     1.0  0.89242  0.18242  0.85247  1.0000
  C   C4856     1.0  0.88494  0.19248  0.84635  1.0000
  H   H5814     1.0  0.86970  0.20619  0.87018  1.0000
  H   H5815     1.0  0.88306  0.18843  0.88098  1.0000
  H   H5816     1.0  0.89886  0.17601  0.84742  1.0000
  H   H5817     1.0  0.88559  0.19360  0.83668  1.0000
  C   C4857     1.0  0.86885  0.18511  0.92182  1.0000
  C   C4858     1.0  0.86456  0.18614  0.91134  1.0000
  C   C4859     1.0  0.85920  0.19772  0.90509  1.0000
  C   C4860     1.0  0.85772  0.20818  0.90963  1.0000
  C   C4861     1.0  0.86199  0.20709  0.92011  1.0000
  C   C4862     1.0  0.86771  0.19562  0.92607  1.0000
  H   H5818     1.0  0.86553  0.17804  0.90797  1.0000
  H   H5819     1.0  0.85612  0.19850  0.89690  1.0000
  H   H5820     1.0  0.86085  0.21512  0.92368  1.0000
  H   H5821     1.0  0.87102  0.19484  0.93417  1.0000
  C   C4863     1.0  0.81880  0.15638  0.91516  1.0000
  C   C4864     1.0  0.81902  0.14407  0.92082  1.0000
  C   C4865     1.0  0.81419  0.13690  0.91610  1.0000
  C   C4866     1.0  0.80961  0.14187  0.90542  1.0000
  C   C4867     1.0  0.80956  0.15414  0.89962  1.0000
  C   C4868     1.0  0.81392  0.16145  0.90463  1.0000
  H   H5822     1.0  0.82266  0.14012  0.92899  1.0000
  H   H5823     1.0  0.81418  0.12744  0.92067  1.0000
  H   H5824     1.0  0.80593  0.15808  0.89143  1.0000
  H   H5825     1.0  0.81365  0.17101  0.90026  1.0000
  C   C4869     1.0  0.87823  0.11344  0.91779  1.0000
  C   C4870     1.0  0.88118  0.12383  0.90913  1.0000
  C   C4871     1.0  0.88979  0.12253  0.89815  1.0000
  C   C4872     1.0  0.89558  0.11081  0.89597  1.0000
  C   C4873     1.0  0.89271  0.10046  0.90470  1.0000
  C   C4874     1.0  0.88398  0.10178  0.91551  1.0000
  H   H5826     1.0  0.87709  0.13278  0.91111  1.0000
  H   H5827     1.0  0.89222  0.13054  0.89159  1.0000
  H   H5828     1.0  0.89721  0.09138  0.90309  1.0000
  H   H5829     1.0  0.88180  0.09371  0.92222  1.0000
  H   H5830     1.0  0.91693  0.46029  0.82806  1.0000
  C   C4875     1.0  0.75087  0.09798  0.90104  1.0000
  H   H5831     1.0  0.76479  0.10060  0.87105  1.0000
  H   H5832     1.0  0.79540  0.11111  0.90025  1.0000
  C   C4876     1.0  0.75824  0.10340  0.90482  1.0000
  C   C4877     1.0  0.86084  0.28874  0.86046  1.0000
  C   C4878     1.0  0.86355  0.27591  0.86347  1.0000
  C   C4879     1.0  0.85565  0.26923  0.86225  1.0000
  C   C4880     1.0  0.84498  0.27533  0.85791  1.0000
  C   C4881     1.0  0.84253  0.28820  0.85436  1.0000
  C   C4882     1.0  0.85044  0.29491  0.85564  1.0000
  H   H5833     1.0  0.87171  0.27115  0.86697  1.0000
  H   H5834     1.0  0.85772  0.25939  0.86484  1.0000
  H   H5835     1.0  0.83431  0.29299  0.85095  1.0000
  H   H5836     1.0  0.84823  0.30482  0.85336  1.0000
  C   C4883     1.0  0.85074  0.47207  0.84483  1.0000
  C   C4884     1.0  0.75323  0.09697  0.88892  1.0000
  H   H5837     1.0  0.87568  0.15835  0.88100  1.0000
  H   H5838     1.0  0.82784  0.18840  0.95884  1.0000
  C   C4885     1.0  0.85235  0.46915  0.86585  1.0000
  C   C4886     1.0  0.85305  0.46423  0.85581  1.0000
  H   H5839     1.0  0.86427  0.13608  0.88635  1.0000
  C   C4887     1.0  0.82786  0.20328  0.92929  1.0000
  H   H5840     1.0  0.85406  0.46305  0.87437  1.0000
  H   H5841     1.0  0.85527  0.45440  0.85659  1.0000
  C   C4888     1.0  0.86317  0.39039  0.84767  1.0000
  C   C4889     1.0  0.85292  0.39313  0.84245  1.0000
  C   C4890     1.0  0.84892  0.38364  0.84027  1.0000
  C   C4891     1.0  0.85530  0.37144  0.84311  1.0000
  C   C4892     1.0  0.86578  0.36882  0.84791  1.0000
  C   C4893     1.0  0.86966  0.37826  0.85022  1.0000
  H   H5842     1.0  0.84786  0.40251  0.84045  1.0000
  H   H5843     1.0  0.84083  0.38575  0.83650  1.0000
  H   H5844     1.0  0.87071  0.35945  0.85022  1.0000
  H   H5845     1.0  0.87765  0.37617  0.85409  1.0000
  C   C4894     1.0  0.94026  0.33684  0.83501  1.0000
  C   C4895     1.0  0.93510  0.34643  0.84122  1.0000
  C   C4896     1.0  0.92308  0.34741  0.84828  1.0000
  C   C4897     1.0  0.91603  0.33915  0.84870  1.0000
  C   C4898     1.0  0.92114  0.32968  0.84234  1.0000
  C   C4899     1.0  0.93334  0.32836  0.83575  1.0000
  H   H5846     1.0  0.94045  0.35293  0.84078  1.0000
  H   H5847     1.0  0.91921  0.35465  0.85332  1.0000
  H   H5848     1.0  0.91582  0.32316  0.84279  1.0000
  H   H5849     1.0  0.93740  0.32075  0.83125  1.0000
  C   C4900     1.0  0.93146  0.40228  0.83044  1.0000
  C   C4901     1.0  0.92026  0.40802  0.83686  1.0000
  C   C4902     1.0  0.91215  0.41723  0.83052  1.0000
  C   C4903     1.0  0.91537  0.42086  0.81780  1.0000
  C   C4904     1.0  0.92664  0.41520  0.81142  1.0000
  C   C4905     1.0  0.93461  0.40581  0.81771  1.0000
  H   H5850     1.0  0.91777  0.40524  0.84671  1.0000
  H   H5851     1.0  0.90346  0.42159  0.83550  1.0000
  H   H5852     1.0  0.92913  0.41791  0.80159  1.0000
  H   H5853     1.0  0.94322  0.40134  0.81270  1.0000
  C   C4906     1.0  0.95582  0.17044  0.81832  1.0000
  C   C4907     1.0  0.90465  0.37949  0.79509  1.0000
  H   H5854     1.0  0.86537  0.16525  0.89295  1.0000
  C   C4908     1.0  0.82982  0.18091  0.82313  1.0000
  H   H5855     1.0  0.83755  0.29508  0.88426  1.0000
  H   H5856     1.0  0.87034  0.25254  0.88116  1.0000
  C   C4909     1.0  0.88164  0.11548  0.86719  1.0000
  H   H5857     1.0  0.90530  0.36591  0.81143  1.0000
  H   H5858     1.0  0.87109  0.33765  0.80863  1.0000
  C   C4910     1.0  0.84548  0.19422  0.82826  1.0000
  C   C4911     1.0  0.83631  0.17054  0.84202  1.0000
  H   H5859     1.0  0.96128  0.39646  0.86637  1.0000
  H   H5860     1.0  0.78999  0.09730  0.90264  1.0000
  H   H5861     1.0  0.87126  0.10890  0.89475  1.0000
  H   H5862     1.0  0.82780  0.37209  0.82068  1.0000
  H   H5863     1.0  0.77776  0.11022  0.87721  1.0000
  C   C4912     1.0  0.81201  0.21641  0.91135  1.0000
  C   C4913     1.0  0.81859  0.19890  0.92693  1.0000
  C   C4914     1.0  0.81285  0.19046  0.93666  1.0000
  C   C4915     1.0  0.83110  0.19957  0.94068  1.0000
  C   C4916     1.0  0.81608  0.18691  0.94807  1.0000
  C   C4917     1.0  0.82514  0.19148  0.95008  1.0000
  H   H5864     1.0  0.81972  0.22087  0.91032  1.0000
  H   H5865     1.0  0.80425  0.22003  0.91839  1.0000
  H   H5866     1.0  0.83403  0.20327  0.90439  1.0000
  H   H5867     1.0  0.80610  0.18619  0.93561  1.0000
  H   H5868     1.0  0.87494  0.47589  0.86635  1.0000
  H   H5869     1.0  0.89772  0.28359  0.81010  1.0000
  H   H5870     1.0  0.98526  0.15882  0.81781  1.0000
  C   C4918     1.0  0.75117  0.16318  0.85064  1.0000
  C   C4919     1.0  0.90473  0.47193  0.84002  1.0000
  H   H5871     1.0  0.77909  0.11906  0.91539  1.0000
  C   C4920     1.0  0.77283  0.11457  0.91312  1.0000
  H   H5872     1.0  0.90483  0.40954  0.79131  1.0000
  C   C4921     1.0  0.76530  0.15810  0.83247  1.0000
  C   C4922     1.0  0.86281  0.11137  0.89156  1.0000
  C   C4923     1.0  0.84040  0.11878  0.88428  1.0000
  C   C4924     1.0  0.85207  0.11569  0.89958  1.0000
  C   C4925     1.0  0.84088  0.11936  0.89594  1.0000
  H   H5873     1.0  0.83163  0.12168  0.88151  1.0000
  H   H5874     1.0  0.85244  0.11616  0.90868  1.0000
  H   H5875     1.0  0.83254  0.12259  0.90218  1.0000
  C   C4926     1.0  0.94870  0.17646  0.84123  1.0000
  C   C4927     1.0  0.94096  0.17169  0.83735  1.0000
  H   H5876     1.0  0.94601  0.17851  0.85027  1.0000
  H   H5877     1.0  0.93231  0.17003  0.84332  1.0000
  N   N324      1.0  0.86788  0.36258  0.88521  1.0000
  C   C4928     1.0  0.86525  0.35653  0.89832  1.0000
  C   C4929     1.0  0.87834  0.35444  0.87865  1.0000
  C   C4930     1.0  0.87191  0.37403  0.88419  1.0000
  C   C4931     1.0  0.85679  0.36475  0.88023  1.0000
  C   C4932     1.0  0.84967  0.37669  0.87661  1.0000
  C   C4933     1.0  0.85265  0.35471  0.87913  1.0000
  C   C4934     1.0  0.83934  0.37838  0.87181  1.0000
  C   C4935     1.0  0.84238  0.35653  0.87420  1.0000
  C   C4936     1.0  0.83577  0.36834  0.87050  1.0000
  H   H5878     1.0  0.86290  0.34748  0.89971  1.0000
  H   H5879     1.0  0.87330  0.35485  0.90251  1.0000
  H   H5880     1.0  0.85733  0.36226  0.90355  1.0000
  H   H5881     1.0  0.87700  0.34493  0.88040  1.0000
  H   H5882     1.0  0.88713  0.35351  0.88133  1.0000
  H   H5883     1.0  0.87983  0.35797  0.86860  1.0000
  H   H5884     1.0  0.86496  0.38017  0.88981  1.0000
  H   H5885     1.0  0.88058  0.37212  0.88744  1.0000
  H   H5886     1.0  0.87364  0.37925  0.87454  1.0000
  H   H5887     1.0  0.85207  0.38494  0.87697  1.0000
  H   H5888     1.0  0.85741  0.34537  0.88191  1.0000
  H   H5889     1.0  0.83433  0.38758  0.86866  1.0000
  H   H5890     1.0  0.83970  0.34877  0.87294  1.0000
  H   H5891     1.0  0.82806  0.36973  0.86632  1.0000
  N   N325      1.0  0.90566  0.15030  0.90784  1.0000
  C   C4937     1.0  0.91546  0.15211  0.89663  1.0000
  C   C4938     1.0  0.89369  0.15628  0.90436  1.0000
  C   C4939     1.0  0.90745  0.15667  0.91650  1.0000
  C   C4940     1.0  0.90570  0.13724  0.91367  1.0000
  C   C4941     1.0  0.89744  0.13404  0.92493  1.0000
  C   C4942     1.0  0.91347  0.12743  0.90827  1.0000
  C   C4943     1.0  0.89713  0.12180  0.93053  1.0000
  C   C4944     1.0  0.91304  0.11521  0.91394  1.0000
  C   C4945     1.0  0.90492  0.11241  0.92506  1.0000
  H   H5892     1.0  0.91422  0.14833  0.88932  1.0000
  H   H5893     1.0  0.91527  0.16203  0.89258  1.0000
  H   H5894     1.0  0.92475  0.14780  0.89857  1.0000
  H   H5895     1.0  0.88585  0.15570  0.91234  1.0000
  H   H5896     1.0  0.89219  0.15193  0.89760  1.0000
  H   H5897     1.0  0.89314  0.16622  0.90016  1.0000
  H   H5898     1.0  0.91618  0.15219  0.91965  1.0000
  H   H5899     1.0  0.90763  0.16649  0.91231  1.0000
  H   H5900     1.0  0.89991  0.15678  0.92477  1.0000
  H   H5901     1.0  0.89095  0.14099  0.92939  1.0000
  H   H5902     1.0  0.91980  0.12890  0.89956  1.0000
  H   H5903     1.0  0.89051  0.11958  0.93896  1.0000
  H   H5904     1.0  0.91879  0.10788  0.90951  1.0000
  H   H5905     1.0  0.90437  0.10295  0.92925  1.0000
  C   C4946     1.0  0.86395  0.26204  0.83422  1.0000
  H   H5906     1.0  0.77188  0.16301  0.83352  1.0000
  H   H5907     1.0  0.89722  0.26691  0.82614  1.0000
  C   C4947     1.0  0.84451  0.39864  0.80365  1.0000
  H   H5908     1.0  0.85466  0.26051  0.83669  1.0000
  H   H5909     1.0  0.94938  0.32445  0.80917  1.0000
  H   H5910     1.0  0.81181  0.18023  0.95528  1.0000
  H   H5911     1.0  0.95995  0.37695  0.85343  1.0000
  C   C4948     1.0  0.92866  0.33484  0.79094  1.0000
  H   H5912     1.0  0.84993  0.36770  0.81527  1.0000
  H   H5913     1.0  0.78078  0.13175  0.89564  1.0000
  C   C4949     1.0  0.89237  0.47668  0.84550  1.0000
  H   H5914     1.0  0.96693  0.39105  0.83512  1.0000
  H   H5915     1.0  0.98864  0.13636  0.82765  1.0000
  C   C4950     1.0  0.93305  0.34529  0.80386  1.0000
  H   H5916     1.0  0.86594  0.39586  0.78564  1.0000
  C   C4951     1.0  0.82567  0.39142  0.81292  1.0000
  H   H5917     1.0  0.86954  0.36497  0.80583  1.0000
  H   H5918     1.0  0.98587  0.40612  0.84631  1.0000
  C   C4952     1.0  0.83246  0.37953  0.81583  1.0000
  H   H5919     1.0  0.88157  0.37087  0.80721  1.0000
  N   N326      1.0  0.88053  0.28882  0.82257  1.0000
  H   H5920     1.0  0.89330  0.24616  0.83334  1.0000
  H   H5921     1.0  0.83592  0.19791  0.83174  1.0000
  H   H5922     1.0  0.88132  0.29013  0.84041  1.0000
  H   H5923     1.0  0.75586  0.10391  0.91433  1.0000
  H   H5924     1.0  0.98585  0.17510  0.82740  1.0000
  N   N327      1.0  0.90491  0.38001  0.82778  1.0000
  C   C4953     1.0  0.89722  0.38966  0.83450  1.0000
  C   C4954     1.0  0.90015  0.36864  0.83373  1.0000
  C   C4955     1.0  0.90481  0.38390  0.81457  1.0000
  C   C4956     1.0  0.90497  0.37554  0.80752  1.0000
  C   C4957     1.0  0.84530  0.37713  0.81274  1.0000
  H   H5925     1.0  0.75678  0.10594  0.80324  1.0000
  H   H5926     1.0  0.88786  0.39266  0.83252  1.0000
  H   H5927     1.0  0.89612  0.38646  0.84458  1.0000
  H   H5928     1.0  0.90124  0.39786  0.83230  1.0000
  H   H5929     1.0  0.89094  0.36952  0.83199  1.0000
  H   H5930     1.0  0.89923  0.36647  0.84382  1.0000
  H   H5931     1.0  0.80912  0.21963  0.90242  1.0000
  H   H5932     1.0  0.86814  0.14522  0.87158  1.0000
  C   C4958     1.0  0.98970  0.39780  0.85217  1.0000
  C   C4959     1.0  0.85108  0.11436  0.87623  1.0000
  C   C4960     1.0  0.76301  0.10133  0.88051  1.0000
  H   H5933     1.0  0.96575  0.18155  0.83752  1.0000
  H   H5934     1.0  0.74802  0.13074  0.86405  1.0000
  C   C4961     1.0  0.85377  0.20170  0.82635  1.0000
  H   H5935     1.0  0.86645  0.38008  0.78680  1.0000
  N   N328      1.0  0.81555  0.20283  0.91468  1.0000
  C   C4962     1.0  0.82648  0.19858  0.90553  1.0000
  C   C4963     1.0  0.96008  0.17818  0.83375  1.0000
  C   C4964     1.0  0.94455  0.16859  0.82596  1.0000
  H   H5936     1.0  0.97894  0.19087  0.82145  1.0000
  N   N329      1.0  0.86533  0.38462  0.80381  1.0000
  C   C4965     1.0  0.86265  0.11038  0.87970  1.0000
  C   C4966     1.0  0.98351  0.18183  0.81903  1.0000
  H   H5937     1.0  0.82433  0.20036  0.89637  1.0000
  H   H5938     1.0  0.83015  0.18856  0.90828  1.0000
  C   C4967     1.0  0.86631  0.19730  0.82253  1.0000
  H   H5939     1.0  0.94725  0.31687  0.79861  1.0000
  H   H5940     1.0  0.92188  0.38579  0.82452  1.0000
  H   H5941     1.0  0.89076  0.11235  0.86137  1.0000
  H   H5942     1.0  0.88345  0.11794  0.87503  1.0000
  H   H5943     1.0  0.84999  0.11414  0.86737  1.0000
  C   C4968     1.0  0.96397  0.17527  0.82198  1.0000
  N   N330      1.0  0.97571  0.17746  0.81356  1.0000
  C   C4969     1.0  0.88781  0.26590  0.82829  1.0000
  C   C4970     1.0  0.86073  0.14444  0.87983  1.0000
  H   H5944     1.0  0.85281  0.14285  0.87722  1.0000
  H   H5945     1.0  0.96719  0.19549  0.80505  1.0000
  H   H5946     1.0  0.88049  0.48478  0.87311  1.0000
  N   N331      1.0  0.87421  0.10596  0.87132  1.0000
  H   H5947     1.0  0.97839  0.16221  0.80493  1.0000
  N   N332      1.0  0.84060  0.17422  0.82863  1.0000
  H   H5948     1.0  0.84413  0.16573  0.84657  1.0000
  H   H5949     1.0  0.87127  0.14897  0.89567  1.0000
  C   C4971     1.0  0.80526  0.19793  0.91383  1.0000
  H   H5950     1.0  0.80303  0.20131  0.90459  1.0000
  H   H5951     1.0  0.96817  0.18370  0.79732  1.0000
  H   H5952     1.0  0.87691  0.12403  0.86179  1.0000
  H   H5953     1.0  0.88525  0.09606  0.88479  1.0000
  H   H5954     1.0  0.86803  0.11173  0.85432  1.0000
  C   C4972     1.0  0.98311  0.16600  0.80973  1.0000
  C   C4973     1.0  0.87377  0.25206  0.83534  1.0000
  H   H5955     1.0  0.79674  0.20076  0.92052  1.0000
  C   C4974     1.0  0.88308  0.47277  0.84264  1.0000
  H   H5956     1.0  0.86681  0.40304  0.80322  1.0000
  H   H5957     1.0  0.87156  0.30793  0.81824  1.0000
  C   C4975     1.0  0.88144  0.09450  0.87767  1.0000
  C   C4976     1.0  0.87223  0.10330  0.86029  1.0000
  H   H5958     1.0  0.80762  0.18775  0.91534  1.0000
  C   C4977     1.0  0.86782  0.15703  0.88886  1.0000
  H   H5959     1.0  0.83919  0.15176  0.89439  1.0000
  H   H5960     1.0  0.85082  0.14430  0.90293  1.0000
  H   H5961     1.0  0.79281  0.10691  0.88769  1.0000
  H   H5962     1.0  0.87576  0.08748  0.88207  1.0000
  H   H5963     1.0  0.86624  0.09654  0.86280  1.0000
  H   H5964     1.0  0.87003  0.16444  0.86231  1.0000
  H   H5965     1.0  0.83845  0.20279  0.94212  1.0000
  H   H5966     1.0  0.83286  0.20943  0.92225  1.0000
  C   C4978     1.0  0.86948  0.39343  0.80815  1.0000
  C   C4979     1.0  0.90527  0.39614  0.80818  1.0000
  H   H5967     1.0  0.86552  0.39314  0.81804  1.0000
  H   H5968     1.0  0.98701  0.36833  0.86632  1.0000
  H   H5969     1.0  0.88967  0.09045  0.87130  1.0000
  H   H5970     1.0  0.88103  0.09950  0.85442  1.0000
  C   C4980     1.0  0.84759  0.15291  0.89649  1.0000
  C   C4981     1.0  0.85296  0.16652  0.87622  1.0000
  C   C4982     1.0  0.86092  0.16992  0.86480  1.0000
  H   H5971     1.0  0.83477  0.17300  0.88725  1.0000
  C   C4983     1.0  0.87143  0.37210  0.80936  1.0000
  C   C4984     1.0  0.74665  0.11433  0.78342  1.0000
  H   H5972     1.0  0.77352  0.10527  0.91918  1.0000
  H   H5973     1.0  0.87963  0.39158  0.80675  1.0000
  H   H5974     1.0  0.89038  0.29932  0.80639  1.0000
  C   C4985     1.0  0.84141  0.17465  0.87877  1.0000
  C   C4986     1.0  0.85754  0.18079  0.85652  1.0000
  H   H5975     1.0  0.86390  0.18336  0.84801  1.0000
  H   H5976     1.0  0.90645  0.36038  0.83073  1.0000
  C   C4987     1.0  0.78914  0.10701  0.89754  1.0000
  C   C4988     1.0  0.83822  0.18554  0.87045  1.0000
  C   C4989     1.0  0.84627  0.18867  0.85940  1.0000
  H   H5977     1.0  0.86834  0.37013  0.81948  1.0000
  H   H5978     1.0  0.75332  0.12229  0.79952  1.0000
  H   H5979     1.0  0.84495  0.16038  0.90162  1.0000
  H   H5980     1.0  0.97537  0.36848  0.85308  1.0000
  H   H5981     1.0  0.84060  0.25015  0.89551  1.0000
  H   H5982     1.0  0.93872  0.16439  0.82318  1.0000
  C   C4990     1.0  0.86930  0.29867  0.82178  1.0000
  C   C4991     1.0  0.97306  0.18683  0.80253  1.0000
  C   C4992     1.0  0.86690  0.24760  0.89057  1.0000
  H   H5983     1.0  0.87481  0.24080  0.89383  1.0000
  H   H5984     1.0  0.86072  0.24217  0.88978  1.0000
  H   H5985     1.0  0.82341  0.17484  0.82421  1.0000
  N   N333      1.0  0.77623  0.11394  0.90000  1.0000
  H   H5986     1.0  0.83142  0.17858  0.84621  1.0000
  H   H5987     1.0  0.82645  0.41023  0.80440  1.0000
  S   S1343     1.0  0.75029  0.10309  0.83729  1.0000
  H   H5988     1.0  0.82303  0.26378  0.88769  1.0000
  H   H5989     1.0  0.88431  0.28776  0.80369  1.0000
  H   H5990     1.0  0.88854  0.30074  0.82802  1.0000
  H   H5991     1.0  0.87360  0.26800  0.89023  1.0000
  C   C4993     1.0  0.87063  0.18534  0.82076  1.0000
  H   H5992     1.0  0.93016  0.35450  0.79819  1.0000
  C   C4994     1.0  0.84022  0.25990  0.89331  1.0000
  C   C4995     1.0  0.90747  0.46386  0.83214  1.0000
  H   H5993     1.0  0.82962  0.19182  0.87281  1.0000
  C   C4996     1.0  0.88858  0.28988  0.81017  1.0000
  H   H5994     1.0  0.90595  0.40292  0.81261  1.0000
  H   H5995     1.0  0.87803  0.25601  0.90260  1.0000
  C   C4997     1.0  0.86242  0.17779  0.82257  1.0000
  C   C4998     1.0  0.74907  0.11414  0.80334  1.0000
  N   N334      1.0  0.86068  0.25622  0.89885  1.0000
  C   C4999     1.0  0.86998  0.26261  0.89941  1.0000
  C   C5000     1.0  0.83003  0.26762  0.88898  1.0000
  H   H5996     1.0  0.98260  0.38305  0.83467  1.0000
  C   C5001     1.0  0.99021  0.37679  0.86331  1.0000
  N   N335      1.0  0.97300  0.38785  0.85187  1.0000
  C   C5002     1.0  0.88688  0.29124  0.83089  1.0000
  C   C5003     1.0  0.77554  0.12668  0.89274  1.0000
  C   C5004     1.0  0.86594  0.27400  0.83020  1.0000
  C   C5005     1.0  0.84984  0.26465  0.89450  1.0000
  H   H5997     1.0  0.86648  0.16855  0.82130  1.0000
  H   H5998     1.0  0.85037  0.24321  0.91151  1.0000
  H   H5999     1.0  0.95895  0.34140  0.79974  1.0000
  H   H6000     1.0  0.88044  0.18178  0.81819  1.0000
  N   N336      1.0  0.88904  0.48504  0.85408  1.0000
  C   C5006     1.0  0.96299  0.39777  0.85626  1.0000
  C   C5007     1.0  0.85664  0.24906  0.91132  1.0000
  H   H6001     1.0  0.86610  0.26891  0.90588  1.0000
  H   H6002     1.0  0.85165  0.25520  0.91777  1.0000
  H   H6003     1.0  0.93484  0.32077  0.81106  1.0000
  C   C5008     1.0  0.88590  0.46478  0.83471  1.0000
  C   C5009     1.0  0.88337  0.47873  0.86638  1.0000
  H   H6004     1.0  0.90021  0.45401  0.82340  1.0000
  H   H6005     1.0  0.75180  0.15358  0.85603  1.0000
  H   H6006     1.0  0.89599  0.28500  0.83119  1.0000
  C   C5010     1.0  0.90430  0.39176  0.78933  1.0000
  H   H6007     1.0  0.91245  0.47429  0.84168  1.0000
  H   H6008     1.0  0.83887  0.15732  0.82527  1.0000
  H   H6009     1.0  0.84390  0.19739  0.85323  1.0000
  S   S1344     1.0  0.83674  0.14243  0.97747  1.0000
  H   H6010     1.0  0.92355  0.36980  0.82532  1.0000
  C   C5011     1.0  0.84845  0.27763  0.89134  1.0000
  H   H6011     1.0  0.86453  0.24268  0.91502  1.0000
  C   C5012     1.0  0.83169  0.40095  0.80674  1.0000
  C   C5013     1.0  0.87686  0.34060  0.79987  1.0000
  C   C5014     1.0  0.88936  0.33509  0.79738  1.0000
  C   C5015     1.0  0.89807  0.46029  0.82949  1.0000
  C   C5016     1.0  0.91768  0.37772  0.82924  1.0000
  C   C5017     1.0  0.96847  0.37626  0.85652  1.0000
  H   H6012     1.0  0.76337  0.12011  0.91553  1.0000
  H   H6013     1.0  0.96510  0.40700  0.85213  1.0000
  C   C5018     1.0  0.84780  0.48480  0.84392  1.0000
  C   C5019     1.0  0.82903  0.28027  0.88583  1.0000
  H   H6014     1.0  0.86417  0.29761  0.81544  1.0000
  H   H6015     1.0  0.75015  0.17740  0.82115  1.0000
  C   C5020     1.0  0.84951  0.18211  0.82617  1.0000
  H   H6016     1.0  0.90645  0.48139  0.85930  1.0000
  C   C5021     1.0  0.88569  0.25398  0.83240  1.0000
  C   C5022     1.0  0.76827  0.10802  0.89644  1.0000
  H   H6017     1.0  0.91823  0.37572  0.83902  1.0000
  H   H6018     1.0  0.94059  0.37299  0.78909  1.0000
  H   H6019     1.0  0.85534  0.28215  0.89165  1.0000
  Fe  Fe673     1.0  0.98172  0.36664  0.81950  1.0000
  H   H6020     1.0  0.76800  0.14846  0.83736  1.0000
  C   C5023     1.0  0.87174  0.34983  0.79090  1.0000
  C   C5024     1.0  0.87800  0.27630  0.82704  1.0000
  H   H6021     1.0  0.98166  0.18902  0.79612  1.0000
  C   C5025     1.0  0.83818  0.28526  0.88707  1.0000
  H   H6022     1.0  0.82131  0.28617  0.88208  1.0000
  H   H6023     1.0  0.87269  0.20309  0.82131  1.0000
  C   C5026     1.0  0.94267  0.32401  0.80410  1.0000
  H   H6024     1.0  0.81573  0.39326  0.81544  1.0000
  H   H6025     1.0  0.84966  0.16513  0.81365  1.0000
  C   C5027     1.0  0.85174  0.38673  0.80689  1.0000
  H   H6026     1.0  0.88981  0.47029  0.86995  1.0000
  C   C5028     1.0  0.84585  0.16291  0.82366  1.0000
  H   H6027     1.0  0.82405  0.18847  0.82762  1.0000
  H   H6028     1.0  0.83272  0.18481  0.81321  1.0000
  H   H6029     1.0  0.85323  0.15672  0.82815  1.0000
  H   H6030     1.0  0.82978  0.16435  0.84437  1.0000
  H   H6031     1.0  0.76586  0.13194  0.89358  1.0000
  H   H6032     1.0  0.95421  0.39804  0.85385  1.0000
  C   C5029     1.0  0.97534  0.39043  0.83834  1.0000
  N   N337      1.0  0.93856  0.33600  0.79617  1.0000
  C   C5030     1.0  0.90482  0.40002  0.79582  1.0000
  C   C5031     1.0  0.98430  0.38739  0.85581  1.0000
  H   H6033     1.0  0.99244  0.18297  0.81263  1.0000
  C   C5032     1.0  0.87849  0.42660  0.78450  1.0000
  H   H6034     1.0  0.93950  0.34612  0.80896  1.0000
  H   H6035     1.0  0.74746  0.09284  0.88599  1.0000
  H   H6036     1.0  0.87856  0.46203  0.83263  1.0000
  H   H6037     1.0  0.85760  0.11422  0.97350  1.0000
  C   C5033     1.0  0.86959  0.38642  0.79038  1.0000
  H   H6038     1.0  0.96615  0.37389  0.86669  1.0000
  H   H6039     1.0  0.75854  0.16671  0.85218  1.0000
  H   H6040     1.0  0.86187  0.14374  0.97682  1.0000
  C   C5034     1.0  0.77041  0.10681  0.88416  1.0000
  H   H6041     1.0  0.97832  0.39922  0.83396  1.0000
  H   H6042     1.0  0.76685  0.15828  0.82256  1.0000
  H   H6043     1.0  0.90461  0.37302  0.78989  1.0000
  C   C5035     1.0  0.74994  0.17668  0.83094  1.0000
  C   C5036     1.0  0.74886  0.11852  0.85263  1.0000
  C   C5037     1.0  0.94930  0.33950  0.78680  1.0000
  C   C5038     1.0  0.95908  0.34200  0.79028  1.0000
  H   H6044     1.0  0.88011  0.43032  0.79136  1.0000
  H   H6045     1.0  0.90634  0.33456  0.78392  1.0000
  H   H6046     1.0  0.75628  0.14200  0.82885  1.0000
  H   H6047     1.0  0.75494  0.10675  0.78264  1.0000
  H   H6048     1.0  0.87977  0.38478  0.78753  1.0000
  N   N338      1.0  0.75235  0.16365  0.83750  1.0000
  H   H6049     1.0  0.75691  0.18152  0.83131  1.0000
  H   H6050     1.0  0.87353  0.47581  0.84658  1.0000
  H   H6051     1.0  0.97640  0.34765  0.78446  1.0000
  C   C5039     1.0  0.89673  0.33892  0.78597  1.0000
  H   H6052     1.0  0.92534  0.34354  0.78464  1.0000
  H   H6053     1.0  0.84872  0.40630  0.79872  1.0000
  H   H6054     1.0  0.93178  0.32731  0.78585  1.0000
  H   H6055     1.0  0.92262  0.43678  0.78692  1.0000
  C   C5040     1.0  0.86677  0.42498  0.78519  1.0000
  C   C5041     1.0  0.96925  0.34540  0.78161  1.0000
  H   H6056     1.0  0.99200  0.16739  0.80341  1.0000
  C   C5042     1.0  0.74680  0.14645  0.83165  1.0000
  H   H6057     1.0  0.74465  0.11394  0.81315  1.0000
  C   C5043     1.0  0.96193  0.61355  0.14303  1.0000
  S   S1345     1.0  0.98181  0.64038  0.12660  1.0000
  Fe  Fe674     1.0  0.85927  0.74249  0.07308  1.0000
  S   S1346     1.0  0.85092  0.73094  0.09066  1.0000
  S   S1347     1.0  0.86409  0.76100  0.07135  1.0000
  Fe  Fe675     1.0  0.86552  0.72106  0.05911  1.0000
  S   S1348     1.0  0.85789  0.70827  0.07594  1.0000
  S   S1349     1.0  0.87672  0.71155  0.04358  1.0000
  Fe  Fe676     1.0  0.84249  0.72424  0.07901  1.0000
  S   S1350     1.0  0.82313  0.72108  0.08467  1.0000
  Fe  Fe677     1.0  0.86706  0.71607  0.08581  1.0000
  S   S1351     1.0  0.87859  0.70415  0.09901  1.0000
  S   S1352     1.0  0.84945  0.73702  0.06148  1.0000
  S   S1353     1.0  0.87592  0.72774  0.06886  1.0000
  Fe  Fe678     1.0  0.88593  0.64824  0.00577  1.0000
  S   S1354     1.0  0.90518  0.63990  0.00869  1.0000
  Fe  Fe679     1.0  0.86007  0.64470  0.01244  1.0000
  S   S1355     1.0  0.84829  0.63201  0.02485  1.0000
  Fe  Fe680     1.0  0.86477  0.67032  0.00581  1.0000
  S   S1356     1.0  0.85650  0.68908  0.01057  1.0000
  S   S1357     1.0  0.87658  0.63745  0.99912  1.0000
  S   S1358     1.0  0.86988  0.65385  0.02037  1.0000
  Fe  Fe681     1.0  0.92236  0.62683  0.07314  1.0000
  S   S1359     1.0  0.92049  0.61728  0.09296  1.0000
  S   S1360     1.0  0.92456  0.61726  0.05792  1.0000
  Fe  Fe682     1.0  0.92093  0.65111  0.07864  1.0000
  S   S1361     1.0  0.91835  0.64401  0.09892  1.0000
  S   S1362     1.0  0.92055  0.67040  0.06832  1.0000
  Fe  Fe683     1.0  0.93364  0.62826  0.09386  1.0000
  S   S1363     1.0  0.95059  0.61934  0.10230  1.0000
  Fe  Fe684     1.0  0.90549  0.63380  0.09626  1.0000
  S   S1364     1.0  0.88637  0.63335  0.10812  1.0000
  S   S1365     1.0  0.93681  0.63616  0.07359  1.0000
  S   S1366     1.0  0.90677  0.64253  0.07646  1.0000
  Fe  Fe685     1.0  0.79672  0.63540  0.09884  1.0000
  S   S1367     1.0  0.79118  0.65578  0.09207  1.0000
  S   S1368     1.0  0.77994  0.62660  0.10691  1.0000
  Fe  Fe686     1.0  0.82444  0.63609  0.09059  1.0000
  S   S1369     1.0  0.82037  0.65632  0.08310  1.0000
  S   S1370     1.0  0.84479  0.62787  0.08481  1.0000
  Fe  Fe687     1.0  0.80605  0.65741  0.10013  1.0000
  S   S1371     1.0  0.80287  0.67282  0.10979  1.0000
  Fe  Fe688     1.0  0.80606  0.65274  0.07580  1.0000
  S   S1372     1.0  0.80410  0.66243  0.05682  1.0000
  S   S1373     1.0  0.81065  0.63722  0.10847  1.0000
  S   S1374     1.0  0.81098  0.63235  0.08190  1.0000
  Fe  Fe689     1.0  0.97975  0.85423  0.11804  1.0000
  S   S1375     1.0  0.97027  0.84704  0.10786  1.0000
  Fe  Fe690     1.0  0.95547  0.86754  0.13130  1.0000
  S   S1376     1.0  0.94415  0.86176  0.12186  1.0000
  S   S1377     1.0  0.94482  0.87887  0.14520  1.0000
  Fe  Fe691     1.0  0.95667  0.84338  0.12551  1.0000
  S   S1378     1.0  0.95098  0.82539  0.13458  1.0000
  Fe  Fe692     1.0  0.95869  0.86609  0.10511  1.0000
  S   S1379     1.0  0.95628  0.87455  0.08584  1.0000
  S   S1380     1.0  0.96720  0.84884  0.13603  1.0000
  S   S1381     1.0  0.96901  0.87360  0.11413  1.0000
  C   C5044     1.0  0.86153  0.92934  0.17425  1.0000
  C   C5045     1.0  0.98949  0.88754  0.08608  1.0000
  H   H6058     1.0  0.85984  0.62676  0.05916  1.0000
  Fe  Fe693     1.0  0.87187  0.93331  0.10765  1.0000
  S   S1382     1.0  0.89207  0.92854  0.10744  1.0000
  S   S1383     1.0  0.85891  0.95156  0.10969  1.0000
  Fe  Fe694     1.0  0.87119  0.90680  0.10835  1.0000
  S   S1384     1.0  0.89106  0.89999  0.10865  1.0000
  S   S1385     1.0  0.85987  0.89323  0.10992  1.0000
  Fe  Fe695     1.0  0.88762  0.91207  0.12179  1.0000
  S   S1386     1.0  0.89648  0.90521  0.13795  1.0000
  Fe  Fe696     1.0  0.89354  0.91689  0.09429  1.0000
  S   S1387     1.0  0.90811  0.91452  0.07735  1.0000
  S   S1388     1.0  0.86736  0.91744  0.12286  1.0000
  S   S1389     1.0  0.87365  0.92313  0.09307  1.0000
  Fe  Fe697     1.0  0.89685  0.80720  0.12106  1.0000
  S   S1390     1.0  0.89319  0.80860  0.10270  1.0000
  S   S1391     1.0  0.91505  0.79763  0.12606  1.0000
  Fe  Fe698     1.0  0.87118  0.82077  0.13078  1.0000
  S   S1392     1.0  0.86524  0.82344  0.11317  1.0000
  S   S1393     1.0  0.85894  0.82980  0.14608  1.0000
  Fe  Fe699     1.0  0.87506  0.80367  0.11308  1.0000
  S   S1394     1.0  0.86655  0.78845  0.11159  1.0000
  Fe  Fe700     1.0  0.88375  0.82805  0.10429  1.0000
  S   S1395     1.0  0.88837  0.84498  0.09056  1.0000
  S   S1396     1.0  0.87957  0.80080  0.13156  1.0000
  S   S1397     1.0  0.88882  0.82679  0.12188  1.0000
  C   C5046     1.0  0.86811  0.87974  0.10483  1.0000
  C   C5047     1.0  0.87975  0.87922  0.09710  1.0000
  C   C5048     1.0  0.88593  0.86854  0.09267  1.0000
  C   C5049     1.0  0.88066  0.85823  0.09629  1.0000
  C   C5050     1.0  0.86920  0.85862  0.10432  1.0000
  C   C5051     1.0  0.86283  0.86943  0.10838  1.0000
  H   H6059     1.0  0.88375  0.88720  0.09421  1.0000
  H   H6060     1.0  0.89475  0.86828  0.08641  1.0000
  H   H6061     1.0  0.86504  0.85072  0.10711  1.0000
  H   H6062     1.0  0.85380  0.86978  0.11429  1.0000
  C   C5052     1.0  0.76762  0.64254  0.05760  1.0000
  C   C5053     1.0  0.85867  0.89157  0.07872  1.0000
  C   C5054     1.0  0.87089  0.83464  0.16113  1.0000
  C   C5055     1.0  0.86365  0.82729  0.15990  1.0000
  H   H6063     1.0  0.98854  0.62077  0.11282  1.0000
  H   H6064     1.0  0.75996  0.64193  0.06582  1.0000
  H   H6065     1.0  0.86714  0.88307  0.14916  1.0000
  H   H6066     1.0  0.87476  0.84083  0.15317  1.0000
  S   S1398     1.0  0.75312  0.59337  0.09168  1.0000
  C   C5056     1.0  0.86600  0.62737  0.04992  1.0000
  H   H6067     1.0  0.97353  0.59643  0.16524  1.0000
  C   C5057     1.0  0.86802  0.89811  0.07334  1.0000
  C   C5058     1.0  0.87401  0.90447  0.15370  1.0000
  C   C5059     1.0  0.88676  0.90034  0.15188  1.0000
  C   C5060     1.0  0.89195  0.89232  0.16140  1.0000
  C   C5061     1.0  0.98953  0.88379  0.06681  1.0000
  H   H6068     1.0  0.98226  0.86771  0.08791  1.0000
  H   H6069     1.0  0.86991  0.91095  0.14661  1.0000
  H   H6070     1.0  0.90179  0.88940  0.16011  1.0000
  H   H6071     1.0  0.87242  0.65621  0.11624  1.0000
  C   C5062     1.0  0.93757  0.87001  0.15861  1.0000
  C   C5063     1.0  0.94305  0.85778  0.16272  1.0000
  H   H6072     1.0  0.88561  0.79265  0.16962  1.0000
  H   H6073     1.0  0.85664  0.90386  0.16644  1.0000
  C   C5064     1.0  0.91977  0.86776  0.17528  1.0000
  C   C5065     1.0  0.92606  0.87508  0.16510  1.0000
  H   H6074     1.0  0.95207  0.85389  0.15804  1.0000
  H   H6075     1.0  0.81547  0.69157  0.03102  1.0000
  H   H6076     1.0  0.86003  0.63228  0.04326  1.0000
  H   H6077     1.0  0.92199  0.88463  0.16208  1.0000
  C   C5066     1.0  0.94137  0.81857  0.13036  1.0000
  C   C5067     1.0  0.94416  0.80579  0.13220  1.0000
  C   C5068     1.0  0.93617  0.79963  0.13041  1.0000
  C   C5069     1.0  0.92517  0.80615  0.12693  1.0000
  C   C5070     1.0  0.92236  0.81902  0.12488  1.0000
  C   C5071     1.0  0.93045  0.82524  0.12666  1.0000
  H   H6078     1.0  0.95248  0.80057  0.13524  1.0000
  H   H6079     1.0  0.93841  0.78971  0.13201  1.0000
  H   H6080     1.0  0.91396  0.82415  0.12205  1.0000
  H   H6081     1.0  0.92807  0.83508  0.12558  1.0000
  C   C5072     1.0  0.94295  0.88589  0.08392  1.0000
  C   C5073     1.0  0.94078  0.89074  0.07211  1.0000
  C   C5074     1.0  0.93015  0.89961  0.07021  1.0000
  C   C5075     1.0  0.92154  0.90366  0.08010  1.0000
  C   C5076     1.0  0.92372  0.89888  0.09194  1.0000
  C   C5077     1.0  0.93443  0.88997  0.09386  1.0000
  H   H6082     1.0  0.94738  0.88769  0.06439  1.0000
  H   H6083     1.0  0.92862  0.90340  0.06103  1.0000
  H   H6084     1.0  0.91728  0.90222  0.09959  1.0000
  H   H6085     1.0  0.93615  0.88641  0.10298  1.0000
  C   C5078     1.0  0.87916  0.97545  0.10931  1.0000
  C   C5079     1.0  0.87588  0.96513  0.10797  1.0000
  C   C5080     1.0  0.86368  0.96382  0.11202  1.0000
  H   H6086     1.0  0.88855  0.97659  0.10588  1.0000
  H   H6087     1.0  0.88271  0.95838  0.10352  1.0000
  C   C5081     1.0  0.87492  0.63145  0.10173  1.0000
  C   C5082     1.0  0.87749  0.63014  0.08965  1.0000
  C   C5083     1.0  0.86810  0.62936  0.08454  1.0000
  C   C5084     1.0  0.85607  0.62969  0.09147  1.0000
  C   C5085     1.0  0.85348  0.63096  0.10358  1.0000
  C   C5086     1.0  0.86287  0.63187  0.10868  1.0000
  H   H6088     1.0  0.88674  0.62962  0.08425  1.0000
  H   H6089     1.0  0.87023  0.62845  0.07518  1.0000
  H   H6090     1.0  0.84430  0.63103  0.10910  1.0000
  H   H6091     1.0  0.86079  0.63289  0.11804  1.0000
  C   C5087     1.0  0.81578  0.65406  0.04732  1.0000
  C   C5088     1.0  0.82342  0.66012  0.03743  1.0000
  C   C5089     1.0  0.83353  0.65334  0.03058  1.0000
  C   C5090     1.0  0.83572  0.64053  0.03334  1.0000
  C   C5091     1.0  0.82792  0.63448  0.04307  1.0000
  C   C5092     1.0  0.81800  0.64126  0.05010  1.0000
  H   H6092     1.0  0.82177  0.67000  0.03527  1.0000
  H   H6093     1.0  0.83959  0.65808  0.02316  1.0000
  H   H6094     1.0  0.82952  0.62457  0.04516  1.0000
  H   H6095     1.0  0.81182  0.63654  0.05737  1.0000
  C   C5093     1.0  0.90937  0.63365  0.02300  1.0000
  C   C5094     1.0  0.92043  0.62500  0.02318  1.0000
  C   C5095     1.0  0.92473  0.62005  0.03400  1.0000
  C   C5096     1.0  0.91827  0.62393  0.04478  1.0000
  C   C5097     1.0  0.90708  0.63257  0.04477  1.0000
  C   C5098     1.0  0.90258  0.63740  0.03386  1.0000
  H   H6096     1.0  0.92575  0.62208  0.01487  1.0000
  H   H6097     1.0  0.93329  0.61332  0.03395  1.0000
  H   H6098     1.0  0.90192  0.63542  0.05315  1.0000
  H   H6099     1.0  0.89408  0.64419  0.03378  1.0000
  C   C5099     1.0  0.87059  0.70514  0.03495  1.0000
  C   C5100     1.0  0.86010  0.71145  0.03038  1.0000
  C   C5101     1.0  0.85620  0.70664  0.02252  1.0000
  C   C5102     1.0  0.86248  0.69528  0.01952  1.0000
  C   C5103     1.0  0.87284  0.68885  0.02429  1.0000
  C   C5104     1.0  0.87695  0.69386  0.03183  1.0000
  H   H6100     1.0  0.85531  0.72029  0.03245  1.0000
  H   H6101     1.0  0.84838  0.71184  0.01862  1.0000
  H   H6102     1.0  0.87774  0.68008  0.02211  1.0000
  H   H6103     1.0  0.88506  0.68891  0.03536  1.0000
  C   C5105     1.0  0.81976  0.70683  0.09322  1.0000
  C   C5106     1.0  0.80904  0.70699  0.10239  1.0000
  C   C5107     1.0  0.80437  0.69635  0.10771  1.0000
  C   C5108     1.0  0.81017  0.68542  0.10376  1.0000
  C   C5109     1.0  0.82120  0.68503  0.09493  1.0000
  C   C5110     1.0  0.82603  0.69572  0.08967  1.0000
  H   H6104     1.0  0.80405  0.71552  0.10509  1.0000
  H   H6105     1.0  0.79593  0.69673  0.11461  1.0000
  H   H6106     1.0  0.82585  0.67652  0.09213  1.0000
  H   H6107     1.0  0.83422  0.69554  0.08247  1.0000
  C   C5111     1.0  0.89034  0.69464  0.09066  1.0000
  C   C5112     1.0  0.89107  0.69613  0.07816  1.0000
  C   C5113     1.0  0.90058  0.68888  0.07127  1.0000
  C   C5114     1.0  0.90916  0.67981  0.07695  1.0000
  C   C5115     1.0  0.90826  0.67801  0.08953  1.0000
  C   C5116     1.0  0.89890  0.68554  0.09638  1.0000
  H   H6108     1.0  0.88437  0.70285  0.07368  1.0000
  H   H6109     1.0  0.90116  0.69021  0.06157  1.0000
  H   H6110     1.0  0.91496  0.67101  0.09392  1.0000
  H   H6111     1.0  0.89833  0.68429  0.10606  1.0000
  C   C5117     1.0  0.86426  0.76882  0.08262  1.0000
  C   C5118     1.0  0.85821  0.76582  0.09485  1.0000
  C   C5119     1.0  0.85893  0.77202  0.10348  1.0000
  C   C5120     1.0  0.86565  0.78135  0.10006  1.0000
  C   C5121     1.0  0.87162  0.78443  0.08781  1.0000
  C   C5122     1.0  0.87088  0.77824  0.07917  1.0000
  H   H6112     1.0  0.85294  0.75875  0.09767  1.0000
  H   H6113     1.0  0.85423  0.76957  0.11290  1.0000
  H   H6114     1.0  0.87682  0.79156  0.08499  1.0000
  H   H6115     1.0  0.87553  0.78073  0.06973  1.0000
  C   C5123     1.0  0.97379  0.63531  0.11837  1.0000
  C   C5124     1.0  0.97901  0.62514  0.11299  1.0000
  C   C5125     1.0  0.97187  0.62053  0.10790  1.0000
  C   C5126     1.0  0.95958  0.62639  0.10752  1.0000
  C   C5127     1.0  0.95458  0.63706  0.11216  1.0000
  C   C5128     1.0  0.96161  0.64139  0.11767  1.0000
  H   H6116     1.0  0.98007  0.57859  0.15399  1.0000
  H   H6117     1.0  0.97589  0.61237  0.10421  1.0000
  H   H6118     1.0  0.94516  0.64168  0.11196  1.0000
  H   H6119     1.0  0.95748  0.64938  0.12162  1.0000
  H   H6120     1.0  0.90715  0.65722  0.04375  1.0000
  C   C5129     1.0  0.75437  0.61511  0.09703  1.0000
  C   C5130     1.0  0.76053  0.62239  0.10023  1.0000
  C   C5131     1.0  0.77314  0.61860  0.10032  1.0000
  C   C5132     1.0  0.77955  0.60750  0.09695  1.0000
  H   H6121     1.0  0.89630  0.89116  0.04449  1.0000
  C   C5133     1.0  0.90816  0.80750  0.16855  1.0000
  H   H6122     1.0  0.77233  0.61152  0.13370  1.0000
  C   C5134     1.0  0.90302  0.68546  0.00595  1.0000
  N   N339      1.0  0.88100  0.94218  0.14375  1.0000
  C   C5135     1.0  0.87526  0.93890  0.13549  1.0000
  C   C5136     1.0  0.87655  0.95550  0.14357  1.0000
  C   C5137     1.0  0.89446  0.94001  0.13868  1.0000
  C   C5138     1.0  0.87757  0.93488  0.15627  1.0000
  C   C5139     1.0  0.88623  0.92565  0.16224  1.0000
  C   C5140     1.0  0.86510  0.93647  0.16263  1.0000
  H   H6123     1.0  0.79339  0.61369  0.04861  1.0000
  H   H6124     1.0  0.85655  0.87837  0.16877  1.0000
  C   C5141     1.0  0.79507  0.62267  0.04391  1.0000
  H   H6125     1.0  0.87796  0.94377  0.12588  1.0000
  H   H6126     1.0  0.87816  0.92891  0.13570  1.0000
  H   H6127     1.0  0.86505  0.94124  0.13794  1.0000
  H   H6128     1.0  0.86637  0.95830  0.14557  1.0000
  H   H6129     1.0  0.87966  0.96122  0.13442  1.0000
  H   H6130     1.0  0.89831  0.93035  0.13759  1.0000
  H   H6131     1.0  0.89675  0.94585  0.12938  1.0000
  H   H6132     1.0  0.89942  0.94213  0.14456  1.0000
  H   H6133     1.0  0.89583  0.92339  0.15798  1.0000
  H   H6134     1.0  0.85796  0.94306  0.15854  1.0000
  C   C5142     1.0  0.84991  0.66728  0.11201  1.0000
  C   C5143     1.0  0.82400  0.70860  0.04552  1.0000
  C   C5144     1.0  0.91492  0.66623  0.01519  1.0000
  N   N340      1.0  0.87274  0.61513  0.04754  1.0000
  C   C5145     1.0  0.87953  0.61690  0.03457  1.0000
  C   C5146     1.0  0.86370  0.60760  0.04897  1.0000
  C   C5147     1.0  0.88078  0.60919  0.05640  1.0000
  C   C5148     1.0  0.89382  0.60659  0.05287  1.0000
  C   C5149     1.0  0.87559  0.60623  0.06911  1.0000
  C   C5150     1.0  0.90110  0.60140  0.06158  1.0000
  C   C5151     1.0  0.88297  0.60124  0.07774  1.0000
  C   C5152     1.0  0.89571  0.59888  0.07398  1.0000
  H   H6135     1.0  0.88487  0.60802  0.03217  1.0000
  H   H6136     1.0  0.87319  0.62109  0.02813  1.0000
  H   H6137     1.0  0.88587  0.62323  0.03254  1.0000
  H   H6138     1.0  0.86841  0.59803  0.04817  1.0000
  H   H6139     1.0  0.85803  0.61140  0.04190  1.0000
  H   H6140     1.0  0.85705  0.60724  0.05790  1.0000
  H   H6141     1.0  0.89869  0.60866  0.04348  1.0000
  H   H6142     1.0  0.86575  0.60821  0.07255  1.0000
  H   H6143     1.0  0.91103  0.59961  0.05873  1.0000
  H   H6144     1.0  0.87878  0.59950  0.08741  1.0000
  H   H6145     1.0  0.90144  0.59525  0.08068  1.0000
  N   N341      1.0  0.89332  0.73611  0.09282  1.0000
  C   C5153     1.0  0.88037  0.73503  0.09795  1.0000
  C   C5154     1.0  0.89424  0.74418  0.08042  1.0000
  C   C5155     1.0  0.90067  0.72370  0.09143  1.0000
  C   C5156     1.0  0.89731  0.74153  0.10085  1.0000
  C   C5157     1.0  0.89141  0.75354  0.10265  1.0000
  C   C5158     1.0  0.90690  0.73518  0.10719  1.0000
  C   C5159     1.0  0.89486  0.75891  0.11023  1.0000
  C   C5160     1.0  0.91034  0.74066  0.11473  1.0000
  C   C5161     1.0  0.90434  0.75250  0.11625  1.0000
  H   H6146     1.0  0.87926  0.72909  0.10730  1.0000
  H   H6147     1.0  0.87405  0.74403  0.09851  1.0000
  H   H6148     1.0  0.87699  0.73094  0.09224  1.0000
  H   H6149     1.0  0.88783  0.75324  0.08035  1.0000
  H   H6150     1.0  0.89184  0.74018  0.07392  1.0000
  H   H6151     1.0  0.90369  0.74584  0.07656  1.0000
  H   H6152     1.0  0.89975  0.71690  0.10030  1.0000
  H   H6153     1.0  0.89745  0.72003  0.08519  1.0000
  H   H6154     1.0  0.91054  0.72379  0.08748  1.0000
  H   H6155     1.0  0.88398  0.75887  0.09824  1.0000
  H   H6156     1.0  0.91184  0.72597  0.10649  1.0000
  H   H6157     1.0  0.89007  0.76809  0.11148  1.0000
  H   H6158     1.0  0.91767  0.73568  0.11948  1.0000
  H   H6159     1.0  0.90698  0.75672  0.12212  1.0000
  N   N342      1.0  0.90948  0.85300  0.14943  1.0000
  C   C5162     1.0  0.90396  0.86289  0.15637  1.0000
  C   C5163     1.0  0.90339  0.84258  0.15588  1.0000
  C   C5164     1.0  0.92267  0.84881  0.14983  1.0000
  C   C5165     1.0  0.90819  0.85769  0.13658  1.0000
  C   C5166     1.0  0.91264  0.86826  0.12953  1.0000
  C   C5167     1.0  0.90266  0.85199  0.13067  1.0000
  C   C5168     1.0  0.91140  0.87301  0.11745  1.0000
  C   C5169     1.0  0.90142  0.85689  0.11856  1.0000
  C   C5170     1.0  0.90572  0.86743  0.11201  1.0000
  H   H6160     1.0  0.89418  0.86684  0.15580  1.0000
  C   C5171     1.0  0.92647  0.81571  0.16576  1.0000
  H   H6161     1.0  0.90890  0.87055  0.15304  1.0000
  H   H6162     1.0  0.89346  0.84516  0.15576  1.0000
  H   H6163     1.0  0.90402  0.83966  0.16567  1.0000
  H   H6164     1.0  0.90776  0.83440  0.15177  1.0000
  H   H6165     1.0  0.92761  0.85649  0.14643  1.0000
  H   H6166     1.0  0.92401  0.84463  0.15931  1.0000
  H   H6167     1.0  0.92742  0.84183  0.14421  1.0000
  H   H6168     1.0  0.91711  0.87302  0.13330  1.0000
  H   H6169     1.0  0.89918  0.84378  0.13518  1.0000
  H   H6170     1.0  0.91470  0.88123  0.11240  1.0000
  H   H6171     1.0  0.89700  0.85254  0.11426  1.0000
  H   H6172     1.0  0.90459  0.87135  0.10272  1.0000
  N   N343      1.0  0.90133  0.80115  0.16402  1.0000
  C   C5172     1.0  0.88255  0.91860  0.17388  1.0000
  C   C5173     1.0  0.82407  0.70288  0.03640  1.0000
  H   H6173     1.0  0.79398  0.71803  0.07248  1.0000
  H   H6174     1.0  0.83092  0.70369  0.02793  1.0000
  C   C5174     1.0  0.84343  0.87749  0.14114  1.0000
  H   H6175     1.0  0.85246  0.81410  0.16948  1.0000
  C   C5175     1.0  0.90933  0.78965  0.16064  1.0000
  H   H6176     1.0  0.88479  0.91215  0.07219  1.0000
  C   C5176     1.0  0.87921  0.89295  0.06598  1.0000
  H   H6177     1.0  0.97843  0.61051  0.15730  1.0000
  S   S1399     1.0  0.88160  0.66530  0.99144  1.0000
  C   C5177     1.0  0.85273  0.87055  0.16977  1.0000
  H   H6178     1.0  0.85986  0.98628  0.09064  1.0000
  H   H6179     1.0  0.94920  0.59233  0.13123  1.0000
  H   H6180     1.0  0.86737  0.87066  0.13034  1.0000
  H   H6181     1.0  0.96546  0.62019  0.14530  1.0000
  H   H6182     1.0  0.96850  0.58451  0.13790  1.0000
  C   C5178     1.0  0.87024  0.92041  0.17985  1.0000
  H   H6183     1.0  0.81451  0.63474  0.01853  1.0000
  H   H6184     1.0  0.91691  0.79135  0.15259  1.0000
  H   H6185     1.0  0.99169  0.89283  0.06165  1.0000
  C   C5179     1.0  0.86649  0.90052  0.16498  1.0000
  C   C5180     1.0  0.85834  0.81955  0.17030  1.0000
  N   N344      1.0  0.84765  0.67025  0.05573  1.0000
  C   C5181     1.0  0.84781  0.67685  0.04289  1.0000
  C   C5182     1.0  0.83751  0.67716  0.06378  1.0000
  C   C5183     1.0  0.85954  0.66941  0.05873  1.0000
  C   C5184     1.0  0.86786  0.65806  0.06161  1.0000
  C   C5185     1.0  0.86318  0.68017  0.05868  1.0000
  C   C5186     1.0  0.87905  0.65760  0.06431  1.0000
  C   C5187     1.0  0.87438  0.67960  0.06147  1.0000
  C   C5188     1.0  0.88232  0.66834  0.06424  1.0000
  H   H6186     1.0  0.85577  0.67245  0.03652  1.0000
  H   H6187     1.0  0.83937  0.67704  0.03995  1.0000
  H   H6188     1.0  0.84848  0.68653  0.04144  1.0000
  H   H6189     1.0  0.83769  0.67294  0.07353  1.0000
  H   H6190     1.0  0.83806  0.68691  0.06221  1.0000
  H   H6191     1.0  0.82837  0.67736  0.06224  1.0000
  H   H6192     1.0  0.86594  0.64939  0.06189  1.0000
  H   H6193     1.0  0.85754  0.68919  0.05623  1.0000
  H   H6194     1.0  0.88517  0.64882  0.06653  1.0000
  H   H6195     1.0  0.87700  0.68798  0.06126  1.0000
  H   H6196     1.0  0.89096  0.66796  0.06644  1.0000
  H   H6197     1.0  0.83537  0.88274  0.14671  1.0000
  C   C5189     1.0  0.81535  0.69600  0.03816  1.0000
  H   H6198     1.0  0.86929  0.65608  0.09591  1.0000
  C   C5190     1.0  0.78357  0.63603  0.06914  1.0000
  N   N345      1.0  0.93834  0.84630  0.08853  1.0000
  C   C5191     1.0  0.93079  0.85738  0.08203  1.0000
  C   C5192     1.0  0.93818  0.84856  0.10052  1.0000
  C   C5193     1.0  0.95112  0.84493  0.08120  1.0000
  C   C5194     1.0  0.93389  0.83494  0.09049  1.0000
  C   C5195     1.0  0.94066  0.82345  0.09575  1.0000
  C   C5196     1.0  0.92279  0.83491  0.08747  1.0000
  C   C5197     1.0  0.93672  0.81258  0.09758  1.0000
  C   C5198     1.0  0.91892  0.82398  0.08941  1.0000
  C   C5199     1.0  0.92585  0.81285  0.09447  1.0000
  H   H6199     1.0  0.92123  0.85945  0.08742  1.0000
  H   H6200     1.0  0.93456  0.86570  0.08048  1.0000
  H   H6201     1.0  0.93054  0.85628  0.07289  1.0000
  H   H6202     1.0  0.92879  0.84931  0.10641  1.0000
  H   H6203     1.0  0.94112  0.85723  0.09943  1.0000
  H   H6204     1.0  0.94443  0.84110  0.10561  1.0000
  H   H6205     1.0  0.95778  0.83798  0.08621  1.0000
  H   H6206     1.0  0.95182  0.84219  0.07254  1.0000
  H   H6207     1.0  0.95445  0.85362  0.07877  1.0000
  H   H6208     1.0  0.94892  0.82278  0.09875  1.0000
  H   H6209     1.0  0.91679  0.84315  0.08372  1.0000
  H   H6210     1.0  0.94190  0.80392  0.10183  1.0000
  H   H6211     1.0  0.91039  0.82421  0.08709  1.0000
  H   H6212     1.0  0.92264  0.80444  0.09625  1.0000
  H   H6213     1.0  0.88871  0.87623  0.05925  1.0000
  H   H6214     1.0  0.78214  0.71190  0.06014  1.0000
  H   H6215     1.0  0.89835  0.89199  0.07551  1.0000
  N   N346      1.0  0.88943  0.89946  0.06030  1.0000
  H   H6216     1.0  0.93668  0.66560  0.04305  1.0000
  H   H6217     1.0  0.76899  0.65207  0.05547  1.0000
  H   H6218     1.0  0.92584  0.67933  0.04034  1.0000
  H   H6219     1.0  0.87239  0.86251  0.14419  1.0000
  H   H6220     1.0  0.85136  0.65294  0.05039  1.0000
  C   C5200     1.0  0.84482  0.65811  0.05714  1.0000
  H   H6221     1.0  0.76439  0.64132  0.04990  1.0000
  C   C5201     1.0  0.83208  0.66839  0.12919  1.0000
  H   H6222     1.0  0.83552  0.65903  0.05554  1.0000
  S   S1400     1.0  0.85339  0.66153  0.99907  1.0000
  H   H6223     1.0  0.85308  0.87458  0.08160  1.0000
  C   C5202     1.0  0.85489  0.97273  0.11766  1.0000
  H   H6224     1.0  0.90822  0.89732  0.06145  1.0000
  C   C5203     1.0  0.85090  0.86711  0.15966  1.0000
  H   H6225     1.0  0.78786  0.70749  0.08577  1.0000
  H   H6226     1.0  0.84492  0.65243  0.06653  1.0000
  C   C5204     1.0  0.84270  0.85000  0.17425  1.0000
  C   C5205     1.0  0.80644  0.69487  0.04901  1.0000
  C   C5206     1.0  0.95068  0.61769  0.13941  1.0000
  H   H6227     1.0  0.81548  0.71245  0.06300  1.0000
  H   H6228     1.0  0.87251  0.63317  0.04922  1.0000
  C   C5207     1.0  0.88651  0.91215  0.06231  1.0000
  H   H6229     1.0  0.80009  0.68915  0.05004  1.0000
  H   H6230     1.0  0.77056  0.59598  0.12375  1.0000
  N   N347      1.0  0.85424  0.87384  0.14688  1.0000
  C   C5208     1.0  0.86017  0.87977  0.07704  1.0000
  C   C5209     1.0  0.93114  0.67135  0.03622  1.0000
  H   H6231     1.0  0.87995  0.95816  0.15035  1.0000
  N   N348      1.0  0.77891  0.63321  0.05976  1.0000
  H   H6232     1.0  0.77658  0.63626  0.07785  1.0000
  C   C5210     1.0  0.76061  0.60364  0.09445  1.0000
  H   H6233     1.0  0.94131  0.84112  0.17620  1.0000
  H   H6234     1.0  0.86067  0.89017  0.13605  1.0000
  H   H6235     1.0  0.80750  0.68447  0.07899  1.0000
  H   H6236     1.0  0.89985  0.90573  0.04226  1.0000
  H   H6237     1.0  0.79147  0.68597  0.08572  1.0000
  C   C5211     1.0  0.96880  0.60139  0.14290  1.0000
  C   C5212     1.0  0.93697  0.85057  0.17309  1.0000
  H   H6238     1.0  0.86783  0.67030  0.12153  1.0000
  H   H6239     1.0  0.97932  0.88503  0.06956  1.0000
  C   C5213     1.0  0.79823  0.68715  0.07683  1.0000
  C   C5214     1.0  0.84582  0.85659  0.16228  1.0000
  H   H6240     1.0  0.84699  0.67689  0.12663  1.0000
  C   C5215     1.0  0.89264  0.90030  0.04690  1.0000
  C   C5216     1.0  0.96381  0.59375  0.13870  1.0000
  C   C5217     1.0  0.95264  0.59809  0.13489  1.0000
  H   H6241     1.0  0.76763  0.62147  0.07304  1.0000
  C   C5218     1.0  0.94610  0.61002  0.13524  1.0000
  H   H6242     1.0  0.84453  0.85315  0.15506  1.0000
  H   H6243     1.0  0.84068  0.86948  0.13995  1.0000
  C   C5219     1.0  0.87171  0.89224  0.17436  1.0000
  C   C5220     1.0  0.85821  0.98298  0.11910  1.0000
  H   H6244     1.0  0.84529  0.88337  0.13183  1.0000
  C   C5221     1.0  0.87030  0.98451  0.11470  1.0000
  H   H6245     1.0  0.93773  0.61351  0.13178  1.0000
  H   H6246     1.0  0.90660  0.66857  0.00000  1.0000
  C   C5222     1.0  0.88444  0.88809  0.17257  1.0000
  C   C5223     1.0  0.90811  0.67304  0.00638  1.0000
  H   H6247     1.0  0.87978  0.66883  0.10832  1.0000
  H   H6248     1.0  0.88923  0.91137  0.17811  1.0000
  H   H6249     1.0  0.80391  0.70601  0.08094  1.0000
  C   C5224     1.0  0.92166  0.81975  0.17667  1.0000
  H   H6250     1.0  0.91838  0.65662  0.01509  1.0000
  H   H6251     1.0  0.89754  0.69065  0.99927  1.0000
  H   H6252     1.0  0.86744  0.68770  0.09528  1.0000
  H   H6253     1.0  0.87840  0.91791  0.05861  1.0000
  N   N349      1.0  0.79597  0.69989  0.06958  1.0000
  C   C5225     1.0  0.79539  0.70827  0.07747  1.0000
  N   N350      1.0  0.98107  0.59747  0.14601  1.0000
  H   H6254     1.0  0.92554  0.64614  0.03127  1.0000
  C   C5226     1.0  0.85853  0.88517  0.14575  1.0000
  H   H6255     1.0  0.79771  0.68040  0.07188  1.0000
  C   C5227     1.0  0.81500  0.70770  0.05636  1.0000
  H   H6256     1.0  0.77617  0.70295  0.07477  1.0000
  C   C5228     1.0  0.91370  0.66189  0.04517  1.0000
  H   H6257     1.0  0.90827  0.67047  0.04820  1.0000
  H   H6258     1.0  0.80352  0.65373  0.02581  1.0000
  H   H6259     1.0  0.85040  0.89549  0.08467  1.0000
  C   C5229     1.0  0.93102  0.65258  0.03143  1.0000
  C   C5230     1.0  0.91681  0.67171  0.02391  1.0000
  H   H6260     1.0  0.91795  0.65592  0.05284  1.0000
  C   C5231     1.0  0.80575  0.70097  0.05832  1.0000
  N   N351      1.0  0.92313  0.66448  0.03392  1.0000
  C   C5232     1.0  0.90465  0.69109  0.01438  1.0000
  H   H6261     1.0  0.93623  0.64761  0.03874  1.0000
  H   H6262     1.0  0.93777  0.65392  0.02259  1.0000
  H   H6263     1.0  0.84545  0.97173  0.12087  1.0000
  C   C5233     1.0  0.78373  0.70278  0.06647  1.0000
  H   H6264     1.0  0.91156  0.68900  0.03010  1.0000
  C   C5234     1.0  0.91125  0.68432  0.02337  1.0000
  C   C5235     1.0  0.89717  0.80931  0.15303  1.0000
  H   H6265     1.0  0.78261  0.69585  0.06210  1.0000
  H   H6266     1.0  0.93755  0.67465  0.02766  1.0000
  C   C5236     1.0  0.90036  0.89263  0.06547  1.0000
  H   H6267     1.0  0.90031  0.70067  0.01429  1.0000
  H   H6268     1.0  0.78627  0.64508  0.06610  1.0000
  H   H6269     1.0  0.78773  0.65314  0.04455  1.0000
  C   C5237     1.0  0.88039  0.88091  0.06442  1.0000
  H   H6270     1.0  0.78293  0.61383  0.06801  1.0000
  C   C5238     1.0  0.85939  0.68454  0.10183  1.0000
  H   H6271     1.0  0.90358  0.88315  0.06387  1.0000
  H   H6272     1.0  0.86141  0.85754  0.13930  1.0000
  H   H6273     1.0  0.97937  0.88823  0.08904  1.0000
  C   C5239     1.0  0.86427  0.86577  0.13989  1.0000
  C   C5240     1.0  0.77529  0.62117  0.06486  1.0000
  H   H6274     1.0  0.86116  0.66986  0.08723  1.0000
  H   H6275     1.0  0.80928  0.61489  0.03008  1.0000
  C   C5241     1.0  0.80426  0.62321  0.03322  1.0000
  H   H6276     1.0  0.77205  0.61828  0.05810  1.0000
  C   C5242     1.0  0.80718  0.63439  0.02665  1.0000
  H   H6277     1.0  0.88443  0.90478  0.04281  1.0000
  H   H6278     1.0  0.79181  0.62899  0.07133  1.0000
  C   C5243     1.0  0.78848  0.63345  0.04832  1.0000
  H   H6279     1.0  0.75542  0.63088  0.10294  1.0000
  H   H6280     1.0  0.85140  0.89169  0.15081  1.0000
  C   C5244     1.0  0.77330  0.60004  0.09414  1.0000
  C   C5245     1.0  0.79182  0.64466  0.04146  1.0000
  H   H6281     1.0  0.94581  0.62714  0.13919  1.0000
  H   H6282     1.0  0.86634  0.90702  0.07541  1.0000
  H   H6283     1.0  0.85136  0.68842  0.09740  1.0000
  H   H6284     1.0  0.75368  0.62479  0.14327  1.0000
  H   H6285     1.0  0.87229  0.86508  0.06898  1.0000
  H   H6286     1.0  0.90436  0.85953  0.16619  1.0000
  C   C5246     1.0  0.80093  0.64510  0.03073  1.0000
  H   H6287     1.0  0.85762  0.68884  0.10977  1.0000
  C   C5247     1.0  0.86721  0.66625  0.09394  1.0000
  H   H6288     1.0  0.78918  0.60429  0.09722  1.0000
  N   N352      1.0  0.86162  0.67098  0.10531  1.0000
  C   C5248     1.0  0.87076  0.66640  0.11321  1.0000
  H   H6289     1.0  0.87615  0.66898  0.08937  1.0000
  C   C5249     1.0  0.84342  0.67129  0.12295  1.0000
  H   H6290     1.0  0.81800  0.65935  0.12946  1.0000
  C   C5250     1.0  0.82692  0.66139  0.12476  1.0000
  C   C5251     1.0  0.84435  0.66022  0.10769  1.0000
  H   H6291     1.0  0.84850  0.65688  0.09939  1.0000
  H   H6292     1.0  0.89432  0.91686  0.05787  1.0000
  H   H6293     1.0  0.82717  0.67172  0.13742  1.0000
  C   C5252     1.0  0.83306  0.65730  0.11406  1.0000
  H   H6294     1.0  0.77828  0.59125  0.09205  1.0000
  H   H6295     1.0  0.82888  0.65202  0.11058  1.0000
  C   C5253     1.0  0.87100  0.87445  0.06989  1.0000
  C   C5254     1.0  0.98959  0.60410  0.13624  1.0000
  H   H6296     1.0  0.89199  0.80492  0.14926  1.0000
  H   H6297     1.0  0.91346  0.78363  0.16838  1.0000
  H   H6298     1.0  0.83089  0.71390  0.04413  1.0000
  C   C5255     1.0  0.87257  0.83442  0.17275  1.0000
  C   C5256     1.0  0.99227  0.86693  0.08399  1.0000
  C   C5257     1.0  0.89032  0.79779  0.17310  1.0000
  H   H6299     1.0  0.93543  0.81719  0.16038  1.0000
  H   H6300     1.0  0.89111  0.81801  0.15512  1.0000
  H   H6301     1.0  0.92685  0.82434  0.17983  1.0000
  H   H6302     1.0  0.92385  0.80700  0.15309  1.0000
  C   C5258     1.0  0.76333  0.61034  0.13378  1.0000
  C   C5259     1.0  0.91981  0.80976  0.16170  1.0000
  H   H6303     1.0  0.90498  0.81171  0.14558  1.0000
  H   H6304     1.0  0.90417  0.78436  0.15790  1.0000
  H   H6305     1.0  0.99272  0.87747  0.06038  1.0000
  C   C5260     1.0  0.75077  0.60044  0.12767  1.0000
  H   H6306     1.0  0.98960  0.59698  0.16058  1.0000
  H   H6307     1.0  0.83909  0.84183  0.17597  1.0000
  H   H6308     1.0  0.88331  0.80603  0.17520  1.0000
  C   C5261     1.0  0.98057  0.60047  0.15779  1.0000
  H   H6309     1.0  0.88851  0.88185  0.17987  1.0000
  H   H6310     1.0  0.87785  0.84032  0.17371  1.0000
  H   H6311     1.0  0.99322  0.88433  0.09455  1.0000
  C   C5262     1.0  0.75278  0.61787  0.13908  1.0000
  C   C5263     1.0  0.76231  0.60158  0.12817  1.0000
  Fe  Fe701     1.0  0.87063  0.65489  0.98600  1.0000
  H   H6312     1.0  0.98836  0.58138  0.13818  1.0000
  C   C5264     1.0  0.90334  0.81210  0.17946  1.0000
  H   H6313     1.0  0.74479  0.61832  0.09667  1.0000
  H   H6314     1.0  0.85193  0.93054  0.17884  1.0000
  C   C5265     1.0  0.92523  0.85546  0.17921  1.0000
  H   H6315     1.0  0.91081  0.87165  0.18017  1.0000
  H   H6316     1.0  0.98667  0.61418  0.13545  1.0000
  H   H6317     1.0  0.75054  0.59385  0.12273  1.0000
  C   C5266     1.0  0.98634  0.58412  0.14710  1.0000
  H   H6318     1.0  0.99083  0.89702  0.08172  1.0000
  H   H6319     1.0  0.99018  0.60216  0.12722  1.0000
  Fe  Fe702     1.0  0.87467  0.84194  0.20143  1.0000
  S   S1401     1.0  0.88907  0.83768  0.21238  1.0000
  S   S1402     1.0  0.86852  0.82652  0.19795  1.0000
  Fe  Fe703     1.0  0.87264  0.86912  0.19734  1.0000
  S   S1403     1.0  0.88725  0.86741  0.20739  1.0000
  Fe  Fe704     1.0  0.89732  0.85201  0.19784  1.0000
  Fe  Fe705     1.0  0.87789  0.85329  0.22124  1.0000
  S   S1404     1.0  0.87658  0.85080  0.24150  1.0000
  S   S1405     1.0  0.86242  0.85611  0.21187  1.0000
  Fe  Fe706     1.0  0.76923  0.89520  0.34514  1.0000
  S   S1406     1.0  0.75681  0.91218  0.33705  1.0000
  S   S1407     1.0  0.77782  0.87990  0.33511  1.0000
  H   H6320     1.0  0.80141  0.94130  0.30028  1.0000
  H   H6321     1.0  0.78064  0.93192  0.38078  1.0000
  C   C5267     1.0  0.87524  0.85820  0.35285  1.0000
  Fe  Fe707     1.0  0.76530  0.92201  0.34594  1.0000
  S   S1408     1.0  0.77359  0.93858  0.33551  1.0000
  S   S1409     1.0  0.75576  0.89098  0.36281  1.0000
  S   S1410     1.0  0.77883  0.90514  0.35235  1.0000
  Fe  Fe708     1.0  0.84091  0.96755  0.35557  1.0000
  C   C5268     1.0  0.78474  0.89651  0.30365  1.0000
  Fe  Fe709     1.0  0.83667  0.97528  0.32992  1.0000
  S   S1411     1.0  0.84532  0.97157  0.31117  1.0000
  Fe  Fe710     1.0  0.81491  0.97428  0.35144  1.0000
  S   S1412     1.0  0.79681  0.96792  0.35966  1.0000
  H   H6322     1.0  0.77353  0.92907  0.31404  1.0000
  S   S1413     1.0  0.83148  0.96020  0.34560  1.0000
  C   C5269     1.0  0.84577  0.86192  0.28563  1.0000
  Fe  Fe711     1.0  0.85818  0.89563  0.28529  1.0000
  S   S1414     1.0  0.83811  0.89757  0.29399  1.0000
  S   S1415     1.0  0.86315  0.89754  0.26475  1.0000
  Fe  Fe712     1.0  0.86504  0.89269  0.30969  1.0000
  S   S1416     1.0  0.84565  0.89404  0.32025  1.0000
  S   S1417     1.0  0.88081  0.89064  0.31841  1.0000
  Fe  Fe713     1.0  0.84438  0.88208  0.30869  1.0000
  S   S1418     1.0  0.83517  0.86616  0.31573  1.0000
  Fe  Fe714     1.0  0.84135  0.90947  0.30457  1.0000
  S   S1419     1.0  0.82693  0.92578  0.30925  1.0000
  S   S1420     1.0  0.86428  0.87915  0.29937  1.0000
  S   S1421     1.0  0.86089  0.90906  0.29466  1.0000
  C   C5270     1.0  0.87674  0.88549  0.35969  1.0000
  C   C5271     1.0  0.86618  0.88791  0.35499  1.0000
  C   C5272     1.0  0.86722  0.88953  0.34230  1.0000
  C   C5273     1.0  0.87876  0.88901  0.33432  1.0000
  C   C5274     1.0  0.88919  0.88700  0.33906  1.0000
  C   C5275     1.0  0.88819  0.88520  0.35165  1.0000
  H   H6323     1.0  0.85730  0.88825  0.36114  1.0000
  H   H6324     1.0  0.85916  0.89096  0.33874  1.0000
  H   H6325     1.0  0.89814  0.88659  0.33298  1.0000
  H   H6326     1.0  0.89638  0.88338  0.35520  1.0000
  C   C5276     1.0  0.84001  0.95932  0.30978  1.0000
  C   C5277     1.0  0.84767  0.95093  0.30282  1.0000
  C   C5278     1.0  0.84374  0.94056  0.30256  1.0000
  C   C5279     1.0  0.83204  0.93878  0.30902  1.0000
  C   C5280     1.0  0.82422  0.94749  0.31550  1.0000
  C   C5281     1.0  0.82828  0.95760  0.31611  1.0000
  H   H6327     1.0  0.85673  0.95228  0.29787  1.0000
  H   H6328     1.0  0.84972  0.93404  0.29729  1.0000
  H   H6329     1.0  0.81505  0.94633  0.32024  1.0000
  H   H6330     1.0  0.82228  0.96412  0.32140  1.0000
  C   C5282     1.0  0.79265  0.91503  0.30048  1.0000
  C   C5283     1.0  0.80993  0.93434  0.36024  1.0000
  H   H6331     1.0  0.84638  0.87565  0.26288  1.0000
  H   H6332     1.0  0.86932  0.87689  0.23133  1.0000
  H   H6333     1.0  0.88145  0.85706  0.35878  1.0000
  C   C5284     1.0  0.80115  0.93358  0.29641  1.0000
  C   C5285     1.0  0.78025  0.94638  0.34241  1.0000
  C   C5286     1.0  0.77667  0.94631  0.35492  1.0000
  C   C5287     1.0  0.78158  0.95323  0.35995  1.0000
  C   C5288     1.0  0.79051  0.95985  0.35268  1.0000
  C   C5289     1.0  0.79417  0.95984  0.34019  1.0000
  C   C5290     1.0  0.78893  0.95328  0.33506  1.0000
  H   H6334     1.0  0.76983  0.94124  0.36063  1.0000
  H   H6335     1.0  0.77842  0.95346  0.36953  1.0000
  H   H6336     1.0  0.80091  0.96502  0.33446  1.0000
  H   H6337     1.0  0.79165  0.95354  0.32536  1.0000
  C   C5291     1.0  0.79384  0.87645  0.33021  1.0000
  C   C5292     1.0  0.79942  0.86494  0.32743  1.0000
  C   C5293     1.0  0.81213  0.86184  0.32321  1.0000
  C   C5294     1.0  0.81932  0.87037  0.32135  1.0000
  C   C5295     1.0  0.81379  0.88200  0.32394  1.0000
  C   C5296     1.0  0.80104  0.88497  0.32857  1.0000
  H   H6338     1.0  0.79388  0.85834  0.32870  1.0000
  H   H6339     1.0  0.81637  0.85284  0.32128  1.0000
  H   H6340     1.0  0.81931  0.88865  0.32249  1.0000
  H   H6341     1.0  0.79674  0.89388  0.33066  1.0000
  C   C5297     1.0  0.87348  0.86394  0.24761  1.0000
  C   C5298     1.0  0.87435  0.86253  0.25973  1.0000
  C   C5299     1.0  0.87144  0.87279  0.26504  1.0000
  C   C5300     1.0  0.86773  0.88454  0.25820  1.0000
  C   C5301     1.0  0.86722  0.88597  0.24595  1.0000
  C   C5302     1.0  0.87002  0.87570  0.24068  1.0000
  H   H6342     1.0  0.87715  0.85345  0.26510  1.0000
  H   H6343     1.0  0.87203  0.87162  0.27442  1.0000
  H   H6344     1.0  0.86437  0.89505  0.24061  1.0000
  H   H6345     1.0  0.84403  0.85406  0.29339  1.0000
  H   H6346     1.0  0.83891  0.88517  0.27346  1.0000
  S   S1422     1.0  0.75090  0.92009  0.36332  1.0000
  H   H6347     1.0  0.85114  0.86662  0.18926  1.0000
  H   H6348     1.0  0.81814  0.94123  0.34156  1.0000
  C   C5303     1.0  0.82231  0.84294  0.27259  1.0000
  H   H6349     1.0  0.78980  0.91730  0.32422  1.0000
  H   H6350     1.0  0.89278  0.79195  0.18178  1.0000
  C   C5304     1.0  0.84469  0.85356  0.18394  1.0000
  C   C5305     1.0  0.84214  0.84389  0.25920  1.0000
  C   C5306     1.0  0.84323  0.85288  0.26452  1.0000
  H   H6351     1.0  0.81578  0.85455  0.28526  1.0000
  Fe  Fe715     1.0  0.76413  0.90270  0.36929  1.0000
  H   H6352     1.0  0.85162  0.85626  0.26117  1.0000
  C   C5307     1.0  0.83382  0.85731  0.27399  1.0000
  N   N353      1.0  0.79274  0.92582  0.30491  1.0000
  C   C5308     1.0  0.92622  0.88336  0.19250  1.0000
  H   H6353     1.0  0.80677  0.87051  0.37326  1.0000
  H   H6354     1.0  0.81077  0.92825  0.29467  1.0000
  H   H6355     1.0  0.81352  0.92559  0.33367  1.0000
  H   H6356     1.0  0.77662  0.93640  0.29813  1.0000
  H   H6357     1.0  0.80331  0.90948  0.34788  1.0000
  H   H6358     1.0  0.81604  0.87499  0.28458  1.0000
  H   H6359     1.0  0.90124  0.85635  0.24294  1.0000
  H   H6360     1.0  0.84752  0.86898  0.28942  1.0000
  H   H6361     1.0  0.82317  0.86713  0.35061  1.0000
  C   C5309     1.0  0.86260  0.85980  0.35763  1.0000
  H   H6362     1.0  0.90629  0.82144  0.19182  1.0000
  H   H6363     1.0  0.87543  0.86167  0.32292  1.0000
  C   C5310     1.0  0.85914  0.86239  0.33735  1.0000
  H   H6364     1.0  0.90669  0.84957  0.21773  1.0000
  H   H6365     1.0  0.85348  0.86411  0.33082  1.0000
  H   H6366     1.0  0.83756  0.91955  0.37143  1.0000
  H   H6367     1.0  0.88958  0.85808  0.33663  1.0000
  H   H6368     1.0  0.82701  0.87816  0.36346  1.0000
  C   C5311     1.0  0.80355  0.92553  0.36866  1.0000
  C   C5312     1.0  0.80147  0.91640  0.36387  1.0000
  H   H6369     1.0  0.91005  0.89630  0.19869  1.0000
  C   C5313     1.0  0.91556  0.88712  0.20082  1.0000
  H   H6370     1.0  0.84188  0.85307  0.37334  1.0000
  H   H6371     1.0  0.85575  0.81338  0.18987  1.0000
  H   H6372     1.0  0.81208  0.94159  0.36294  1.0000
  H   H6373     1.0  0.86320  0.92871  0.37685  1.0000
  N   N354      1.0  0.91532  0.85814  0.22632  1.0000
  C   C5314     1.0  0.91351  0.84706  0.22358  1.0000
  C   C5315     1.0  0.92522  0.85443  0.23328  1.0000
  C   C5316     1.0  0.90380  0.86322  0.23442  1.0000
  C   C5317     1.0  0.91885  0.86693  0.21476  1.0000
  C   C5318     1.0  0.92962  0.86341  0.20603  1.0000
  C   C5319     1.0  0.91190  0.87910  0.21183  1.0000
  C   C5320     1.0  0.93324  0.87154  0.19511  1.0000
  S   S1423     1.0  0.87633  0.88232  0.37549  1.0000
  H   H6374     1.0  0.94133  0.86854  0.18843  1.0000
  H   H6375     1.0  0.91006  0.84055  0.23202  1.0000
  C   C5321     1.0  0.79661  0.92166  0.31680  1.0000
  C   C5322     1.0  0.79949  0.90215  0.28520  1.0000
  H   H6376     1.0  0.93395  0.84950  0.22829  1.0000
  C   C5323     1.0  0.81348  0.93427  0.34779  1.0000
  H   H6377     1.0  0.92715  0.86258  0.23513  1.0000
  H   H6378     1.0  0.89589  0.86591  0.22985  1.0000
  H   H6379     1.0  0.80505  0.90039  0.27648  1.0000
  H   H6380     1.0  0.90458  0.87131  0.23734  1.0000
  H   H6381     1.0  0.93521  0.85423  0.20744  1.0000
  H   H6382     1.0  0.90351  0.88262  0.21780  1.0000
  H   H6383     1.0  0.86740  0.91461  0.18868  1.0000
  H   H6384     1.0  0.79699  0.90917  0.36974  1.0000
  N   N355      1.0  0.84077  0.86427  0.35525  1.0000
  H   H6385     1.0  0.82567  0.87843  0.29235  1.0000
  N   N356      1.0  0.83528  0.86686  0.27943  1.0000
  C   C5324     1.0  0.85414  0.86198  0.35002  1.0000
  C   C5325     1.0  0.79192  0.89422  0.29247  1.0000
  C   C5326     1.0  0.83711  0.87570  0.35995  1.0000
  H   H6386     1.0  0.77890  0.89030  0.30937  1.0000
  H   H6387     1.0  0.78005  0.94223  0.30941  1.0000
  C   C5327     1.0  0.78021  0.93369  0.30665  1.0000
  C   C5328     1.0  0.83777  0.87777  0.26970  1.0000
  H   H6388     1.0  0.81423  0.83898  0.27574  1.0000
  C   C5329     1.0  0.82331  0.85197  0.27796  1.0000
  H   H6389     1.0  0.83550  0.85746  0.34233  1.0000
  C   C5330     1.0  0.87983  0.85879  0.34039  1.0000
  H   H6390     1.0  0.83022  0.88162  0.26463  1.0000
  H   H6391     1.0  0.78583  0.88292  0.37226  1.0000
  H   H6392     1.0  0.79830  0.93771  0.28753  1.0000
  H   H6393     1.0  0.84114  0.84503  0.36242  1.0000
  S   S1424     1.0  0.85463  0.95368  0.36542  1.0000
  H   H6394     1.0  0.77943  0.90801  0.31645  1.0000
  S   S1425     1.0  0.82404  0.98077  0.36277  1.0000
  C   C5331     1.0  0.82431  0.87113  0.28860  1.0000
  H   H6395     1.0  0.85444  0.85861  0.27939  1.0000
  H   H6396     1.0  0.84951  0.84074  0.25195  1.0000
  H   H6397     1.0  0.92207  0.84187  0.21860  1.0000
  H   H6398     1.0  0.83987  0.88354  0.35269  1.0000
  H   H6399     1.0  0.79767  0.92947  0.32002  1.0000
  C   C5332     1.0  0.80199  0.87601  0.37998  1.0000
  H   H6400     1.0  0.79156  0.88628  0.28947  1.0000
  H   H6401     1.0  0.92269  0.84814  0.24224  1.0000
  H   H6402     1.0  0.83426  0.87387  0.33876  1.0000
  H   H6403     1.0  0.83088  0.83195  0.25906  1.0000
  S   S1426     1.0  0.84769  0.98141  0.33932  1.0000
  H   H6404     1.0  0.80557  0.91496  0.31611  1.0000
  C   C5333     1.0  0.80507  0.91644  0.35138  1.0000
  C   C5334     1.0  0.84735  0.94362  0.37758  1.0000
  C   C5335     1.0  0.87181  0.86086  0.33267  1.0000
  H   H6405     1.0  0.84140  0.87485  0.36771  1.0000
  C   C5336     1.0  0.81088  0.92548  0.34334  1.0000
  H   H6406     1.0  0.82239  0.86360  0.29667  1.0000
  N   N357      1.0  0.86493  0.92872  0.33437  1.0000
  C   C5337     1.0  0.86147  0.94224  0.33292  1.0000
  C   C5338     1.0  0.87553  0.92385  0.34046  1.0000
  C   C5339     1.0  0.86908  0.92594  0.32197  1.0000
  C   C5340     1.0  0.85438  0.92333  0.34196  1.0000
  C   C5341     1.0  0.84996  0.92439  0.35432  1.0000
  C   C5342     1.0  0.84825  0.91694  0.33747  1.0000
  C   C5343     1.0  0.84062  0.91869  0.36197  1.0000
  C   C5344     1.0  0.83891  0.91123  0.34521  1.0000
  C   C5345     1.0  0.83529  0.91189  0.35749  1.0000
  H   H6407     1.0  0.85931  0.94510  0.34179  1.0000
  H   H6408     1.0  0.86896  0.94676  0.32686  1.0000
  H   H6409     1.0  0.85320  0.94614  0.32886  1.0000
  H   H6410     1.0  0.87378  0.92681  0.34922  1.0000
  H   H6411     1.0  0.88392  0.92703  0.33467  1.0000
  H   H6412     1.0  0.87776  0.91362  0.34255  1.0000
  H   H6413     1.0  0.86181  0.92993  0.31657  1.0000
  H   H6414     1.0  0.87720  0.92984  0.31657  1.0000
  H   H6415     1.0  0.87183  0.91586  0.32246  1.0000
  H   H6416     1.0  0.85379  0.92962  0.35817  1.0000
  H   H6417     1.0  0.85060  0.91607  0.32806  1.0000
  C   C5346     1.0  0.83780  0.85389  0.36546  1.0000
  H   H6418     1.0  0.83438  0.90639  0.34162  1.0000
  H   H6419     1.0  0.82810  0.90740  0.36346  1.0000
  H   H6420     1.0  0.80596  0.91817  0.28302  1.0000
  C   C5347     1.0  0.79989  0.91242  0.28909  1.0000
  C   C5348     1.0  0.83168  0.83895  0.26320  1.0000
  C   C5349     1.0  0.83315  0.86572  0.34633  1.0000
  C   C5350     1.0  0.78509  0.90672  0.30763  1.0000
  C   C5351     1.0  0.79012  0.88304  0.37940  1.0000
  H   H6421     1.0  0.82773  0.85504  0.36924  1.0000
  H   H6422     1.0  0.85948  0.85979  0.36727  1.0000
  S   S1427     1.0  0.91767  0.84586  0.19166  1.0000
  H   H6423     1.0  0.92894  0.88952  0.18388  1.0000
  S   S1428     1.0  0.86232  0.88700  0.18828  1.0000
  C   C5352     1.0  0.86701  0.82685  0.18317  1.0000
  H   H6424     1.0  0.79570  0.94495  0.38021  1.0000
  H   H6425     1.0  0.83018  0.95665  0.38059  1.0000
  C   C5353     1.0  0.91009  0.81805  0.18344  1.0000
  H   H6426     1.0  0.84263  0.84819  0.19317  1.0000
  H   H6427     1.0  0.89438  0.81125  0.18513  1.0000
  S   S1429     1.0  0.88372  0.85520  0.18622  1.0000
  C   C5354     1.0  0.86009  0.81925  0.18186  1.0000
  C   C5355     1.0  0.84963  0.86384  0.18170  1.0000
  N   N358      1.0  0.84540  0.90562  0.43706  1.0000
  Fe  Fe716     1.0  0.90161  0.77946  0.56277  1.0000
  S   S1430     1.0  0.91075  0.78642  0.54334  1.0000
  Fe  Fe717     1.0  0.87815  0.84233  0.50675  1.0000
  S   S1431     1.0  0.87986  0.85275  0.51954  1.0000
  S   S1432     1.0  0.87233  0.82425  0.51433  1.0000
  Fe  Fe718     1.0  0.88565  0.86142  0.48415  1.0000
  S   S1433     1.0  0.88871  0.87335  0.49503  1.0000
  S   S1434     1.0  0.88901  0.86590  0.46343  1.0000
  Fe  Fe719     1.0  0.89738  0.85579  0.50643  1.0000
  S   S1435     1.0  0.91379  0.85066  0.51514  1.0000
  Fe  Fe720     1.0  0.87103  0.86934  0.50735  1.0000
  S   S1436     1.0  0.85660  0.88348  0.51598  1.0000
  S   S1437     1.0  0.89629  0.84419  0.49423  1.0000
  S   S1438     1.0  0.86732  0.85867  0.49584  1.0000
  N   N359      1.0  0.88807  0.89154  0.55913  1.0000
  C   C5356     1.0  0.78371  0.88989  0.38826  1.0000
  Fe  Fe721     1.0  0.92906  0.86835  0.56748  1.0000
  S   S1439     1.0  0.92738  0.87813  0.54814  1.0000
  H   H6428     1.0  0.81711  0.91495  0.38578  1.0000
  H   H6429     1.0  0.80447  0.91375  0.39863  1.0000
  H   H6430     1.0  0.91717  0.61553  0.57281  1.0000
  S   S1440     1.0  0.82327  0.85345  0.55907  1.0000
  C   C5357     1.0  0.89691  0.88214  0.56570  1.0000
  H   H6431     1.0  0.78822  0.90805  0.55084  1.0000
  C   C5358     1.0  0.94256  0.83729  0.52986  1.0000
  C   C5359     1.0  0.89493  0.89997  0.54932  1.0000
  H   H6432     1.0  0.74909  0.91699  0.55614  1.0000
  Fe  Fe722     1.0  0.84847  0.87199  0.41671  1.0000
  S   S1441     1.0  0.82907  0.88118  0.41488  1.0000
  S   S1442     1.0  0.85033  0.86173  0.43593  1.0000
  H   H6433     1.0  0.85823  0.91673  0.42568  1.0000
  H   H6434     1.0  0.84948  0.91258  0.41750  1.0000
  Fe  Fe723     1.0  0.83719  0.89721  0.40378  1.0000
  S   S1443     1.0  0.82749  0.91613  0.40649  1.0000
  Fe  Fe724     1.0  0.83405  0.87489  0.39727  1.0000
  C   C5360     1.0  0.86094  0.52844  0.56467  1.0000
  S   S1444     1.0  0.85623  0.88858  0.40675  1.0000
  S   S1445     1.0  0.85279  0.86415  0.39992  1.0000
  H   H6435     1.0  0.84115  0.51845  0.56706  1.0000
  S   S1446     1.0  0.84038  0.89188  0.38589  1.0000
  S   S1447     1.0  0.76885  0.89874  0.38771  1.0000
  C   C5361     1.0  0.94192  0.64490  0.58108  1.0000
  C   C5362     1.0  0.88388  0.84339  0.56398  1.0000
  H   H6436     1.0  0.89061  0.83920  0.58051  1.0000
  H   H6437     1.0  0.79634  0.88800  0.53262  1.0000
  H   H6438     1.0  0.84157  0.50594  0.56063  1.0000
  C   C5363     1.0  0.80127  0.88305  0.39798  1.0000
  C   C5364     1.0  0.78927  0.88981  0.39760  1.0000
  H   H6439     1.0  0.88724  0.87021  0.53065  1.0000
  H   H6440     1.0  0.90351  0.68513  0.57049  1.0000
  H   H6441     1.0  0.80551  0.88301  0.40522  1.0000
  H   H6442     1.0  0.78430  0.89503  0.40452  1.0000
  C   C5365     1.0  0.86390  0.87752  0.55416  1.0000
  H   H6443     1.0  0.84291  0.82927  0.55886  1.0000
  H   H6444     1.0  0.83573  0.89876  0.42776  1.0000
  H   H6445     1.0  0.87030  0.90160  0.43832  1.0000
  Fe  Fe725     1.0  0.87690  0.77903  0.58005  1.0000
  H   H6446     1.0  0.84997  0.51785  0.53966  1.0000
  C   C5366     1.0  0.84022  0.89580  0.43574  1.0000
  C   C5367     1.0  0.88174  0.88530  0.55389  1.0000
  H   H6447     1.0  0.78644  0.87043  0.54554  1.0000
  H   H6448     1.0  0.84705  0.84143  0.56256  1.0000
  H   H6449     1.0  0.90340  0.87616  0.55972  1.0000
  H   H6450     1.0  0.86573  0.88882  0.47683  1.0000
  C   C5368     1.0  0.84641  0.87576  0.52748  1.0000
  C   C5369     1.0  0.84493  0.86447  0.52661  1.0000
  C   C5370     1.0  0.83745  0.85785  0.53620  1.0000
  C   C5371     1.0  0.83187  0.86226  0.54687  1.0000
  C   C5372     1.0  0.83336  0.87353  0.54778  1.0000
  C   C5373     1.0  0.84044  0.88041  0.53797  1.0000
  H   H6451     1.0  0.84952  0.86084  0.51854  1.0000
  H   H6452     1.0  0.83628  0.84914  0.53548  1.0000
  H   H6453     1.0  0.82908  0.87699  0.55598  1.0000
  H   H6454     1.0  0.84170  0.88909  0.53868  1.0000
  C   C5374     1.0  0.91512  0.85955  0.52466  1.0000
  C   C5375     1.0  0.91911  0.87056  0.51959  1.0000
  C   C5376     1.0  0.92272  0.87624  0.52691  1.0000
  C   C5377     1.0  0.92256  0.87085  0.53929  1.0000
  C   C5378     1.0  0.91824  0.86000  0.54443  1.0000
  C   C5379     1.0  0.91439  0.85448  0.53716  1.0000
  H   H6455     1.0  0.91994  0.87442  0.50990  1.0000
  H   H6456     1.0  0.92601  0.88465  0.52287  1.0000
  H   H6457     1.0  0.91810  0.85571  0.55391  1.0000
  H   H6458     1.0  0.91137  0.84597  0.54110  1.0000
  C   C5380     1.0  0.87767  0.86606  0.45574  1.0000
  C   C5381     1.0  0.88049  0.86787  0.44293  1.0000
  C   C5382     1.0  0.87195  0.86717  0.43665  1.0000
  C   C5383     1.0  0.86062  0.86442  0.44318  1.0000
  C   C5384     1.0  0.85765  0.86302  0.45593  1.0000
  C   C5385     1.0  0.86606  0.86401  0.46215  1.0000
  H   H6459     1.0  0.88942  0.86958  0.43787  1.0000
  H   H6460     1.0  0.87435  0.86825  0.42681  1.0000
  H   H6461     1.0  0.84884  0.86101  0.46103  1.0000
  H   H6462     1.0  0.86359  0.86303  0.47193  1.0000
  C   C5386     1.0  0.90019  0.79599  0.53456  1.0000
  C   C5387     1.0  0.88776  0.79546  0.53806  1.0000
  C   C5388     1.0  0.87932  0.80380  0.53143  1.0000
  C   C5389     1.0  0.88318  0.81305  0.52168  1.0000
  C   C5390     1.0  0.89563  0.81344  0.51807  1.0000
  C   C5391     1.0  0.90415  0.80470  0.52427  1.0000
  H   H6463     1.0  0.88465  0.78862  0.54587  1.0000
  H   H6464     1.0  0.86973  0.80329  0.53408  1.0000
  H   H6465     1.0  0.89876  0.82039  0.51044  1.0000
  H   H6466     1.0  0.91380  0.80492  0.52126  1.0000
  C   C5392     1.0  0.80723  0.91447  0.38855  1.0000
  C   C5393     1.0  0.86951  0.88375  0.55911  1.0000
  N   N360      1.0  0.91501  0.59898  0.56900  1.0000
  H   H6467     1.0  0.87819  0.63945  0.56686  1.0000
  H   H6468     1.0  0.90311  0.89498  0.54364  1.0000
  C   C5394     1.0  0.87800  0.51113  0.56221  1.0000
  C   C5395     1.0  0.92552  0.59089  0.57418  1.0000
  H   H6469     1.0  0.89382  0.51128  0.56858  1.0000
  C   C5396     1.0  0.80762  0.87608  0.38920  1.0000
  H   H6470     1.0  0.81076  0.93711  0.38291  1.0000
  H   H6471     1.0  0.87174  0.62034  0.56819  1.0000
  H   H6472     1.0  0.87221  0.90566  0.56368  1.0000
  C   C5397     1.0  0.75758  0.89806  0.55610  1.0000
  H   H6473     1.0  0.89673  0.59931  0.56733  1.0000
  H   H6474     1.0  0.84946  0.50354  0.57269  1.0000
  C   C5398     1.0  0.86904  0.89544  0.45734  1.0000
  H   H6475     1.0  0.86402  0.88731  0.56698  1.0000
  H   H6476     1.0  0.87740  0.72422  0.57767  1.0000
  H   H6477     1.0  0.80925  0.87993  0.53953  1.0000
  H   H6478     1.0  0.85166  0.53340  0.56419  1.0000
  H   H6479     1.0  0.88467  0.53094  0.57517  1.0000
  H   H6480     1.0  0.74889  0.89533  0.55788  1.0000
  C   C5399     1.0  0.88495  0.83690  0.57576  1.0000
  H   H6481     1.0  0.89215  0.87602  0.57351  1.0000
  C   C5400     1.0  0.87141  0.82442  0.57538  1.0000
  C   C5401     1.0  0.91531  0.66813  0.57731  1.0000
  C   C5402     1.0  0.93744  0.82558  0.55442  1.0000
  C   C5403     1.0  0.93117  0.82367  0.54640  1.0000
  H   H6482     1.0  0.79099  0.88098  0.57145  1.0000
  C   C5404     1.0  0.88230  0.87391  0.53867  1.0000
  H   H6483     1.0  0.95410  0.84589  0.53505  1.0000
  C   C5405     1.0  0.76856  0.88925  0.55506  1.0000
  H   H6484     1.0  0.79772  0.93615  0.39510  1.0000
  H   H6485     1.0  0.87366  0.50171  0.54427  1.0000
  C   C5406     1.0  0.90456  0.59296  0.57117  1.0000
  H   H6486     1.0  0.93260  0.80192  0.56267  1.0000
  C   C5407     1.0  0.88802  0.87998  0.54365  1.0000
  C   C5408     1.0  0.94804  0.83948  0.53813  1.0000
  H   H6487     1.0  0.90505  0.81525  0.56511  1.0000
  H   H6488     1.0  0.93456  0.79953  0.54757  1.0000
  C   C5409     1.0  0.84719  0.51001  0.56423  1.0000
  S   S1448     1.0  0.94685  0.85692  0.57202  1.0000
  H   H6489     1.0  0.85245  0.91374  0.39254  1.0000
  N   N361      1.0  0.88292  0.82438  0.47469  1.0000
  C   C5410     1.0  0.89280  0.83111  0.46777  1.0000
  C   C5411     1.0  0.87320  0.83235  0.48202  1.0000
  C   C5412     1.0  0.88831  0.81360  0.48339  1.0000
  C   C5413     1.0  0.87751  0.82119  0.46610  1.0000
  C   C5414     1.0  0.87291  0.83046  0.45664  1.0000
  C   C5415     1.0  0.87622  0.80908  0.46706  1.0000
  C   C5416     1.0  0.86739  0.82783  0.44864  1.0000
  C   C5417     1.0  0.87073  0.80653  0.45895  1.0000
  C   C5418     1.0  0.86631  0.81588  0.44977  1.0000
  H   H6490     1.0  0.89973  0.82589  0.46128  1.0000
  H   H6491     1.0  0.88924  0.84031  0.46244  1.0000
  H   H6492     1.0  0.89770  0.83288  0.47392  1.0000
  H   H6493     1.0  0.86893  0.84087  0.47624  1.0000
  H   H6494     1.0  0.87692  0.83516  0.48843  1.0000
  H   H6495     1.0  0.86572  0.82755  0.48760  1.0000
  H   H6496     1.0  0.89570  0.80713  0.47851  1.0000
  H   H6497     1.0  0.89245  0.81640  0.48956  1.0000
  H   H6498     1.0  0.88120  0.80864  0.48963  1.0000
  H   H6499     1.0  0.87341  0.83989  0.45542  1.0000
  H   H6500     1.0  0.87931  0.80146  0.47403  1.0000
  H   H6501     1.0  0.86382  0.83516  0.44158  1.0000
  H   H6502     1.0  0.86980  0.79725  0.45983  1.0000
  H   H6503     1.0  0.86197  0.81391  0.44356  1.0000
  H   H6504     1.0  0.86736  0.49316  0.55918  1.0000
  H   H6505     1.0  0.89872  0.90566  0.55309  1.0000
  C   C5419     1.0  0.87024  0.87273  0.54389  1.0000
  H   H6506     1.0  0.92079  0.81235  0.53434  1.0000
  H   H6507     1.0  0.90730  0.81142  0.54599  1.0000
  C   C5420     1.0  0.79059  0.87073  0.55300  1.0000
  H   H6508     1.0  0.86162  0.90127  0.42322  1.0000
  H   H6509     1.0  0.94432  0.84207  0.52036  1.0000
  C   C5421     1.0  0.86165  0.89240  0.46886  1.0000
  C   C5422     1.0  0.91699  0.68825  0.57817  1.0000
  S   S1449     1.0  0.88808  0.79335  0.57244  1.0000
  C   C5423     1.0  0.86395  0.89973  0.44695  1.0000
  C   C5424     1.0  0.76880  0.91372  0.55319  1.0000
  C   C5425     1.0  0.91025  0.60994  0.57450  1.0000
  C   C5426     1.0  0.91478  0.81660  0.54199  1.0000
  H   H6510     1.0  0.88862  0.85087  0.55961  1.0000
  H   H6511     1.0  0.93596  0.82109  0.56394  1.0000
  C   C5427     1.0  0.91266  0.82033  0.56174  1.0000
  H   H6512     1.0  0.93028  0.82836  0.52696  1.0000
  C   C5428     1.0  0.87959  0.52724  0.57095  1.0000
  C   C5429     1.0  0.82920  0.93902  0.39269  1.0000
  C   C5430     1.0  0.83532  0.91651  0.43865  1.0000
  H   H6513     1.0  0.91676  0.81889  0.56971  1.0000
  H   H6514     1.0  0.85451  0.87654  0.55827  1.0000
  N   N362      1.0  0.86234  0.82740  0.55711  1.0000
  C   C5431     1.0  0.86500  0.81397  0.55805  1.0000
  C   C5432     1.0  0.84939  0.83137  0.56317  1.0000
  C   C5433     1.0  0.86374  0.83329  0.54391  1.0000
  C   C5434     1.0  0.87036  0.83060  0.56324  1.0000
  H   H6515     1.0  0.86339  0.52386  0.53752  1.0000
  C   C5435     1.0  0.87682  0.84025  0.55772  1.0000
  C   C5436     1.0  0.78652  0.92453  0.38633  1.0000
  C   C5437     1.0  0.86589  0.51722  0.56067  1.0000
  H   H6516     1.0  0.91362  0.69812  0.57650  1.0000
  H   H6517     1.0  0.86260  0.80877  0.56756  1.0000
  H   H6518     1.0  0.85958  0.81140  0.55291  1.0000
  H   H6519     1.0  0.87489  0.81051  0.55436  1.0000
  C   C5438     1.0  0.88468  0.51613  0.56728  1.0000
  C   C5439     1.0  0.83535  0.92683  0.39586  1.0000
  C   C5440     1.0  0.93601  0.59547  0.57329  1.0000
  H   H6520     1.0  0.87341  0.83084  0.53888  1.0000
  H   H6521     1.0  0.85801  0.83030  0.53942  1.0000
  H   H6522     1.0  0.84902  0.53006  0.54666  1.0000
  N   N363      1.0  0.79964  0.92533  0.38192  1.0000
  H   H6523     1.0  0.87651  0.84555  0.54858  1.0000
  N   N364      1.0  0.79188  0.88334  0.55227  1.0000
  C   C5441     1.0  0.80099  0.93638  0.38514  1.0000
  H   H6524     1.0  0.92092  0.79710  0.55884  1.0000
  H   H6525     1.0  0.89742  0.88047  0.53934  1.0000
  H   H6526     1.0  0.84753  0.88751  0.43437  1.0000
  N   N365      1.0  0.92174  0.81609  0.55117  1.0000
  C   C5442     1.0  0.79748  0.88282  0.56249  1.0000
  C   C5443     1.0  0.87891  0.63203  0.57480  1.0000
  C   C5444     1.0  0.75768  0.91025  0.55518  1.0000
  H   H6527     1.0  0.84746  0.82686  0.57301  1.0000
  C   C5445     1.0  0.80047  0.88693  0.54055  1.0000
  H   H6528     1.0  0.91135  0.60884  0.55131  1.0000
  H   H6529     1.0  0.78493  0.86707  0.56195  1.0000
  Fe  Fe726     1.0  0.85878  0.88172  0.38970  1.0000
  C   C5446     1.0  0.77985  0.90498  0.55215  1.0000
  C   C5447     1.0  0.85114  0.90120  0.44785  1.0000
  C   C5448     1.0  0.84910  0.89364  0.47007  1.0000
  H   H6530     1.0  0.90234  0.61620  0.57077  1.0000
  H   H6531     1.0  0.92312  0.59503  0.55118  1.0000
  H   H6532     1.0  0.80311  0.89568  0.53977  1.0000
  H   H6533     1.0  0.80589  0.87544  0.56280  1.0000
  C   C5449     1.0  0.93436  0.82939  0.53385  1.0000
  S   S1450     1.0  0.74791  0.87303  0.57839  1.0000
  H   H6534     1.0  0.88444  0.90398  0.57121  1.0000
  C   C5450     1.0  0.86509  0.50065  0.55128  1.0000
  H   H6535     1.0  0.87887  0.89405  0.45644  1.0000
  H   H6536     1.0  0.90246  0.88632  0.56926  1.0000
  H   H6537     1.0  0.91022  0.66302  0.57473  1.0000
  H   H6538     1.0  0.83416  0.89856  0.46113  1.0000
  H   H6539     1.0  0.84344  0.89109  0.47905  1.0000
  H   H6540     1.0  0.83124  0.92037  0.43038  1.0000
  H   H6541     1.0  0.76884  0.92320  0.55260  1.0000
  C   C5451     1.0  0.84389  0.89796  0.45975  1.0000
  H   H6542     1.0  0.83871  0.92390  0.44032  1.0000
  C   C5452     1.0  0.78008  0.89246  0.55303  1.0000
  H   H6543     1.0  0.82761  0.91434  0.44638  1.0000
  C   C5453     1.0  0.85412  0.90920  0.42540  1.0000
  H   H6544     1.0  0.83318  0.89286  0.44386  1.0000
  H   H6545     1.0  0.80652  0.90579  0.38676  1.0000
  H   H6546     1.0  0.88893  0.90624  0.54315  1.0000
  H   H6547     1.0  0.80022  0.89150  0.56181  1.0000
  S   S1451     1.0  0.88957  0.76570  0.56892  1.0000
  H   H6548     1.0  0.94995  0.83509  0.55680  1.0000
  H   H6549     1.0  0.91040  0.82619  0.53813  1.0000
  H   H6550     1.0  0.93650  0.60489  0.56902  1.0000
  H   H6551     1.0  0.92619  0.60863  0.55324  1.0000
  H   H6552     1.0  0.77151  0.85801  0.58076  1.0000
  S   S1452     1.0  0.91802  0.85446  0.57879  1.0000
  S   S1453     1.0  0.82250  0.86725  0.38969  1.0000
  H   H6553     1.0  0.86067  0.84344  0.54240  1.0000
  H   H6554     1.0  0.81979  0.94197  0.39724  1.0000
  H   H6555     1.0  0.90861  0.83026  0.55925  1.0000
  C   C5454     1.0  0.85509  0.52143  0.54429  1.0000
  C   C5455     1.0  0.94562  0.83349  0.55036  1.0000
  N   N366      1.0  0.85855  0.51234  0.55520  1.0000
  C   C5456     1.0  0.94598  0.58809  0.57824  1.0000
  C   C5457     1.0  0.92773  0.80312  0.55526  1.0000
  H   H6556     1.0  0.79964  0.86414  0.55220  1.0000
  H   H6557     1.0  0.86579  0.86814  0.53993  1.0000
  C   C5458     1.0  0.91911  0.60305  0.55560  1.0000
  H   H6558     1.0  0.76769  0.87994  0.55619  1.0000
  Fe  Fe727     1.0  0.82385  0.85675  0.57697  1.0000
  C   C5459     1.0  0.87955  0.89887  0.56792  1.0000
  H   H6559     1.0  0.90721  0.58490  0.56684  1.0000
  H   H6560     1.0  0.88247  0.50244  0.55970  1.0000
  C   C5460     1.0  0.91132  0.68090  0.57477  1.0000
  H   H6561     1.0  0.92195  0.64393  0.57424  1.0000
  H   H6562     1.0  0.87515  0.89297  0.57632  1.0000
  H   H6563     1.0  0.95363  0.59195  0.57797  1.0000
  H   H6564     1.0  0.90081  0.58997  0.58113  1.0000
  C   C5461     1.0  0.87530  0.62121  0.57555  1.0000
  H   H6565     1.0  0.86648  0.81725  0.58036  1.0000
  S   S1454     1.0  0.91200  0.77159  0.57793  1.0000
  H   H6566     1.0  0.86366  0.54180  0.57292  1.0000
  H   H6567     1.0  0.94308  0.64780  0.57098  1.0000
  C   C5462     1.0  0.84762  0.92313  0.39016  1.0000
  H   H6568     1.0  0.85934  0.49727  0.54715  1.0000
  C   C5463     1.0  0.86773  0.53336  0.56967  1.0000
  H   H6569     1.0  0.78304  0.92530  0.39605  1.0000
  H   H6570     1.0  0.78486  0.91568  0.38592  1.0000
  C   C5464     1.0  0.83509  0.94733  0.38331  1.0000
  H   H6571     1.0  0.88914  0.73914  0.57788  1.0000
  C   C5465     1.0  0.92577  0.57839  0.58009  1.0000
  C   C5466     1.0  0.85370  0.93160  0.38125  1.0000
  C   C5467     1.0  0.97321  0.81558  0.59841  1.0000
  S   S1455     1.0  0.88511  0.77089  0.59653  1.0000
  C   C5468     1.0  0.87879  0.82737  0.58141  1.0000
  C   C5469     1.0  0.83604  0.60812  0.74260  1.0000
  C   C5470     1.0  0.75640  0.86398  0.62497  1.0000
  S   S1456     1.0  0.89715  0.79805  0.59883  1.0000
  H   H6572     1.0  0.91168  0.64426  0.58902  1.0000
  H   H6573     1.0  0.74882  0.89097  0.59128  1.0000
  H   H6574     1.0  0.93849  0.66639  0.59114  1.0000
  S   S1457     1.0  0.83860  0.51145  0.59497  1.0000
  Fe  Fe728     1.0  0.91564  0.86398  0.59387  1.0000
  S   S1458     1.0  0.89715  0.86740  0.60675  1.0000
  H   H6575     1.0  0.82363  0.52181  0.63005  1.0000
  C   C5471     1.0  0.82632  0.61041  0.76369  1.0000
  H   H6576     1.0  0.99020  0.64100  0.59027  1.0000
  H   H6577     1.0  0.89268  0.60273  0.65230  1.0000
  S   S1459     1.0  0.93243  0.85224  0.60078  1.0000
  N   N367      1.0  0.85677  0.74942  0.60374  1.0000
  H   H6578     1.0  0.94005  0.56553  0.64391  1.0000
  C   C5472     1.0  0.88147  0.86382  0.59422  1.0000
  N   N368      1.0  0.96886  0.82741  0.60248  1.0000
  C   C5473     1.0  0.97260  0.91050  0.60087  1.0000
  Fe  Fe729     1.0  0.82819  0.84381  0.60204  1.0000
  S   S1460     1.0  0.83571  0.82573  0.61333  1.0000
  S   S1461     1.0  0.82276  0.86124  0.60896  1.0000
  H   H6579     1.0  0.87528  0.88542  0.61107  1.0000
  C   C5474     1.0  0.89554  0.60907  0.64345  1.0000
  S   S1462     1.0  0.98402  0.88119  0.62863  1.0000
  H   H6580     1.0  0.95807  0.81989  0.61974  1.0000
  H   H6581     1.0  0.93476  0.64838  0.60363  1.0000
  H   H6582     1.0  0.88870  0.85636  0.59141  1.0000
  Fe  Fe730     1.0  0.89094  0.61839  0.68853  1.0000
  S   S1463     1.0  0.88130  0.61624  0.67524  1.0000
  S   S1464     1.0  0.90581  0.62923  0.68190  1.0000
  Fe  Fe731     1.0  0.87535  0.60446  0.71053  1.0000
  S   S1465     1.0  0.86434  0.60092  0.69905  1.0000
  S   S1466     1.0  0.87378  0.59562  0.73064  1.0000
  Fe  Fe732     1.0  0.88236  0.59693  0.68590  1.0000
  S   S1467     1.0  0.89029  0.58209  0.67520  1.0000
  Fe  Fe733     1.0  0.86414  0.62057  0.68929  1.0000
  S   S1468     1.0  0.84683  0.63394  0.68531  1.0000
  S   S1469     1.0  0.89346  0.59869  0.69817  1.0000
  S   S1470     1.0  0.87367  0.62445  0.70183  1.0000
  C   C5475     1.0  0.95372  0.93115  0.59769  1.0000
  C   C5476     1.0  0.88119  0.61264  0.59503  1.0000
  Fe  Fe734     1.0  0.96043  0.61178  0.63345  1.0000
  S   S1471     1.0  0.94519  0.62345  0.62446  1.0000
  S   S1472     1.0  0.95526  0.60133  0.65277  1.0000
  Fe  Fe735     1.0  0.95477  0.61455  0.60867  1.0000
  S   S1473     1.0  0.94158  0.61114  0.59913  1.0000
  Fe  Fe736     1.0  0.95756  0.63680  0.61643  1.0000
  C   C5477     1.0  0.75713  0.88395  0.59135  1.0000
  S   S1474     1.0  0.96955  0.60188  0.61807  1.0000
  S   S1475     1.0  0.97201  0.62598  0.62693  1.0000
  Fe  Fe737     1.0  0.87578  0.68147  0.60352  1.0000
  S   S1476     1.0  0.86999  0.67451  0.62378  1.0000
  H   H6583     1.0  0.89388  0.60594  0.63594  1.0000
  H   H6584     1.0  0.92154  0.61887  0.62745  1.0000
  S   S1477     1.0  0.87696  0.64668  0.61746  1.0000
  H   H6585     1.0  0.84447  0.76720  0.60340  1.0000
  Fe  Fe738     1.0  0.86081  0.66242  0.61881  1.0000
  S   S1478     1.0  0.84267  0.65924  0.63066  1.0000
  Fe  Fe739     1.0  0.88642  0.65925  0.62123  1.0000
  S   S1479     1.0  0.89710  0.65042  0.63581  1.0000
  S   S1480     1.0  0.86482  0.67075  0.59875  1.0000
  C   C5478     1.0  0.83514  0.81412  0.59587  1.0000
  H   H6586     1.0  0.90434  0.58692  0.64116  1.0000
  S   S1481     1.0  0.88654  0.55188  0.62404  1.0000
  C   C5479     1.0  0.76094  0.84879  0.61271  1.0000
  C   C5480     1.0  0.86275  0.88304  0.60162  1.0000
  S   S1482     1.0  0.88315  0.58186  0.61648  1.0000
  S   S1483     1.0  0.91710  0.56468  0.61485  1.0000
  Fe  Fe740     1.0  0.89723  0.78446  0.58817  1.0000
  C   C5481     1.0  0.93482  0.57687  0.61379  1.0000
  Fe  Fe741     1.0  0.87134  0.56833  0.62632  1.0000
  S   S1484     1.0  0.85883  0.57096  0.64432  1.0000
  C   C5482     1.0  0.85604  0.53513  0.60070  1.0000
  S   S1485     1.0  0.86428  0.56866  0.61003  1.0000
  C   C5483     1.0  0.98783  0.91399  0.61618  1.0000
  S   S1486     1.0  0.86302  0.62196  0.77491  1.0000
  C   C5484     1.0  0.81451  0.60794  0.75018  1.0000
  H   H6587     1.0  0.95246  0.83588  0.61401  1.0000
  Fe  Fe742     1.0  0.88201  0.65606  0.59793  1.0000
  H   H6588     1.0  0.84551  0.61042  0.75479  1.0000
  C   C5485     1.0  0.85012  0.51760  0.59744  1.0000
  H   H6589     1.0  0.76449  0.89185  0.60190  1.0000
  H   H6590     1.0  0.92996  0.63503  0.60398  1.0000
  H   H6591     1.0  0.75998  0.86806  0.63019  1.0000
  C   C5486     1.0  0.93422  0.59854  0.60507  1.0000
  C   C5487     1.0  0.86757  0.74272  0.60920  1.0000
  C   C5488     1.0  0.91688  0.58959  0.60646  1.0000
  C   C5489     1.0  0.92247  0.59977  0.60308  1.0000
  H   H6592     1.0  0.90791  0.59060  0.60472  1.0000
  C   C5490     1.0  0.85089  0.72985  0.60438  1.0000
  C   C5491     1.0  0.93513  0.65840  0.62280  1.0000
  C   C5492     1.0  0.93254  0.64924  0.63312  1.0000
  C   C5493     1.0  0.92057  0.64737  0.63765  1.0000
  C   C5494     1.0  0.91121  0.65470  0.63183  1.0000
  C   C5495     1.0  0.91351  0.66475  0.62233  1.0000
  C   C5496     1.0  0.86790  0.52822  0.60134  1.0000
  H   H6593     1.0  0.93994  0.64311  0.63715  1.0000
  H   H6594     1.0  0.91872  0.63983  0.64519  1.0000
  C   C5497     1.0  0.91202  0.61755  0.62926  1.0000
  C   C5498     1.0  0.91981  0.62135  0.67428  1.0000
  C   C5499     1.0  0.92245  0.60856  0.67604  1.0000
  C   C5500     1.0  0.93348  0.60244  0.66963  1.0000
  C   C5501     1.0  0.94182  0.60908  0.66124  1.0000
  C   C5502     1.0  0.93924  0.62185  0.65956  1.0000
  C   C5503     1.0  0.92834  0.62796  0.66621  1.0000
  H   H6595     1.0  0.91598  0.60335  0.68221  1.0000
  H   H6596     1.0  0.93542  0.59255  0.67092  1.0000
  H   H6597     1.0  0.94576  0.62698  0.65326  1.0000
  H   H6598     1.0  0.92642  0.63785  0.66485  1.0000
  C   C5504     1.0  0.88115  0.57884  0.66715  1.0000
  C   C5505     1.0  0.86832  0.58227  0.66996  1.0000
  C   C5506     1.0  0.86139  0.57941  0.66325  1.0000
  C   C5507     1.0  0.86732  0.57364  0.65342  1.0000
  C   C5508     1.0  0.88013  0.57028  0.65065  1.0000
  C   C5509     1.0  0.88698  0.57261  0.65768  1.0000
  H   H6599     1.0  0.86376  0.58691  0.67740  1.0000
  H   H6600     1.0  0.85147  0.58193  0.66549  1.0000
  H   H6601     1.0  0.88480  0.56567  0.64321  1.0000
  H   H6602     1.0  0.89686  0.56960  0.65574  1.0000
  C   C5510     1.0  0.84595  0.64081  0.67003  1.0000
  C   C5511     1.0  0.83533  0.64943  0.66757  1.0000
  C   C5512     1.0  0.83437  0.65510  0.65548  1.0000
  C   C5513     1.0  0.84413  0.65240  0.64579  1.0000
  C   C5514     1.0  0.85483  0.64395  0.64826  1.0000
  C   C5515     1.0  0.85563  0.63797  0.66033  1.0000
  H   H6603     1.0  0.82778  0.65163  0.67503  1.0000
  H   H6604     1.0  0.82606  0.66161  0.65363  1.0000
  H   H6605     1.0  0.86234  0.64172  0.64087  1.0000
  H   H6606     1.0  0.86370  0.63112  0.66206  1.0000
  C   C5516     1.0  0.87134  0.60334  0.74252  1.0000
  C   C5517     1.0  0.87187  0.59628  0.75431  1.0000
  C   C5518     1.0  0.86980  0.60190  0.76416  1.0000
  C   C5519     1.0  0.86692  0.61467  0.76241  1.0000
  C   C5520     1.0  0.86661  0.62178  0.75055  1.0000
  C   C5521     1.0  0.86883  0.61614  0.74061  1.0000
  H   H6607     1.0  0.87393  0.58637  0.75583  1.0000
  H   H6608     1.0  0.87043  0.59631  0.77310  1.0000
  H   H6609     1.0  0.86443  0.63168  0.74910  1.0000
  H   H6610     1.0  0.86836  0.62168  0.73156  1.0000
  C   C5522     1.0  0.92167  0.79871  0.59030  1.0000
  H   H6611     1.0  0.90783  0.60950  0.66015  1.0000
  H   H6612     1.0  0.88930  0.61823  0.64379  1.0000
  C   C5523     1.0  0.98636  0.93489  0.60538  1.0000
  H   H6613     1.0  0.91158  0.61339  0.62188  1.0000
  S   S1487     1.0  0.84697  0.88125  0.58894  1.0000
  C   C5524     1.0  0.96640  0.87378  0.60074  1.0000
  C   C5525     1.0  0.95957  0.87507  0.61243  1.0000
  C   C5526     1.0  0.96509  0.87734  0.62084  1.0000
  C   C5527     1.0  0.97752  0.87817  0.61776  1.0000
  C   C5528     1.0  0.98438  0.87670  0.60613  1.0000
  C   C5529     1.0  0.97882  0.87463  0.59768  1.0000
  H   H6614     1.0  0.95000  0.87451  0.61494  1.0000
  H   H6615     1.0  0.95968  0.87845  0.62979  1.0000
  C   C5530     1.0  0.97458  0.84107  0.61258  1.0000
  C   C5531     1.0  0.81513  0.60948  0.76152  1.0000
  C   C5532     1.0  0.88342  0.87072  0.60149  1.0000
  H   H6616     1.0  0.80673  0.60989  0.76843  1.0000
  C   C5533     1.0  0.82677  0.73790  0.61623  1.0000
  H   H6617     1.0  0.91870  0.64889  0.60572  1.0000
  H   H6618     1.0  0.76743  0.84159  0.60857  1.0000
  C   C5534     1.0  0.87392  0.88016  0.60533  1.0000
  H   H6619     1.0  0.86498  0.74403  0.58640  1.0000
  C   C5535     1.0  0.84758  0.74166  0.60717  1.0000
  C   C5536     1.0  0.97750  0.83006  0.60828  1.0000
  H   H6620     1.0  0.96071  0.90077  0.59769  1.0000
  H   H6621     1.0  0.97961  0.90222  0.60207  1.0000
  C   C5537     1.0  0.96178  0.90956  0.59837  1.0000
  C   C5538     1.0  0.84134  0.81451  0.60450  1.0000
  C   C5539     1.0  0.85221  0.80593  0.60605  1.0000
  C   C5540     1.0  0.85695  0.79705  0.59890  1.0000
  H   H6622     1.0  0.74820  0.88700  0.63127  1.0000
  H   H6623     1.0  0.84890  0.75978  0.61794  1.0000
  H   H6624     1.0  0.85708  0.80622  0.61266  1.0000
  H   H6625     1.0  0.86545  0.79065  0.60003  1.0000
  C   C5541     1.0  0.90980  0.80499  0.59469  1.0000
  H   H6626     1.0  0.91639  0.83162  0.59540  1.0000
  S   S1488     1.0  0.96605  0.62897  0.59975  1.0000
  C   C5542     1.0  0.88377  0.71070  0.59269  1.0000
  C   C5543     1.0  0.91793  0.82253  0.59380  1.0000
  C   C5544     1.0  0.90796  0.81694  0.59628  1.0000
  H   H6627     1.0  0.85367  0.54460  0.60152  1.0000
  C   C5545     1.0  0.84724  0.52985  0.59876  1.0000
  H   H6628     1.0  0.86437  0.50127  0.59709  1.0000
  C   C5546     1.0  0.77700  0.87555  0.59710  1.0000
  H   H6629     1.0  0.85306  0.75763  0.58580  1.0000
  C   C5547     1.0  0.88457  0.62361  0.59442  1.0000
  H   H6630     1.0  0.81736  0.74101  0.62077  1.0000
  C   C5548     1.0  0.83517  0.74553  0.61314  1.0000
  C   C5549     1.0  0.89142  0.70774  0.60101  1.0000
  C   C5550     1.0  0.89807  0.71624  0.60111  1.0000
  H   H6631     1.0  0.86487  0.74025  0.61934  1.0000
  C   C5551     1.0  0.83042  0.72630  0.61346  1.0000
  H   H6632     1.0  0.89197  0.69906  0.60753  1.0000
  H   H6633     1.0  0.90377  0.71404  0.60772  1.0000
  H   H6634     1.0  0.87223  0.73410  0.60600  1.0000
  N   N369      1.0  0.90861  0.60967  0.64145  1.0000
  C   C5552     1.0  0.91710  0.59750  0.64204  1.0000
  S   S1489     1.0  0.89326  0.66719  0.60148  1.0000
  H   H6635     1.0  0.94398  0.91907  0.59487  1.0000
  C   C5553     1.0  0.92166  0.57540  0.64264  1.0000
  H   H6636     1.0  0.90590  0.62685  0.62839  1.0000
  H   H6637     1.0  0.96612  0.84773  0.61163  1.0000
  H   H6638     1.0  0.95022  0.82482  0.60726  1.0000
  C   C5554     1.0  0.92551  0.66672  0.61793  1.0000
  S   S1490     1.0  0.87395  0.70123  0.59318  1.0000
  H   H6639     1.0  0.86006  0.72632  0.59967  1.0000
  C   C5555     1.0  0.76604  0.88448  0.59726  1.0000
  C   C5556     1.0  0.98552  0.65719  0.59755  1.0000
  Fe  Fe743     1.0  0.98000  0.61721  0.61068  1.0000
  C   C5557     1.0  0.76454  0.85434  0.62001  1.0000
  H   H6640     1.0  0.86792  0.75803  0.58730  1.0000
  H   H6641     1.0  0.85929  0.76671  0.60525  1.0000
  H   H6642     1.0  0.90647  0.60581  0.76808  1.0000
  C   C5558     1.0  0.87014  0.86667  0.59055  1.0000
  S   S1491     1.0  0.95020  0.65714  0.61429  1.0000
  H   H6643     1.0  0.82390  0.72041  0.61585  1.0000
  H   H6644     1.0  0.91870  0.56737  0.64241  1.0000
  H   H6645     1.0  0.92743  0.67409  0.61020  1.0000
  H   H6646     1.0  0.91773  0.60861  0.59879  1.0000
  H   H6647     1.0  0.84420  0.60750  0.73530  1.0000
  H   H6648     1.0  0.90616  0.67075  0.61815  1.0000
  C   C5559     1.0  0.93372  0.57436  0.64338  1.0000
  H   H6649     1.0  0.74663  0.84898  0.60410  1.0000
  H   H6650     1.0  0.94088  0.79944  0.58451  1.0000
  C   C5560     1.0  0.84246  0.72230  0.60752  1.0000
  H   H6651     1.0  0.98332  0.67376  0.60350  1.0000
  C   C5561     1.0  0.92315  0.57802  0.61163  1.0000
  C   C5562     1.0  0.87075  0.51595  0.60008  1.0000
  H   H6652     1.0  0.84535  0.71330  0.60527  1.0000
  H   H6653     1.0  0.85562  0.89060  0.60442  1.0000
  N   N370      1.0  0.87504  0.66054  0.66795  1.0000
  C   C5563     1.0  0.87532  0.65968  0.68085  1.0000
  C   C5564     1.0  0.86215  0.66575  0.66653  1.0000
  C   C5565     1.0  0.87843  0.64799  0.66565  1.0000
  C   C5566     1.0  0.88393  0.66778  0.65957  1.0000
  C   C5567     1.0  0.89644  0.66452  0.66052  1.0000
  C   C5568     1.0  0.88062  0.67799  0.65016  1.0000
  C   C5569     1.0  0.90501  0.67121  0.65273  1.0000
  C   C5570     1.0  0.88930  0.68455  0.64235  1.0000
  C   C5571     1.0  0.90144  0.68121  0.64368  1.0000
  H   H6654     1.0  0.87382  0.66895  0.68273  1.0000
  H   H6655     1.0  0.86813  0.65500  0.68738  1.0000
  H   H6656     1.0  0.88420  0.65419  0.68319  1.0000
  H   H6657     1.0  0.85897  0.67528  0.66805  1.0000
  H   H6658     1.0  0.85569  0.66024  0.67319  1.0000
  H   H6659     1.0  0.86103  0.66570  0.65732  1.0000
  H   H6660     1.0  0.88801  0.64335  0.66649  1.0000
  H   H6661     1.0  0.87226  0.64217  0.67222  1.0000
  H   H6662     1.0  0.87772  0.64813  0.65627  1.0000
  H   H6663     1.0  0.89979  0.65652  0.66704  1.0000
  H   H6664     1.0  0.87145  0.68094  0.64845  1.0000
  H   H6665     1.0  0.91457  0.66832  0.65341  1.0000
  H   H6666     1.0  0.88666  0.69213  0.63505  1.0000
  H   H6667     1.0  0.90820  0.68614  0.63742  1.0000
  N   N371      1.0  0.85555  0.53230  0.63977  1.0000
  C   C5572     1.0  0.85406  0.54448  0.63135  1.0000
  C   C5573     1.0  0.84879  0.53378  0.65226  1.0000
  C   C5574     1.0  0.86881  0.52796  0.64002  1.0000
  C   C5575     1.0  0.85056  0.52393  0.63572  1.0000
  C   C5576     1.0  0.85785  0.51287  0.63228  1.0000
  C   C5577     1.0  0.83802  0.52685  0.63494  1.0000
  C   C5578     1.0  0.85282  0.50526  0.62841  1.0000
  C   C5579     1.0  0.83313  0.51925  0.63090  1.0000
  C   C5580     1.0  0.84052  0.50848  0.62765  1.0000
  H   H6668     1.0  0.84430  0.54898  0.63131  1.0000
  H   H6669     1.0  0.85800  0.55094  0.63395  1.0000
  H   H6670     1.0  0.85877  0.54370  0.62181  1.0000
  H   H6671     1.0  0.83891  0.53808  0.65266  1.0000
  H   H6672     1.0  0.85253  0.53986  0.65564  1.0000
  H   H6673     1.0  0.84939  0.52476  0.65884  1.0000
  H   H6674     1.0  0.87064  0.51890  0.64636  1.0000
  H   H6675     1.0  0.87454  0.52730  0.63072  1.0000
  H   H6676     1.0  0.87223  0.53442  0.64321  1.0000
  H   H6677     1.0  0.86755  0.51002  0.63220  1.0000
  H   H6678     1.0  0.83194  0.53516  0.63725  1.0000
  H   H6679     1.0  0.88239  0.60513  0.60269  1.0000
  C   C5581     1.0  0.86086  0.75235  0.59025  1.0000
  S   S1492     1.0  0.87963  0.53445  0.60327  1.0000
  N   N372      1.0  0.86116  0.83886  0.62163  1.0000
  C   C5582     1.0  0.86013  0.83879  0.60923  1.0000
  C   C5583     1.0  0.85231  0.83202  0.63082  1.0000
  C   C5584     1.0  0.85736  0.85176  0.62315  1.0000
  C   C5585     1.0  0.87388  0.83295  0.62307  1.0000
  C   C5586     1.0  0.88233  0.83964  0.62355  1.0000
  C   C5587     1.0  0.87839  0.82024  0.62329  1.0000
  C   C5588     1.0  0.89442  0.83384  0.62447  1.0000
  C   C5589     1.0  0.89043  0.81449  0.62444  1.0000
  C   C5590     1.0  0.89844  0.82128  0.62502  1.0000
  H   H6680     1.0  0.86135  0.82933  0.60796  1.0000
  H   H6681     1.0  0.85095  0.84387  0.60740  1.0000
  H   H6682     1.0  0.86718  0.84309  0.60209  1.0000
  H   H6683     1.0  0.85325  0.82271  0.62932  1.0000
  H   H6684     1.0  0.84261  0.83669  0.63036  1.0000
  H   H6685     1.0  0.85343  0.83103  0.64026  1.0000
  H   H6686     1.0  0.86289  0.85775  0.61595  1.0000
  H   H6687     1.0  0.84764  0.85586  0.62234  1.0000
  H   H6688     1.0  0.85820  0.85245  0.63223  1.0000
  H   H6689     1.0  0.87996  0.84942  0.62301  1.0000
  H   H6690     1.0  0.87276  0.81467  0.62226  1.0000
  H   H6691     1.0  0.90076  0.83922  0.62453  1.0000
  H   H6692     1.0  0.89373  0.80481  0.62430  1.0000
  H   H6693     1.0  0.90788  0.81685  0.62549  1.0000
  C   C5591     1.0  0.91346  0.58679  0.64188  1.0000
  C   C5592     1.0  0.92958  0.59616  0.64232  1.0000
  C   C5593     1.0  0.94027  0.58710  0.61070  1.0000
  C   C5594     1.0  0.89706  0.72772  0.59295  1.0000
  H   H6694     1.0  0.97457  0.80768  0.60622  1.0000
  C   C5595     1.0  0.90945  0.61561  0.65093  1.0000
  C   C5596     1.0  0.83128  0.62365  0.77375  1.0000
  H   H6695     1.0  0.93323  0.60392  0.64194  1.0000
  C   C5597     1.0  0.83672  0.60975  0.75385  1.0000
  S   S1493     1.0  0.95997  0.87137  0.58948  1.0000
  C   C5598     1.0  0.93586  0.57105  0.58487  1.0000
  N   N373      1.0  0.98596  0.92248  0.60443  1.0000
  C   C5599     1.0  0.86197  0.51068  0.59810  1.0000
  H   H6696     1.0  0.87417  0.61594  0.62007  1.0000
  Fe  Fe744     1.0  0.83917  0.49185  0.59362  1.0000
  N   N374      1.0  0.85504  0.61711  0.62906  1.0000
  C   C5600     1.0  0.86816  0.61545  0.62934  1.0000
  C   C5601     1.0  0.85341  0.60610  0.62607  1.0000
  C   C5602     1.0  0.85220  0.62781  0.61902  1.0000
  C   C5603     1.0  0.84710  0.61857  0.64115  1.0000
  C   C5604     1.0  0.83607  0.62768  0.64253  1.0000
  C   C5605     1.0  0.85012  0.61050  0.65201  1.0000
  C   C5606     1.0  0.82881  0.62878  0.65411  1.0000
  C   C5607     1.0  0.84290  0.61179  0.66353  1.0000
  C   C5608     1.0  0.83228  0.62096  0.66458  1.0000
  H   H6697     1.0  0.87184  0.60633  0.63475  1.0000
  H   H6698     1.0  0.86944  0.62267  0.63323  1.0000
  H   H6699     1.0  0.85912  0.60464  0.61697  1.0000
  H   H6700     1.0  0.84366  0.60689  0.62589  1.0000
  H   H6701     1.0  0.85600  0.59761  0.63295  1.0000
  H   H6702     1.0  0.85267  0.63649  0.62112  1.0000
  H   H6703     1.0  0.85875  0.62689  0.61016  1.0000
  H   H6704     1.0  0.84295  0.62887  0.61728  1.0000
  H   H6705     1.0  0.83301  0.63433  0.63487  1.0000
  H   H6706     1.0  0.85815  0.60317  0.65169  1.0000
  H   H6707     1.0  0.82067  0.63607  0.65496  1.0000
  H   H6708     1.0  0.84562  0.60576  0.67171  1.0000
  H   H6709     1.0  0.82689  0.62216  0.67354  1.0000
  H   H6710     1.0  0.98551  0.94171  0.59668  1.0000
  H   H6711     1.0  0.94934  0.58602  0.61224  1.0000
  N   N375      1.0  0.91096  0.61126  0.71954  1.0000
  C   C5609     1.0  0.91503  0.59922  0.71590  1.0000
  C   C5610     1.0  0.89858  0.61711  0.71701  1.0000
  C   C5611     1.0  0.91955  0.61912  0.71159  1.0000
  C   C5612     1.0  0.91029  0.60954  0.73277  1.0000
  C   C5613     1.0  0.91625  0.61594  0.73746  1.0000
  C   C5614     1.0  0.90302  0.60167  0.74145  1.0000
  C   C5615     1.0  0.91490  0.61452  0.75007  1.0000
  C   C5616     1.0  0.90180  0.60029  0.75401  1.0000
  C   C5617     1.0  0.90766  0.60675  0.75831  1.0000
  H   H6712     1.0  0.90817  0.59332  0.72008  1.0000
  H   H6713     1.0  0.91643  0.60029  0.70583  1.0000
  H   H6714     1.0  0.92385  0.59407  0.71857  1.0000
  H   H6715     1.0  0.89186  0.61114  0.72160  1.0000
  H   H6716     1.0  0.89874  0.61918  0.70708  1.0000
  H   H6717     1.0  0.89487  0.62588  0.72021  1.0000
  H   H6718     1.0  0.92907  0.61526  0.71308  1.0000
  H   H6719     1.0  0.92004  0.61994  0.70169  1.0000
  H   H6720     1.0  0.91652  0.62867  0.71307  1.0000
  H   H6721     1.0  0.92188  0.62221  0.73161  1.0000
  H   H6722     1.0  0.89799  0.59671  0.73859  1.0000
  H   H6723     1.0  0.91939  0.61959  0.75349  1.0000
  H   H6724     1.0  0.89608  0.59434  0.76046  1.0000
  S   S1494     1.0  0.78784  0.87610  0.60499  1.0000
  C   C5618     1.0  0.92981  0.81626  0.58955  1.0000
  C   C5619     1.0  0.95691  0.82698  0.61126  1.0000
  C   C5620     1.0  0.97433  0.92182  0.60185  1.0000
  H   H6725     1.0  0.88848  0.62443  0.60155  1.0000
  C   C5621     1.0  0.86073  0.87628  0.59434  1.0000
  H   H6726     1.0  0.78734  0.85915  0.59083  1.0000
  H   H6727     1.0  0.92314  0.78944  0.58912  1.0000
  C   C5622     1.0  0.82494  0.60724  0.74076  1.0000
  H   H6728     1.0  0.87988  0.51049  0.60051  1.0000
  C   C5623     1.0  0.92804  0.64516  0.60070  1.0000
  C   C5624     1.0  0.77004  0.86552  0.58519  1.0000
  H   H6729     1.0  0.89879  0.82190  0.59948  1.0000
  H   H6730     1.0  0.80590  0.60724  0.74869  1.0000
  H   H6731     1.0  0.97901  0.93807  0.61297  1.0000
  S   S1495     1.0  0.92550  0.87888  0.58219  1.0000
  C   C5625     1.0  0.75903  0.87436  0.58547  1.0000
  H   H6732     1.0  0.93975  0.56796  0.61776  1.0000
  H   H6733     1.0  0.82453  0.63162  0.76993  1.0000
  H   H6734     1.0  0.83172  0.75442  0.61547  1.0000
  N   N376      1.0  0.82745  0.61195  0.77554  1.0000
  H   H6735     1.0  0.97684  0.65525  0.60321  1.0000
  H   H6736     1.0  0.97986  0.91596  0.62379  1.0000
  Fe  Fe745     1.0  0.83437  0.86863  0.59098  1.0000
  H   H6737     1.0  0.77387  0.85148  0.62143  1.0000
  H   H6738     1.0  0.98015  0.85233  0.62122  1.0000
  H   H6739     1.0  0.91852  0.61796  0.64931  1.0000
  H   H6740     1.0  0.90266  0.62447  0.65122  1.0000
  C   C5626     1.0  0.98922  0.66760  0.59771  1.0000
  H   H6741     1.0  0.82446  0.60601  0.73200  1.0000
  C   C5627     1.0  0.93770  0.58475  0.64312  1.0000
  Fe  Fe746     1.0  0.88022  0.55282  0.60699  1.0000
  C   C5628     1.0  0.96453  0.93219  0.60018  1.0000
  H   H6742     1.0  0.94714  0.58400  0.64349  1.0000
  H   H6743     1.0  0.83812  0.53531  0.59827  1.0000
  H   H6744     1.0  0.93125  0.68863  0.58655  1.0000
  Fe  Fe747     1.0  0.87768  0.58075  0.59987  1.0000
  H   H6745     1.0  0.87975  0.82218  0.59052  1.0000
  H   H6746     1.0  0.87475  0.74823  0.60674  1.0000
  Fe  Fe748     1.0  0.89795  0.56561  0.61265  1.0000
  C   C5629     1.0  0.93169  0.80432  0.58781  1.0000
  C   C5630     1.0  0.77902  0.86614  0.59093  1.0000
  H   H6747     1.0  0.84035  0.62392  0.76739  1.0000
  C   C5631     1.0  0.83688  0.60167  0.78039  1.0000
  C   C5632     1.0  0.74922  0.85292  0.61025  1.0000
  Fe  Fe749     1.0  0.80739  0.86613  0.59884  1.0000
  H   H6748     1.0  0.98898  0.90426  0.61586  1.0000
  H   H6749     1.0  0.85859  0.49702  0.62556  1.0000
  N   N377      1.0  0.92897  0.64883  0.58728  1.0000
  C   C5633     1.0  0.83967  0.80494  0.58902  1.0000
  H   H6750     1.0  0.96496  0.94118  0.60077  1.0000
  H   H6751     1.0  0.82671  0.82073  0.59465  1.0000
  C   C5634     1.0  0.85062  0.79642  0.59049  1.0000
  S   S1496     1.0  0.89322  0.56508  0.59528  1.0000
  H   H6752     1.0  0.84612  0.60143  0.77437  1.0000
  S   S1497     1.0  0.81186  0.84789  0.59371  1.0000
  S   S1498     1.0  0.90448  0.73868  0.59409  1.0000
  H   H6753     1.0  0.83679  0.50277  0.62419  1.0000
  C   C5635     1.0  0.85207  0.76123  0.60784  1.0000
  C   C5636     1.0  0.98258  0.84385  0.61802  1.0000
  C   C5637     1.0  0.87657  0.61141  0.58557  1.0000
  H   H6754     1.0  0.99396  0.87723  0.60361  1.0000
  H   H6755     1.0  0.95346  0.57031  0.58820  1.0000
  H   H6756     1.0  0.83477  0.80456  0.58246  1.0000
  H   H6757     1.0  0.96639  0.81393  0.59416  1.0000
  S   S1499     1.0  0.87291  0.59763  0.58553  1.0000
  C   C5638     1.0  0.93092  0.67013  0.58650  1.0000
  H   H6758     1.0  0.99204  0.81347  0.60671  1.0000
  H   H6759     1.0  0.98421  0.87363  0.58869  1.0000
  S   S1500     1.0  0.94221  0.82354  0.58584  1.0000
  H   H6760     1.0  0.98190  0.81549  0.59134  1.0000
  H   H6761     1.0  0.93563  0.56169  0.58981  1.0000
  Fe  Fe750     1.0  0.89889  0.75866  0.58489  1.0000
  H   H6762     1.0  0.94633  0.93914  0.59647  1.0000
  C   C5639     1.0  0.95235  0.91987  0.59679  1.0000
  Fe  Fe751     1.0  0.94267  0.86631  0.58780  1.0000
  C   C5640     1.0  0.98897  0.82202  0.60973  1.0000
  H   H6763     1.0  0.92461  0.63187  0.58717  1.0000
  Fe  Fe752     1.0  0.93551  0.84386  0.58468  1.0000
  H   H6764     1.0  0.90701  0.60723  0.58456  1.0000
  C   C5641     1.0  0.94590  0.57590  0.58401  1.0000
  H   H6765     1.0  0.94513  0.63474  0.58343  1.0000
  H   H6766     1.0  0.94829  0.64881  0.58381  1.0000
  C   C5642     1.0  0.88979  0.73044  0.58436  1.0000
  C   C5643     1.0  0.92146  0.64197  0.58424  1.0000
  S   S1501     1.0  0.84079  0.85091  0.58473  1.0000
  C   C5644     1.0  0.88353  0.63327  0.58423  1.0000
  C   C5645     1.0  0.92687  0.68288  0.58388  1.0000
  C   C5646     1.0  0.92504  0.66233  0.58361  1.0000
  C   C5647     1.0  0.88319  0.72196  0.58422  1.0000
  H   H6767     1.0  0.96191  0.84619  0.59404  1.0000
  C   C5648     1.0  0.96686  0.83727  0.59158  1.0000
  H   H6768     1.0  0.86877  0.86162  0.58462  1.0000
  C   C5649     1.0  0.99305  0.64920  0.59020  1.0000
  H   H6769     1.0  0.96121  0.83517  0.58636  1.0000
  S   S1502     1.0  0.82868  0.48800  0.58167  1.0000
  S   S1503     1.0  0.88944  0.64625  0.58235  1.0000
  S   S1504     1.0  0.85655  0.78528  0.58153  1.0000
  H   H6770     1.0  0.97571  0.83873  0.58525  1.0000
  C   C5650     1.0  0.99376  0.83584  0.61925  1.0000
  S   S1505     1.0  0.81849  0.87528  0.58151  1.0000
  H   H6771     1.0  0.91817  0.57409  0.58150  1.0000
  Fe  Fe753     1.0  0.83904  0.53441  0.86365  1.0000
  S   S1506     1.0  0.85192  0.54190  0.86952  1.0000
  S   S1507     1.0  0.82575  0.54664  0.85236  1.0000
  Fe  Fe754     1.0  0.84944  0.50784  0.87436  1.0000
  S   S1508     1.0  0.86301  0.51299  0.88158  1.0000
  Fe  Fe755     1.0  0.84766  0.52842  0.88709  1.0000
  S   S1509     1.0  0.84277  0.53293  0.90568  1.0000
  Fe  Fe756     1.0  0.86601  0.52591  0.86340  1.0000
  S   S1510     1.0  0.88518  0.52579  0.85250  1.0000
  S   S1511     1.0  0.83368  0.52191  0.88170  1.0000
  S   S1512     1.0  0.85352  0.51977  0.85576  1.0000
  Fe  Fe757     1.0  0.77138  0.59113  0.87516  1.0000
  S   S1513     1.0  0.78543  0.59959  0.86041  1.0000
  S   S1514     1.0  0.77810  0.57217  0.88543  1.0000
  C   C5651     1.0  0.88200  0.53005  0.81794  1.0000
  S   S1515     1.0  0.76394  0.62449  0.85703  1.0000
  Fe  Fe758     1.0  0.77043  0.60715  0.85008  1.0000
  S   S1516     1.0  0.77384  0.60699  0.83022  1.0000
  Fe  Fe759     1.0  0.77781  0.61601  0.86877  1.0000
  S   S1517     1.0  0.79090  0.62685  0.86958  1.0000
  S   S1518     1.0  0.75678  0.59728  0.86413  1.0000
  S   S1519     1.0  0.76481  0.60702  0.88447  1.0000
  N   N378      1.0  0.84951  0.54955  0.81787  1.0000
  Fe  Fe760     1.0  0.85117  0.61102  0.82198  1.0000
  S   S1520     1.0  0.85243  0.59068  0.82728  1.0000
  S   S1521     1.0  0.84208  0.62111  0.83728  1.0000
  Fe  Fe761     1.0  0.87026  0.58992  0.81350  1.0000
  S   S1522     1.0  0.88805  0.57670  0.81587  1.0000
  Fe  Fe762     1.0  0.84385  0.59366  0.81134  1.0000
  S   S1523     1.0  0.82961  0.58444  0.81015  1.0000
  S   S1524     1.0  0.86965  0.61015  0.80911  1.0000
  S   S1525     1.0  0.84121  0.61403  0.80690  1.0000
  Fe  Fe763     1.0  0.85381  0.59214  0.91745  1.0000
  S   S1526     1.0  0.86637  0.60501  0.91392  1.0000
  S   S1527     1.0  0.86044  0.57162  0.92238  1.0000
  Fe  Fe764     1.0  0.83149  0.61289  0.91503  1.0000
  S   S1528     1.0  0.84209  0.62769  0.91113  1.0000
  S   S1529     1.0  0.81116  0.61429  0.91777  1.0000
  Fe  Fe765     1.0  0.85616  0.61578  0.89902  1.0000
  S   S1530     1.0  0.86716  0.62066  0.87973  1.0000
  Fe  Fe766     1.0  0.85148  0.61579  0.92641  1.0000
  S   S1531     1.0  0.85339  0.61939  0.94429  1.0000
  S   S1532     1.0  0.84474  0.60204  0.90182  1.0000
  S   S1533     1.0  0.83972  0.60185  0.93098  1.0000
  C   C5652     1.0  0.81846  0.56816  0.89172  1.0000
  H   H6772     1.0  0.81076  0.49452  0.88095  1.0000
  H   H6773     1.0  0.77231  0.64930  0.86897  1.0000
  S   S1534     1.0  0.87121  0.65547  0.96597  1.0000
  C   C5653     1.0  0.85785  0.63003  0.94998  1.0000
  C   C5654     1.0  0.85639  0.62837  0.96272  1.0000
  C   C5655     1.0  0.86024  0.63614  0.96776  1.0000
  C   C5656     1.0  0.86562  0.64575  0.96011  1.0000
  C   C5657     1.0  0.86706  0.64745  0.94737  1.0000
  C   C5658     1.0  0.86322  0.63966  0.94233  1.0000
  H   H6774     1.0  0.85227  0.62097  0.96875  1.0000
  H   H6775     1.0  0.79850  0.65104  0.89171  1.0000
  H   H6776     1.0  0.87117  0.65485  0.94134  1.0000
  H   H6777     1.0  0.86448  0.64105  0.93253  1.0000
  C   C5659     1.0  0.84939  0.62049  0.84899  1.0000
  C   C5660     1.0  0.84209  0.62250  0.86034  1.0000
  C   C5661     1.0  0.84747  0.62252  0.86980  1.0000
  C   C5662     1.0  0.86020  0.62095  0.86785  1.0000
  C   C5663     1.0  0.86754  0.61890  0.85650  1.0000
  C   C5664     1.0  0.86217  0.61846  0.84715  1.0000
  H   H6778     1.0  0.83222  0.62420  0.86176  1.0000
  H   H6779     1.0  0.84173  0.62412  0.87850  1.0000
  H   H6780     1.0  0.87740  0.61767  0.85493  1.0000
  H   H6781     1.0  0.86787  0.61702  0.83839  1.0000
  C   C5665     1.0  0.79669  0.62280  0.88295  1.0000
  C   C5666     1.0  0.80775  0.62580  0.88253  1.0000
  C   C5667     1.0  0.81252  0.62277  0.89311  1.0000
  C   C5668     1.0  0.80600  0.61709  0.90422  1.0000
  C   C5669     1.0  0.79494  0.61406  0.90465  1.0000
  C   C5670     1.0  0.79035  0.61680  0.89400  1.0000
  H   H6782     1.0  0.81257  0.63061  0.87404  1.0000
  H   H6783     1.0  0.82097  0.62527  0.89277  1.0000
  H   H6784     1.0  0.78984  0.60975  0.91325  1.0000
  H   H6785     1.0  0.78178  0.61453  0.89444  1.0000
  C   C5671     1.0  0.78945  0.60106  0.82465  1.0000
  C   C5672     1.0  0.79263  0.59299  0.81674  1.0000
  C   C5673     1.0  0.80498  0.58786  0.81248  1.0000
  C   C5674     1.0  0.81426  0.59107  0.81578  1.0000
  C   C5675     1.0  0.81116  0.59943  0.82340  1.0000
  C   C5676     1.0  0.79873  0.60429  0.82799  1.0000
  H   H6786     1.0  0.78550  0.59046  0.81416  1.0000
  H   H6787     1.0  0.80734  0.58140  0.80659  1.0000
  H   H6788     1.0  0.81829  0.60210  0.82583  1.0000
  H   H6789     1.0  0.79632  0.61070  0.83393  1.0000
  C   C5677     1.0  0.81265  0.55398  0.86151  1.0000
  C   C5678     1.0  0.80337  0.56231  0.85612  1.0000
  C   C5679     1.0  0.79277  0.56803  0.86344  1.0000
  C   C5680     1.0  0.79140  0.56531  0.87616  1.0000
  C   C5681     1.0  0.80068  0.55695  0.88151  1.0000
  C   C5682     1.0  0.81137  0.55144  0.87419  1.0000
  H   H6790     1.0  0.80433  0.56437  0.84630  1.0000
  H   H6791     1.0  0.78553  0.57434  0.85926  1.0000
  H   H6792     1.0  0.79961  0.55477  0.89133  1.0000
  H   H6793     1.0  0.81857  0.54525  0.87842  1.0000
  C   C5683     1.0  0.84926  0.54359  0.90870  1.0000
  C   C5684     1.0  0.84832  0.55568  0.90185  1.0000
  C   C5685     1.0  0.85155  0.56453  0.90598  1.0000
  C   C5686     1.0  0.85621  0.56113  0.91664  1.0000
  C   C5687     1.0  0.85756  0.54897  0.92313  1.0000
  C   C5688     1.0  0.85385  0.54032  0.91935  1.0000
  H   H6794     1.0  0.84469  0.55830  0.89367  1.0000
  H   H6795     1.0  0.85036  0.57393  0.90103  1.0000
  H   H6796     1.0  0.86113  0.54627  0.93138  1.0000
  H   H6797     1.0  0.85441  0.53108  0.92480  1.0000
  C   C5689     1.0  0.88583  0.53989  0.84222  1.0000
  C   C5690     1.0  0.87503  0.54855  0.84051  1.0000
  C   C5691     1.0  0.87562  0.55999  0.83259  1.0000
  C   C5692     1.0  0.88701  0.56274  0.82630  1.0000
  C   C5693     1.0  0.89780  0.55406  0.82801  1.0000
  C   C5694     1.0  0.89722  0.54265  0.83597  1.0000
  H   H6798     1.0  0.86623  0.54638  0.84518  1.0000
  H   H6799     1.0  0.86729  0.56659  0.83120  1.0000
  H   H6800     1.0  0.90663  0.55617  0.82314  1.0000
  H   H6801     1.0  0.90559  0.53601  0.83733  1.0000
  C   C5695     1.0  0.89965  0.48918  0.85530  1.0000
  C   C5696     1.0  0.81677  0.49988  0.87348  1.0000
  C   C5697     1.0  0.80717  0.57393  0.89780  1.0000
  C   C5698     1.0  0.80201  0.50653  0.86079  1.0000
  C   C5699     1.0  0.80131  0.58543  0.89230  1.0000
  H   H6802     1.0  0.89681  0.61822  0.97663  1.0000
  H   H6803     1.0  0.82395  0.52081  0.86097  1.0000
  H   H6804     1.0  0.78396  0.65436  0.87903  1.0000
  C   C5700     1.0  0.79324  0.53002  0.86929  1.0000
  H   H6805     1.0  0.87111  0.49423  0.85016  1.0000
  H   H6806     1.0  0.79313  0.53231  0.85968  1.0000
  C   C5701     1.0  0.78095  0.65092  0.88870  1.0000
  H   H6807     1.0  0.89888  0.61882  0.92260  1.0000
  C   C5702     1.0  0.84592  0.55866  0.82569  1.0000
  H   H6808     1.0  0.83229  0.56877  0.87542  1.0000
  H   H6809     1.0  0.84483  0.53540  0.83359  1.0000
  H   H6810     1.0  0.83277  0.54286  0.82582  1.0000
  H   H6811     1.0  0.84903  0.55468  0.83445  1.0000
  H   H6812     1.0  0.82444  0.51133  0.85084  1.0000
  C   C5703     1.0  0.84515  0.55535  0.80631  1.0000
  H   H6813     1.0  0.84986  0.56691  0.82113  1.0000
  H   H6814     1.0  0.84834  0.54906  0.79984  1.0000
  C   C5704     1.0  0.79317  0.52575  0.89409  1.0000
  C   C5705     1.0  0.84293  0.53946  0.82430  1.0000
  N   N379      1.0  0.81627  0.57662  0.93155  1.0000
  C   C5706     1.0  0.82150  0.58278  0.91903  1.0000
  C   C5707     1.0  0.80774  0.58622  0.93787  1.0000
  C   C5708     1.0  0.82632  0.57092  0.93832  1.0000
  C   C5709     1.0  0.81032  0.56714  0.93074  1.0000
  C   C5710     1.0  0.81751  0.55665  0.92617  1.0000
  C   C5711     1.0  0.79737  0.56824  0.93385  1.0000
  C   C5712     1.0  0.81213  0.54771  0.92500  1.0000
  C   C5713     1.0  0.79206  0.55924  0.93262  1.0000
  C   C5714     1.0  0.79943  0.54899  0.92824  1.0000
  H   H6815     1.0  0.81419  0.58773  0.91380  1.0000
  H   H6816     1.0  0.82646  0.58967  0.91922  1.0000
  H   H6817     1.0  0.82812  0.57624  0.91371  1.0000
  H   H6818     1.0  0.80322  0.58218  0.94728  1.0000
  H   H6819     1.0  0.80061  0.59185  0.93265  1.0000
  H   H6820     1.0  0.81264  0.59294  0.93869  1.0000
  H   H6821     1.0  0.83404  0.56478  0.93342  1.0000
  H   H6822     1.0  0.83057  0.57791  0.93961  1.0000
  H   H6823     1.0  0.82292  0.56548  0.94751  1.0000
  H   H6824     1.0  0.82738  0.55533  0.92329  1.0000
  H   H6825     1.0  0.79112  0.57600  0.93716  1.0000
  H   H6826     1.0  0.81789  0.53980  0.92146  1.0000
  H   H6827     1.0  0.78216  0.56026  0.93500  1.0000
  H   H6828     1.0  0.79528  0.54207  0.92725  1.0000
  H   H6829     1.0  0.89183  0.64567  0.95003  1.0000
  H   H6830     1.0  0.77331  0.63689  0.92343  1.0000
  C   C5715     1.0  0.88004  0.49622  0.84990  1.0000
  H   H6831     1.0  0.90430  0.49406  0.84632  1.0000
  H   H6832     1.0  0.84541  0.53215  0.81901  1.0000
  C   C5716     1.0  0.75747  0.63758  0.88722  1.0000
  H   H6833     1.0  0.83576  0.56195  0.82803  1.0000
  H   H6834     1.0  0.91616  0.61242  0.96231  1.0000
  H   H6835     1.0  0.79731  0.51404  0.85430  1.0000
  C   C5717     1.0  0.80672  0.59129  0.88069  1.0000
  C   C5718     1.0  0.78669  0.64405  0.90838  1.0000
  H   H6836     1.0  0.80155  0.60007  0.87689  1.0000
  C   C5719     1.0  0.76394  0.65524  0.87344  1.0000
  S   S1535     1.0  0.86185  0.59058  0.79809  1.0000
  C   C5720     1.0  0.90116  0.64141  0.95188  1.0000
  H   H6837     1.0  0.84521  0.49950  0.85299  1.0000
  H   H6838     1.0  0.76611  0.63126  0.88391  1.0000
  H   H6839     1.0  0.76586  0.66444  0.87222  1.0000
  H   H6840     1.0  0.80270  0.56930  0.90659  1.0000
  S   S1536     1.0  0.84924  0.48782  0.87739  1.0000
  H   H6841     1.0  0.77918  0.54238  0.89424  1.0000
  H   H6842     1.0  0.75808  0.64018  0.91123  1.0000
  C   C5721     1.0  0.86305  0.54543  0.81525  1.0000
  H   H6843     1.0  0.89900  0.53589  0.80918  1.0000
  H   H6844     1.0  0.79232  0.58971  0.89687  1.0000
  C   C5722     1.0  0.78526  0.53806  0.87645  1.0000
  C   C5723     1.0  0.80132  0.51943  0.87439  1.0000
  C   C5724     1.0  0.81823  0.58573  0.87421  1.0000
  H   H6845     1.0  0.80718  0.51002  0.89168  1.0000
  C   C5725     1.0  0.78518  0.53590  0.88883  1.0000
  C   C5726     1.0  0.87057  0.55374  0.80797  1.0000
  H   H6846     1.0  0.87785  0.50291  0.85586  1.0000
  C   C5727     1.0  0.88337  0.55022  0.80564  1.0000
  H   H6847     1.0  0.82276  0.55899  0.89587  1.0000
  H   H6848     1.0  0.79352  0.64221  0.91383  1.0000
  C   C5728     1.0  0.80116  0.51760  0.88703  1.0000
  H   H6849     1.0  0.86427  0.52659  0.82618  1.0000
  C   C5729     1.0  0.84736  0.48970  0.85384  1.0000
  C   C5730     1.0  0.88794  0.61489  0.95776  1.0000
  C   C5731     1.0  0.76922  0.64793  0.89390  1.0000
  C   C5732     1.0  0.82316  0.58453  0.85301  1.0000
  H   H6850     1.0  0.87588  0.60443  0.95605  1.0000
  H   H6851     1.0  0.90290  0.64692  0.95750  1.0000
  Fe  Fe767     1.0  0.85989  0.61088  0.79447  1.0000
  C   C5733     1.0  0.88907  0.53841  0.81064  1.0000
  H   H6852     1.0  0.84279  0.58178  0.86186  1.0000
  C   C5734     1.0  0.76668  0.64289  0.90667  1.0000
  C   C5735     1.0  0.74836  0.65769  0.89151  1.0000
  H   H6853     1.0  0.88889  0.55690  0.80041  1.0000
  N   N380      1.0  0.82393  0.59147  0.86167  1.0000
  C   C5736     1.0  0.81791  0.60451  0.85766  1.0000
  C   C5737     1.0  0.83702  0.59120  0.86088  1.0000
  H   H6854     1.0  0.81342  0.58457  0.85340  1.0000
  H   H6855     1.0  0.82722  0.58855  0.84341  1.0000
  H   H6856     1.0  0.80835  0.60557  0.85682  1.0000
  H   H6857     1.0  0.82268  0.60874  0.84842  1.0000
  H   H6858     1.0  0.81782  0.61019  0.86402  1.0000
  H   H6859     1.0  0.84122  0.59642  0.85188  1.0000
  H   H6860     1.0  0.83790  0.59553  0.86797  1.0000
  N   N381      1.0  0.90203  0.62827  0.95808  1.0000
  H   H6861     1.0  0.74997  0.66667  0.89170  1.0000
  C   C5738     1.0  0.89564  0.62776  0.97110  1.0000
  C   C5739     1.0  0.91513  0.62233  0.95782  1.0000
  C   C5740     1.0  0.89691  0.62207  0.95164  1.0000
  N   N382      1.0  0.80946  0.51090  0.86663  1.0000
  C   C5741     1.0  0.90097  0.62303  0.93881  1.0000
  H   H6862     1.0  0.79327  0.52430  0.90367  1.0000
  H   H6863     1.0  0.75483  0.62983  0.83166  1.0000
  N   N383      1.0  0.75998  0.64964  0.88657  1.0000
  H   H6864     1.0  0.81721  0.61314  0.79389  1.0000
  C   C5742     1.0  0.81819  0.51740  0.85693  1.0000
  H   H6865     1.0  0.75085  0.63833  0.88151  1.0000
  H   H6866     1.0  0.85903  0.63468  0.97756  1.0000
  C   C5743     1.0  0.77532  0.64099  0.91376  1.0000
  H   H6867     1.0  0.90779  0.64279  0.94299  1.0000
  H   H6868     1.0  0.88366  0.50093  0.84041  1.0000
  H   H6869     1.0  0.81347  0.52555  0.85102  1.0000
  H   H6870     1.0  0.86665  0.56317  0.80436  1.0000
  Fe  Fe768     1.0  0.75138  0.61414  0.87203  1.0000
  H   H6871     1.0  0.90788  0.62819  0.93357  1.0000
  H   H6872     1.0  0.79482  0.50224  0.86779  1.0000
  C   C5744     1.0  0.89598  0.61761  0.93245  1.0000
  H   H6873     1.0  0.89918  0.63306  0.97557  1.0000
  N   N384      1.0  0.87736  0.58154  0.87874  1.0000
  C   C5745     1.0  0.86548  0.58752  0.87503  1.0000
  C   C5746     1.0  0.87703  0.58528  0.89010  1.0000
  C   C5747     1.0  0.88736  0.58631  0.86915  1.0000
  C   C5748     1.0  0.87933  0.56811  0.88019  1.0000
  C   C5749     1.0  0.87967  0.56314  0.87019  1.0000
  C   C5750     1.0  0.88033  0.55969  0.89152  1.0000
  C   C5751     1.0  0.88067  0.55058  0.87153  1.0000
  C   C5752     1.0  0.88121  0.54716  0.89276  1.0000
  C   C5753     1.0  0.88133  0.54262  0.88280  1.0000
  H   H6874     1.0  0.86275  0.59732  0.87556  1.0000
  H   H6875     1.0  0.86581  0.58728  0.86545  1.0000
  H   H6876     1.0  0.85795  0.58309  0.88108  1.0000
  H   H6877     1.0  0.86928  0.58264  0.89755  1.0000
  H   H6878     1.0  0.87574  0.59540  0.88870  1.0000
  H   H6879     1.0  0.88574  0.58120  0.89337  1.0000
  H   H6880     1.0  0.88764  0.58490  0.86000  1.0000
  H   H6881     1.0  0.88619  0.59640  0.86811  1.0000
  H   H6882     1.0  0.89648  0.58177  0.87143  1.0000
  H   H6883     1.0  0.87899  0.56894  0.86128  1.0000
  H   H6884     1.0  0.88009  0.56256  0.89969  1.0000
  H   H6885     1.0  0.88083  0.54700  0.86382  1.0000
  H   H6886     1.0  0.88154  0.54098  0.90159  1.0000
  H   H6887     1.0  0.88188  0.53293  0.88381  1.0000
  H   H6888     1.0  0.82326  0.50234  0.87748  1.0000
  C   C5754     1.0  0.78948  0.64903  0.89591  1.0000
  H   H6889     1.0  0.84831  0.56401  0.80159  1.0000
  H   H6890     1.0  0.77933  0.54623  0.87234  1.0000
  H   H6891     1.0  0.88650  0.52101  0.82212  1.0000
  H   H6892     1.0  0.91930  0.62669  0.96267  1.0000
  C   C5755     1.0  0.82387  0.57388  0.88003  1.0000
  H   H6893     1.0  0.82255  0.49350  0.86749  1.0000
  H   H6894     1.0  0.83493  0.55804  0.80800  1.0000
  H   H6895     1.0  0.92069  0.62293  0.94833  1.0000
  H   H6896     1.0  0.84600  0.49088  0.83542  1.0000
  C   C5756     1.0  0.86916  0.53344  0.82025  1.0000
  H   H6897     1.0  0.88413  0.61371  0.96745  1.0000
  H   H6898     1.0  0.82800  0.57475  0.85506  1.0000
  H   H6899     1.0  0.75349  0.63308  0.89665  1.0000
  H   H6900     1.0  0.88565  0.63178  0.97193  1.0000
  H   H6901     1.0  0.75679  0.65643  0.86820  1.0000
  H   H6902     1.0  0.80777  0.49957  0.85541  1.0000
  H   H6903     1.0  0.88279  0.60704  0.93374  1.0000
  H   H6904     1.0  0.74678  0.64215  0.82183  1.0000
  C   C5757     1.0  0.88314  0.60938  0.95132  1.0000
  C   C5758     1.0  0.88700  0.61088  0.93869  1.0000
  H   H6905     1.0  0.89672  0.49580  0.86147  1.0000
  H   H6906     1.0  0.83785  0.60241  0.78937  1.0000
  H   H6907     1.0  0.81271  0.60340  0.78721  1.0000
  C   C5759     1.0  0.81591  0.61214  0.78507  1.0000
  H   H6908     1.0  0.74636  0.61242  0.84294  1.0000
  H   H6909     1.0  0.75271  0.62707  0.81815  1.0000
  C   C5760     1.0  0.74812  0.63211  0.82565  1.0000
  H   H6910     1.0  0.83229  0.62514  0.78246  1.0000
  H   H6911     1.0  0.80846  0.61996  0.78233  1.0000
  H   H6912     1.0  0.83448  0.59267  0.78167  1.0000
