data_image0
_chemical_formula_structural       CS2C2H2SC2FeS2FeSHFeCFeSHSFeS2FeS2FeSFeS3HC2HNHC3H2C2H2SCHCHC7H4NC2HCHCH3C2HCHCH3C4H2CHSC2HNH3CHCH2CNCHC2HCH6CH2C3H2C2HCNH2CHC2HC2H2CHCSH2CNCH5C2HCHC2H3C2H9SC2SH2CH2CH3FeHC3H2SH3CSCHSCFeCHCFeS2FeSHFeHFeSCSFeS2FeS2FeSFeS3C2HC6H3CHNCH5C6H4SC2H3C2SHNCHCHC2HSCHC2H4C3SH2CSC2H2C2H3C2HNC9H14CH3C4HCH3CHCSC2HCH2CH3C3H2CHC3HNCH3CHSH2CHCH4CFeS2FeS2FeSFeS2FeS4FeS2HS2FeSFeS2HFeSFeSFe3S2FeSHFeS2C2FeS3H3CH2C7H4CHCH3C2NHC6H2C2HCH3C6H4C6H4C6H4C2H3C3H5NC9H14CHNH4C3H3CH2C2HCHCHCH5CH2CHCNCFeSHC2H2CHCNSCH2CH2CH2CHCHCHSCSHC2H2CSCHNCNH5CHFeHC4HCH2C3H4CHCNH3CH2CH4CH2C2H2C2H2C3SCHC3H3C2HC4H5FeH2C3H4CH3C3H4CH2CHCFeS2FeS2FeSHS2FeS2HSFeS5FeSFeS2H2SHSFeHFeS2FeSHFeHSHCFeS3HFeCH2C8H4CHCHCH5C6H9C6H4C6H4C6H4C3HSH2CSCHCHSH4CHCHCN2C2SHNC5H9NSC9H5C2H3C2HNCHC3H2CHFeH2CH3NC2H2FeH2CHC5H2FeH3CHCH5FeC2H2CH3CNC9H15SFeNH4CH2CFeH2C2HCH2C2H2CHCH2CH2CH2NHCHCH5FeS2HCHSFeCS2FeS2FeS2FeSFeS3C4H3C6H4C6H4C6H3C3HNCH6CH3CH2NH2CH4CHCH5C2HCNCH2SC2NH2C4H2NC2H2CSH3FeCH3CH5CH2CH2CHSH5CHCSHCH2FeH2CHC2SFeS2H3SFeCSCFeS2FeS2FeSFeS3HC4HC7H4C6H4C6H3CNC6H2CH11CFeHNC9H15C2H2CH4C4H2CH6NC2HCHCHC3H2C2HC2HSC3HCH2CHFeH4SFeS2FeS2FeSFeS3FeS2FeSCFeSFeS3FeH2FeS2CSFeS3C6H6CH2CH3C2HC7H4C8H3C4H5CH7C2H2CHCH4CH4NHC2H2C3HCNCHCH5NC9H5C2NH2CH2C2HSCH3CHC3HC2H2CH2CH3C3HC2H2C2H2CNHC3HCFeCHC4NH3CH5CH3CH2CSH2CHC2H2CH4CHCHCH6NH2CH3FeSFeS2FeS2FeSFeS3FeS2FeSCFeSFeS3FeNSFeSH2SFeS3C6H4C2H3NH3CH2C7H4CHC4SH3C2HC3H4CH3C2HC2H2CHNC2HCH3CH2CSH3CH2CH2NC9H9CH3CNC5HCHCH4NHC2HC2H4CNC9H4CH2SC2H8C2HC2HCH2C2H3C3H2C2H4C2H2C4H3C2H2C2H2C2H3C3HCH2C2HCH4C2HSH2FeSCFeS2FeSFeS3FeS2FeS2FeSFeS3FeH2FeS2HSFeS3C2HC6H4C6H4C2NHC7H4C5H3NH3CHCHC6H5CHCNC9H12CHNC6HCH12C2H2C4H2CH4CH3C2H2C2HCNC6H2CH11NHCHCSCH2CH2C2H2C2HC3H2CH3FeC2HCHCH2CHCHC3HCNSHCH5CH2CHCHC4H3C2SHFeSHFeS2FeSFeS3FeS2FeS2FeSFeS3FeCSFeS2CSFeS3C2HC6H4C6H4C3H2C6H4C5H2C2HC2H2CHC6H4FeHCHC2HCHCNC2H4CH2NC6SC2H9CHCNCH5NC9H14CH2C2H4NC4H20CHNC9H11NH4C2H4CHCHCHC2H2CH2CH2FeS2FeS2FeSFeS4FeS2FeSFeS2HFeS2FeCHSFeS3C2HC3HC4SC7H4C6H4C6H4C6H4CH2CHC4HSC2H2FeH6CH2C2H4NC9H16NC2NC2H2CHCH2CH4C3H6C2HCH2C2HCHCH2C3H2NSCH3CH3NH2C3H2CHCH2SHC2HC2H6CH3SFeS2FeS2FeSFeS4FeS2FeSFeS2HFeS2FeCNSFeS3CH2C3FeHC2H3C6H4C6H4C6H4C6H4C2HC3HC2HC3H5CH2CH3NCH4CHCNCHSHCHC2H3C2SHCH12C2H3NHCH8CH3C2H4C4HC4HC2H2CSC4HCH7C2NC2FeHCH2CHC2HC3H3CFeS2FeS2FeHFeS2FeS2FeS2FeSFeS3FeS2FeHFeH3S2HSC6H4C6H4C6H4CH3CHNC7H4CH7C2HNHC2HCHCHCHCNC6HCH14CNCH2CHSC3H3CH5C2H2C2SHCH2C2HCH2SCNC2H2CH4NC4H4C3FeH3C2HCH4FeCSCFeS2FeS2FeSFeS2FeS2FeS2FeSFeS3FeS2FeHFeCHS3HSC6H4C6H4C6H5CHCH3NC6H4C3H2CHC2FeSH3SC3HCHCHC2H10C2HNC8H12CH5C2H5C3H2NHC2HC2H2C4HNC9H14C2NH2CH2CH3C4H2FeS2FeS2FeSFeS3CH2C2SH2CH2C3NC2HCHCFeCSFeS2FeSCS3FeS2FeS2FeSFeS3C5H6C6H4C6H6C6H3C3H3CHCHCH2NC9H13CNHC2HC4H11C2HCNC4HCH2CH12CH4C2H3C2H3C2H2C2NCHC2NH4C2HCHCSH4CH2CH3CHCHFeH2C2HCH6CH4CFeHCFeS2FeSHS3FeS2FeS2FeSFeS3FeS2FeS2FeSFeS3C2HNCH3C2NHC2HC2HC6H4CHC7H4C6H4CHC6H2CHSH3C2NCNCH3CHC2HCH3CHCH3CHCH5CH2N2CH6C2HC2H4NCHC2HCH2C2H9CHCH2C2HSCH4CH4CH2CH2NC9H14C4H2SH2C3H3CHFeH2C3H2C3H2CH4C3HCFeS2FeSHFeSFeS3FeS2FeHSHSFeS3FeS2FeS2FeSFeS3CHCSHCHCHCH2C3HC4HCH2C6H4C4HCH2CHC6H4CH9C3NC4HCH3CHCH4CH6CNC9H11CHFeNC9H11CHC3HC2HC3H2CHC2NH2CNC2H4C2NCHC3H3CHCH2CH3CHCHSH2CHCH6CHCH2C4H3CSCH3C3H2CH3CH3C3HC3NHCFeSHFeS2FeSFeS3FeS2FeHSHSFeS3FeS2FeS2FeSFeS3C4HCSCH4C2HC2HCHCH2C7H4CH2C3H2C8H4CH2CHCH2CHCH2CNC9H15C2H5C2H2CHC5NCH4CHC2H2CHCH5C3H4C2H2C4H2C3HCNHNC4H3CHC2SH2C3H4CH2FeHCH3CHNH2CHCH4CHCH4CH3CHC2H3CHC2H2CH2SH3FeS2FeS2FeSFeS3HS2FeSHFeHFeSHSH2CHC6H4C6H4C6H4CHC2NC9H14CHCH2CHCH2C2HCHC2H3C2HCH3CNHCH2CHC2SH2CNH3NC2H5C4H2C2H2CFeHSH2CH2CH2C2H4FeS2FeS2FeSFeS3HS2FeS2FeHFeSCSHC2HC6H2CHC6H4C6H5C3NC4H2CSC2H4C2H2CHCNC9H16CH2NH3C3HC2H3CNCHC2H2CH7CH4CH2FeH2NCHC2HCH4SHCHCH2S2FeS2FeSFeS2HFeSFeS2FeSFeSFeS3CS2FeS2FeSFeH2S2HFeSC7H6C2H2FeC3H7CHC5H3C6H4C6H4C6H4C4HC6H6NC9H13CNC6FeC2H13C4HSHC2NCH6SC2H5CHCHCSHC2H2C2H3C2HSHCNCHCH2C2HCH3CSCH2NHCH4C2H2C2HCH2C2H2NC2NCH3SH5CH5SH3CSHFeS2FeSFeS2HFeSFeS2FeSFeSFeS3CS2FeS2FeSFeHS2H2FeSHC6H6C2H3C2H2C2H4C6H4C6H4C6H4C6H3C2HSCH2CH2C4H6C2HCSHC2HC2HCH2SH5CH2C2H2CHCHCHNC2HC7NH3CSH7CHFeNHC2HCH2CH3CNCH4C3HCH2CNC2HCHNC2H4CSCH2C2H4C6H3CH2C2H2CHC2H5CH2NSH3FeC3NC2HC2H2CHCH4CH2CSH6CH4CHCH4C2H3CFeS2HFeHFeHCHCH3CHSFeS2FeS2FeSFeS3FeS2FeSHFeSFeHS2C3HFeH2CSCH2C9H4C2SCHC2H6C5SCNHC3SHCH3CH2CSC4H6C2SH2SHC3HCHCH3NHC2HCH2CHFeHCHCH3CHC2H2C10HCHSH4CNCH2CH2NH2CH4C3HSHC2FeC2H7C2H2C2FeS2Fe2SH4CSCSNHSFeS2FeSCFeSFeS3FeS2FeSHFeSFeCS2C3HC2H2C2HSCSC7H4C2FeCH2CHCHNH3NC4H4C4H4CSCSCHC2NC9H14CHC2H2CH2SH5CSC2H3CH6CH3CHCH2NC2HCHC3HCH2SH3C2HC4HCHFeCHCH2CNCHCHCH3SFeHCH4CH2C3HCHC
_chemical_formula_sum              "C2160 S576 H2592 Fe288 N144"
_cell_length_a       88.064
_cell_length_b       88.9005
_cell_length_c       44.803
_cell_angle_alpha    91.0756
_cell_angle_beta     92.5841
_cell_angle_gamma    113.848

_space_group_name_H-M_alt    "P 1"
_space_group_IT_number       1

loop_
  _space_group_symop_operation_xyz
  'x, y, z'

loop_
  _atom_site_type_symbol
  _atom_site_label
  _atom_site_symmetry_multiplicity
  _atom_site_fract_x
  _atom_site_fract_y
  _atom_site_fract_z
  _atom_site_occupancy
  C   C1        1.0  0.21811  0.22456  0.26416  1.0000
  S   S1        1.0  0.03057  0.22972  0.38188  1.0000
  S   S2        1.0  0.00219  0.23139  0.31034  1.0000
  C   C2        1.0  0.20813  0.20542  0.46574  1.0000
  C   C3        1.0  0.22273  0.24112  0.25761  1.0000
  H   H1        1.0  0.20106  0.00034  0.17620  1.0000
  H   H2        1.0  0.16333  0.19844  0.37754  1.0000
  S   S3        1.0  0.19708  0.21692  0.41616  1.0000
  C   C4        1.0  0.19653  0.00485  0.33088  1.0000
  C   C5        1.0  0.21462  0.01273  0.46357  1.0000
  Fe  Fe1       1.0  0.24246  0.20659  0.14552  1.0000
  S   S4        1.0  0.22774  0.19152  0.10454  1.0000
  S   S5        1.0  0.23280  0.20514  0.19295  1.0000
  Fe  Fe2       1.0  0.27457  0.22123  0.11175  1.0000
  S   S6        1.0  0.26223  0.20795  0.06826  1.0000
  H   H3        1.0  0.27269  0.09857  0.10280  1.0000
  Fe  Fe3       1.0  0.24090  0.21462  0.07928  1.0000
  C   C6        1.0  0.22311  0.04137  0.24442  1.0000
  Fe  Fe4       1.0  0.24993  0.18561  0.09608  1.0000
  S   S7        1.0  0.25134  0.16197  0.07686  1.0000
  H   H4        1.0  0.29280  0.13597  0.14896  1.0000
  S   S8        1.0  0.26349  0.19870  0.13880  1.0000
  Fe  Fe5       1.0  0.24131  0.06816  0.11135  1.0000
  S   S9        1.0  0.25798  0.06217  0.14379  1.0000
  S   S10       1.0  0.23496  0.08988  0.12461  1.0000
  Fe  Fe6       1.0  0.23746  0.03909  0.06882  1.0000
  S   S11       1.0  0.25421  0.03137  0.09878  1.0000
  S   S12       1.0  0.22969  0.03144  0.01923  1.0000
  Fe  Fe7       1.0  0.24021  0.03550  0.13729  1.0000
  S   S13       1.0  0.23714  0.02151  0.18141  1.0000
  Fe  Fe8       1.0  0.27063  0.05845  0.10370  1.0000
  S   S14       1.0  0.29891  0.06971  0.10822  1.0000
  S   S15       1.0  0.22239  0.04170  0.10691  1.0000
  S   S16       1.0  0.25504  0.06607  0.07174  1.0000
  H   H5        1.0  0.21135  0.02140  0.45113  1.0000
  C   C7        1.0  0.99222  0.22022  0.09569  1.0000
  C   C8        1.0  0.20771  0.02866  0.24836  1.0000
  H   H6        1.0  0.15821  0.19583  0.42827  1.0000
  N   N1        1.0  0.14387  0.20378  0.39678  1.0000
  H   H7        1.0  0.99465  0.21897  0.36911  1.0000
  C   C9        1.0  0.22305  0.00710  0.20538  1.0000
  C   C10       1.0  0.09459  0.20101  0.37386  1.0000
  C   C11       1.0  0.21289  0.03153  0.35341  1.0000
  H   H8        1.0  0.26239  0.23488  0.18505  1.0000
  H   H9        1.0  0.30964  0.11936  0.15663  1.0000
  C   C12       1.0  0.09744  0.19397  0.39985  1.0000
  C   C13       1.0  0.22925  0.00422  0.23329  1.0000
  H   H10       1.0  0.19871  0.05975  0.05662  1.0000
  H   H11       1.0  0.24954  0.21467  0.29378  1.0000
  S   S17       1.0  0.18431  0.23464  0.34402  1.0000
  C   C14       1.0  0.30617  0.08176  0.05146  1.0000
  H   H12       1.0  0.99684  0.22278  0.40892  1.0000
  C   C15       1.0  0.00200  0.23591  0.47629  1.0000
  H   H13       1.0  0.29291  0.07656  0.04610  1.0000
  C   C16       1.0  0.22841  0.21920  0.21662  1.0000
  C   C17       1.0  0.24758  0.14235  0.09153  1.0000
  C   C18       1.0  0.24041  0.13756  0.11891  1.0000
  C   C19       1.0  0.23689  0.12156  0.12879  1.0000
  C   C20       1.0  0.24059  0.11017  0.11165  1.0000
  C   C21       1.0  0.24804  0.11504  0.08452  1.0000
  C   C22       1.0  0.25148  0.13101  0.07454  1.0000
  H   H14       1.0  0.23725  0.14607  0.13217  1.0000
  H   H15       1.0  0.23104  0.11792  0.14974  1.0000
  H   H16       1.0  0.25065  0.10637  0.07078  1.0000
  H   H17       1.0  0.25685  0.13451  0.05317  1.0000
  N   N2        1.0  0.00585  0.23534  0.10908  1.0000
  C   C23       1.0  0.22372  0.22732  0.01178  1.0000
  C   C24       1.0  0.99569  0.22517  0.27186  1.0000
  H   H18       1.0  0.13722  0.18120  0.42018  1.0000
  C   C25       1.0  0.20577  0.21881  0.45337  1.0000
  H   H19       1.0  0.14174  0.19941  0.44404  1.0000
  C   C26       1.0  0.21022  0.23330  0.47092  1.0000
  H   H20       1.0  0.20466  0.19412  0.45241  1.0000
  H   H21       1.0  0.24232  0.01085  0.23970  1.0000
  H   H22       1.0  0.15189  0.20514  0.35142  1.0000
  C   C27       1.0  0.21170  0.23266  0.00018  1.0000
  C   C28       1.0  0.99881  0.21915  0.47426  1.0000
  H   H23       1.0  0.26887  0.21207  0.20138  1.0000
  C   C29       1.0  0.21592  0.02688  0.30091  1.0000
  H   H24       1.0  0.00453  0.21466  0.45743  1.0000
  C   C30       1.0  0.22102  0.21374  0.24388  1.0000
  H   H25       1.0  0.26455  0.21767  0.47906  1.0000
  H   H26       1.0  0.14991  0.22644  0.42211  1.0000
  H   H27       1.0  0.24686  0.05705  0.26508  1.0000
  C   C31       1.0  0.21260  0.99766  0.44959  1.0000
  C   C32       1.0  0.15457  0.22140  0.40338  1.0000
  C   C33       1.0  0.23412  0.22425  0.99210  1.0000
  C   C34       1.0  0.25298  0.24137  0.46098  1.0000
  H   H28       1.0  0.21325  0.13323  0.04444  1.0000
  H   H29       1.0  0.19576  0.99494  0.31455  1.0000
  C   C35       1.0  0.31726  0.09079  0.03016  1.0000
  H   H30       1.0  0.11460  0.18892  0.42795  1.0000
  S   S18       1.0  0.22554  0.22528  0.05103  1.0000
  C   C36       1.0  0.23152  0.07667  0.01327  1.0000
  C   C37       1.0  0.28447  0.10696  0.09326  1.0000
  H   H31       1.0  0.24083  0.04518  0.31421  1.0000
  N   N3        1.0  0.28340  0.23762  0.21410  1.0000
  H   H32       1.0  0.10532  0.21431  0.33524  1.0000
  H   H33       1.0  0.21281  0.05150  0.04405  1.0000
  H   H34       1.0  0.29025  0.09891  0.08427  1.0000
  C   C38       1.0  0.01606  0.23001  0.13013  1.0000
  H   H35       1.0  0.30764  0.10339  0.12975  1.0000
  C   C39       1.0  0.23131  0.04021  0.29633  1.0000
  H   H36       1.0  0.29234  0.24127  0.47459  1.0000
  H   H37       1.0  0.02285  0.22386  0.11791  1.0000
  C   C40       1.0  0.21288  0.12105  0.03980  1.0000
  N   N4        1.0  0.21276  0.01926  0.33041  1.0000
  C   C41       1.0  0.23262  0.23566  0.20976  1.0000
  H   H38       1.0  0.18942  0.06212  0.00447  1.0000
  C   C42       1.0  0.22597  0.01355  0.33907  1.0000
  C   C43       1.0  0.20871  0.10953  0.06197  1.0000
  H   H39       1.0  0.00870  0.21641  0.20562  1.0000
  C   C44       1.0  0.20675  0.99872  0.01037  1.0000
  H   H40       1.0  0.31242  0.09249  0.00845  1.0000
  H   H41       1.0  0.24344  0.22017  0.00069  1.0000
  H   H42       1.0  0.29029  0.10146  0.15047  1.0000
  H   H43       1.0  0.20333  0.03636  0.34750  1.0000
  H   H44       1.0  0.22605  0.04646  0.22252  1.0000
  H   H45       1.0  0.08739  0.18844  0.41462  1.0000
  C   C45       1.0  0.26544  0.22439  0.25741  1.0000
  H   H46       1.0  0.28759  0.21593  0.22446  1.0000
  H   H47       1.0  0.19457  0.99931  0.35321  1.0000
  C   C46       1.0  0.31423  0.14844  0.10191  1.0000
  C   C47       1.0  0.21811  0.01284  0.99777  1.0000
  C   C48       1.0  0.21698  0.11705  0.01198  1.0000
  H   H48       1.0  0.24125  0.08461  0.03014  1.0000
  H   H49       1.0  0.14245  0.18473  0.36501  1.0000
  C   C49       1.0  0.12333  0.20905  0.36230  1.0000
  C   C50       1.0  0.28207  0.22080  0.20626  1.0000
  H   H50       1.0  0.20585  0.11283  0.08380  1.0000
  C   C51       1.0  0.27498  0.23853  0.24156  1.0000
  N   N5        1.0  0.29554  0.11930  0.11604  1.0000
  H   H51       1.0  0.15508  0.22907  0.38379  1.0000
  H   H52       1.0  0.10902  0.23737  0.41854  1.0000
  C   C52       1.0  0.14518  0.19459  0.42347  1.0000
  H   H53       1.0  0.18590  0.00831  0.32592  1.0000
  C   C53       1.0  0.15060  0.19775  0.37160  1.0000
  C   C54       1.0  0.20609  0.99836  0.19750  1.0000
  H   H54       1.0  0.19873  0.02399  0.22944  1.0000
  C   C55       1.0  0.23486  0.04720  0.26839  1.0000
  C   C56       1.0  0.20226  0.06432  0.99844  1.0000
  H   H55       1.0  0.27445  0.11763  0.14097  1.0000
  H   H56       1.0  0.16757  0.22329  0.40996  1.0000
  C   C57       1.0  0.21719  0.10159  0.00639  1.0000
  H   H57       1.0  0.26353  0.21208  0.25010  1.0000
  C   C58       1.0  0.98778  0.21631  0.38998  1.0000
  S   S19       1.0  0.25436  0.22983  0.12082  1.0000
  H   H58       1.0  0.23793  0.24005  0.18868  1.0000
  H   H59       1.0  0.01919  0.22642  0.25788  1.0000
  C   C59       1.0  0.28546  0.12698  0.13068  1.0000
  N   N6        1.0  0.21464  0.07376  0.02275  1.0000
  C   C60       1.0  0.11324  0.19440  0.40728  1.0000
  H   H60       1.0  0.22351  0.00699  0.36045  1.0000
  H   H61       1.0  0.22513  0.04222  0.35614  1.0000
  H   H62       1.0  0.23420  0.08267  0.99148  1.0000
  H   H63       1.0  0.28118  0.11305  0.07407  1.0000
  H   H64       1.0  0.22026  0.12611  0.99487  1.0000
  C   C61       1.0  0.31230  0.07964  0.07970  1.0000
  C   C62       1.0  0.20900  0.09408  0.05674  1.0000
  H   H65       1.0  0.28040  0.13330  0.11428  1.0000
  C   C63       1.0  0.20411  0.02139  0.27604  1.0000
  H   H66       1.0  0.24636  0.22814  0.45991  1.0000
  C   C64       1.0  0.25724  0.22569  0.28272  1.0000
  C   C65       1.0  0.12673  0.20205  0.38868  1.0000
  H   H67       1.0  0.22057  0.06959  0.06819  1.0000
  H   H68       1.0  0.22686  0.00495  0.32157  1.0000
  H   H69       1.0  0.00823  0.22111  0.14622  1.0000
  C   C66       1.0  0.21352  0.08972  0.02880  1.0000
  C   C67       1.0  0.00637  0.22358  0.25097  1.0000
  H   H70       1.0  0.21026  0.02605  0.37583  1.0000
  H   H71       1.0  0.21761  0.20105  0.24945  1.0000
  H   H72       1.0  0.21253  0.22013  0.28503  1.0000
  H   H73       1.0  0.20510  0.99872  0.03415  1.0000
  H   H74       1.0  0.23842  0.02382  0.34270  1.0000
  H   H75       1.0  0.13306  0.21575  0.34768  1.0000
  H   H76       1.0  0.19215  0.01118  0.27699  1.0000
  H   H77       1.0  0.20617  0.08605  0.07539  1.0000
  H   H78       1.0  0.20260  0.05208  0.99376  1.0000
  S   S20       1.0  0.07910  0.23710  0.38939  1.0000
  C   C68       1.0  0.00035  0.21790  0.22122  1.0000
  C   C69       1.0  0.10747  0.20839  0.35499  1.0000
  S   S21       1.0  0.30202  0.23613  0.12514  1.0000
  H   H79       1.0  0.28867  0.22060  0.18566  1.0000
  H   H80       1.0  0.23316  0.06493  0.01038  1.0000
  C   C70       1.0  0.30104  0.11058  0.13923  1.0000
  H   H81       1.0  0.08249  0.20116  0.36871  1.0000
  H   H82       1.0  0.99710  0.21268  0.08225  1.0000
  C   C71       1.0  0.21153  0.06326  0.04911  1.0000
  H   H83       1.0  0.20354  0.23497  0.01523  1.0000
  H   H84       1.0  0.00208  0.23258  0.04604  1.0000
  H   H85       1.0  0.98989  0.23680  0.14319  1.0000
  Fe  Fe9       1.0  0.19826  0.23889  0.38931  1.0000
  H   H86       1.0  0.30675  0.15384  0.11254  1.0000
  C   C72       1.0  0.31020  0.13123  0.10168  1.0000
  C   C73       1.0  0.21877  0.99286  0.25297  1.0000
  C   C74       1.0  0.25806  0.24093  0.29274  1.0000
  H   H87       1.0  0.24805  0.99245  0.16842  1.0000
  H   H88       1.0  0.02528  0.24037  0.14419  1.0000
  S   S22       1.0  0.20470  0.99330  0.41160  1.0000
  H   H89       1.0  0.00121  0.19808  0.98911  1.0000
  H   H90       1.0  0.31858  0.11280  0.08526  1.0000
  H   H91       1.0  0.25104  0.24172  0.31153  1.0000
  C   C75       1.0  0.23771  0.23095  0.74847  1.0000
  S   S23       1.0  0.03669  0.22921  0.86266  1.0000
  C   C76       1.0  0.26407  0.22298  0.50150  1.0000
  H   H92       1.0  0.28902  0.08481  0.54307  1.0000
  S   S24       1.0  0.01425  0.21822  0.93886  1.0000
  C   C77       1.0  0.30731  0.15085  0.63439  1.0000
  Fe  Fe10      1.0  0.02482  0.23635  0.90141  1.0000
  C   C78       1.0  0.25266  0.99377  0.71283  1.0000
  H   H93       1.0  0.05933  0.19534  0.95425  1.0000
  C   C79       1.0  0.21003  0.23489  0.96930  1.0000
  Fe  Fe11      1.0  0.24779  0.21275  0.64905  1.0000
  S   S25       1.0  0.22523  0.19545  0.62173  1.0000
  S   S26       1.0  0.24956  0.22242  0.69760  1.0000
  Fe  Fe12      1.0  0.27147  0.20934  0.60234  1.0000
  S   S27       1.0  0.25046  0.19178  0.57200  1.0000
  H   H94       1.0  0.21808  0.00304  0.79148  1.0000
  Fe  Fe13      1.0  0.23804  0.20909  0.58160  1.0000
  H   H95       1.0  0.21187  0.99852  0.92451  1.0000
  Fe  Fe14      1.0  0.23949  0.17951  0.61443  1.0000
  S   S28       1.0  0.23017  0.15309  0.63050  1.0000
  C   C80       1.0  0.29199  0.13714  0.62764  1.0000
  S   S29       1.0  0.26129  0.19620  0.64383  1.0000
  Fe  Fe15      1.0  0.23930  0.06550  0.60037  1.0000
  S   S30       1.0  0.25488  0.06700  0.64226  1.0000
  S   S31       1.0  0.23586  0.08760  0.57997  1.0000
  Fe  Fe16      1.0  0.23953  0.03213  0.58054  1.0000
  S   S32       1.0  0.25597  0.03222  0.62105  1.0000
  S   S33       1.0  0.23196  0.00938  0.54867  1.0000
  Fe  Fe17      1.0  0.23900  0.03987  0.64775  1.0000
  S   S34       1.0  0.23406  0.03129  0.69648  1.0000
  Fe  Fe18      1.0  0.27048  0.05903  0.61277  1.0000
  S   S35       1.0  0.29820  0.07534  0.61952  1.0000
  S   S36       1.0  0.22188  0.03886  0.60747  1.0000
  S   S37       1.0  0.25557  0.05836  0.57065  1.0000
  C   C81       1.0  0.21531  0.00210  0.76758  1.0000
  C   C82       1.0  0.22501  0.00559  0.51016  1.0000
  H   H96       1.0  0.05464  0.23424  0.95432  1.0000
  C   C83       1.0  0.99944  0.21812  0.96493  1.0000
  C   C84       1.0  0.29402  0.11491  0.65547  1.0000
  C   C85       1.0  0.22078  0.01669  0.49365  1.0000
  C   C86       1.0  0.22146  0.01435  0.71815  1.0000
  C   C87       1.0  0.22473  0.01513  0.74942  1.0000
  C   C88       1.0  0.30958  0.06817  0.56655  1.0000
  H   H97       1.0  0.20066  0.23890  0.96074  1.0000
  H   H98       1.0  0.99458  0.23788  0.94599  1.0000
  H   H99       1.0  0.23466  0.02596  0.75972  1.0000
  C   C89       1.0  0.30969  0.10656  0.53040  1.0000
  H   H100      1.0  0.08405  0.22831  0.85470  1.0000
  N   N7        1.0  0.29136  0.12024  0.62528  1.0000
  C   C90       1.0  0.29300  0.09737  0.53583  1.0000
  H   H101      1.0  0.27738  0.12567  0.52030  1.0000
  H   H102      1.0  0.21663  0.19609  0.50451  1.0000
  H   H103      1.0  0.24998  0.00372  0.70361  1.0000
  H   H104      1.0  0.29747  0.05811  0.56270  1.0000
  H   H105      1.0  0.07953  0.19688  0.92318  1.0000
  C   C91       1.0  0.23244  0.13525  0.61623  1.0000
  C   C92       1.0  0.23635  0.13373  0.58669  1.0000
  C   C93       1.0  0.23725  0.11906  0.57607  1.0000
  C   C94       1.0  0.23462  0.10581  0.59491  1.0000
  C   C95       1.0  0.23114  0.10748  0.62466  1.0000
  C   C96       1.0  0.22988  0.12203  0.63510  1.0000
  H   H106      1.0  0.23823  0.14369  0.57179  1.0000
  H   H107      1.0  0.23988  0.11791  0.55299  1.0000
  H   H108      1.0  0.22899  0.09742  0.63942  1.0000
  H   H109      1.0  0.22679  0.12298  0.65795  1.0000
  S   S38       1.0  0.29828  0.21370  0.59494  1.0000
  C   C97       1.0  0.21931  0.22098  0.51284  1.0000
  C   C98       1.0  0.28650  0.12038  0.52306  1.0000
  H   H110      1.0  0.26842  0.09701  0.53622  1.0000
  H   H111      1.0  0.17477  0.00263  0.51311  1.0000
  H   H112      1.0  0.06778  0.21043  0.98453  1.0000
  C   C99       1.0  0.30319  0.12969  0.51747  1.0000
  C   C100      1.0  0.21990  0.01256  0.96668  1.0000
  S   S39       1.0  0.14081  0.23017  0.85877  1.0000
  H   H113      1.0  0.05925  0.20412  0.90222  1.0000
  N   N8        1.0  0.06904  0.22069  0.94118  1.0000
  C   C101      1.0  0.23648  0.22986  0.71695  1.0000
  H   H114      1.0  0.29355  0.10216  0.65457  1.0000
  C   C102      1.0  0.99154  0.22894  0.96325  1.0000
  H   H115      1.0  0.26930  0.21687  0.51803  1.0000
  C   C103      1.0  0.31304  0.07830  0.59243  1.0000
  C   C104      1.0  0.21691  0.23433  0.50045  1.0000
  H   H116      1.0  0.29615  0.23812  0.51328  1.0000
  S   S40       1.0  0.21982  0.23568  0.91092  1.0000
  C   C105      1.0  0.10575  0.21011  0.92493  1.0000
  H   H117      1.0  0.26746  0.15891  0.62133  1.0000
  C   C106      1.0  0.00100  0.22743  0.72909  1.0000
  C   C107      1.0  0.28139  0.10423  0.53204  1.0000
  H   H118      1.0  0.31493  0.22261  0.69505  1.0000
  H   H119      1.0  0.06562  0.22550  0.89519  1.0000
  H   H120      1.0  0.22429  0.23453  0.67774  1.0000
  H   H121      1.0  0.27182  0.11179  0.59015  1.0000
  C   C108      1.0  0.31324  0.23111  0.57874  1.0000
  C   C109      1.0  0.00016  0.22566  0.76027  1.0000
  C   C110      1.0  0.22053  0.23196  0.94968  1.0000
  S   S41       1.0  0.18549  0.23050  0.84609  1.0000
  H   H122      1.0  0.30415  0.12559  0.58451  1.0000
  H   H123      1.0  0.24075  0.22433  0.94626  1.0000
  C   C111      1.0  0.06783  0.23602  0.95221  1.0000
  S   S42       1.0  0.22792  0.22329  0.55020  1.0000
  C   C112      1.0  0.27757  0.14051  0.62379  1.0000
  C   C113      1.0  0.27523  0.10794  0.61202  1.0000
  H   H124      1.0  0.22212  0.02824  0.50416  1.0000
  H   H125      1.0  0.27574  0.00065  0.69152  1.0000
  C   C114      1.0  0.30498  0.22422  0.68104  1.0000
  C   C115      1.0  0.06068  0.20770  0.96247  1.0000
  H   H126      1.0  0.27550  0.09564  0.60796  1.0000
  H   H127      1.0  0.20572  0.99931  0.68148  1.0000
  H   H128      1.0  0.30287  0.21689  0.65962  1.0000
  C   C116      1.0  0.29398  0.16987  0.62990  1.0000
  C   C117      1.0  0.23255  0.22661  0.96125  1.0000
  H   H129      1.0  0.10792  0.19964  0.91667  1.0000
  N   N9        1.0  0.21010  0.17739  0.72317  1.0000
  C   C118      1.0  0.20050  0.15949  0.72634  1.0000
  C   C119      1.0  0.21099  0.18047  0.69068  1.0000
  C   C120      1.0  0.22738  0.18200  0.73561  1.0000
  C   C121      1.0  0.20221  0.18670  0.73961  1.0000
  C   C122      1.0  0.19511  0.19665  0.72517  1.0000
  C   C123      1.0  0.20134  0.18585  0.77117  1.0000
  C   C124      1.0  0.18780  0.20527  0.74149  1.0000
  C   C125      1.0  0.19418  0.19470  0.78728  1.0000
  C   C126      1.0  0.18747  0.20442  0.77245  1.0000
  H   H130      1.0  0.18733  0.15566  0.71785  1.0000
  H   H131      1.0  0.20581  0.15206  0.71352  1.0000
  H   H132      1.0  0.20034  0.15591  0.75000  1.0000
  H   H133      1.0  0.19841  0.17642  0.67926  1.0000
  H   H134      1.0  0.21732  0.17361  0.67897  1.0000
  H   H135      1.0  0.21819  0.19376  0.68680  1.0000
  H   H136      1.0  0.22789  0.17807  0.75888  1.0000
  H   H137      1.0  0.22856  0.02343  0.95661  1.0000
  H   H138      1.0  0.23457  0.19558  0.73580  1.0000
  H   H139      1.0  0.19530  0.19829  0.70136  1.0000
  H   H140      1.0  0.20631  0.17843  0.78370  1.0000
  H   H141      1.0  0.18281  0.21313  0.73022  1.0000
  H   H142      1.0  0.19394  0.19416  0.81144  1.0000
  H   H143      1.0  0.18218  0.21152  0.78496  1.0000
  C   C127      1.0  0.21044  0.99844  0.94837  1.0000
  H   H144      1.0  0.30628  0.12308  0.66633  1.0000
  H   H145      1.0  0.10531  0.21706  0.84706  1.0000
  H   H146      1.0  0.04783  0.20662  0.96620  1.0000
  C   C128      1.0  0.05973  0.21594  0.91172  1.0000
  C   C129      1.0  0.10915  0.22958  0.85570  1.0000
  C   C130      1.0  0.30457  0.11984  0.60617  1.0000
  C   C131      1.0  0.21496  0.20651  0.49526  1.0000
  H   H147      1.0  0.04659  0.21444  0.91324  1.0000
  C   C132      1.0  0.99460  0.24142  0.49890  1.0000
  H   H148      1.0  0.07437  0.24024  0.97458  1.0000
  H   H149      1.0  0.23418  0.17630  0.72219  1.0000
  H   H150      1.0  0.30316  0.10703  0.60101  1.0000
  C   C133      1.0  0.22799  0.23721  0.76477  1.0000
  H   H151      1.0  0.31723  0.12612  0.61708  1.0000
  C   C134      1.0  0.20850  0.00020  0.70538  1.0000
  S   S43       1.0  0.25996  0.22735  0.60973  1.0000
  C   C135      1.0  0.27864  0.15665  0.62472  1.0000
  C   C136      1.0  0.98761  0.21761  0.70907  1.0000
  H   H152      1.0  0.30623  0.14209  0.51056  1.0000
  C   C137      1.0  0.08636  0.22245  0.93809  1.0000
  H   H153      1.0  0.28424  0.11487  0.67043  1.0000
  H   H154      1.0  0.29328  0.21853  0.69301  1.0000
  C   C138      1.0  0.98572  0.21375  0.77112  1.0000
  H   H155      1.0  0.26529  0.13088  0.61995  1.0000
  H   H156      1.0  0.26487  0.10575  0.62705  1.0000
  H   H157      1.0  0.29473  0.18236  0.63004  1.0000
  C   C139      1.0  0.12618  0.23923  0.86248  1.0000
  C   C140      1.0  0.08956  0.20872  0.92858  1.0000
  C   C141      1.0  0.30828  0.16697  0.63509  1.0000
  H   H158      1.0  0.24625  0.22693  0.76046  1.0000
  H   H159      1.0  0.27512  0.23941  0.55115  1.0000
  C   C142      1.0  0.22538  0.23518  0.70193  1.0000
  H   H160      1.0  0.13172  0.22629  0.92686  1.0000
  C   C143      1.0  0.10041  0.23763  0.94372  1.0000
  C   C144      1.0  0.11923  0.22512  0.93080  1.0000
  C   C145      1.0  0.09702  0.23591  0.86020  1.0000
  H   H161      1.0  0.20450  0.07081  0.97705  1.0000
  N   N10       1.0  0.27334  0.24118  0.50323  1.0000
  C   C146      1.0  0.98823  0.20812  0.49426  1.0000
  H   H162      1.0  0.28285  0.23596  0.66914  1.0000
  H   H163      1.0  0.01212  0.23652  0.72038  1.0000
  H   H164      1.0  0.25083  0.21932  0.50667  1.0000
  C   C147      1.0  0.99524  0.20658  0.98763  1.0000
  H   H165      1.0  0.98858  0.21908  0.68522  1.0000
  S   S44       1.0  0.01721  0.23909  0.78434  1.0000
  H   H166      1.0  0.22048  0.09909  0.98448  1.0000
  H   H167      1.0  0.98582  0.19520  0.49229  1.0000
  C   C148      1.0  0.11657  0.23882  0.94025  1.0000
  H   H168      1.0  0.29358  0.23716  0.63540  1.0000
  C   C149      1.0  0.31532  0.12294  0.52071  1.0000
  H   H169      1.0  0.24517  0.99414  0.94387  1.0000
  H   H170      1.0  0.22905  0.23785  0.78896  1.0000
  H   H171      1.0  0.19332  0.99901  0.55273  1.0000
  H   H172      1.0  0.31818  0.10070  0.53385  1.0000
  C   C150      1.0  0.26717  0.99205  0.70607  1.0000
  Fe  Fe19      1.0  0.04312  0.44139  0.18978  1.0000
  S   S45       1.0  0.05669  0.45978  0.22723  1.0000
  S   S46       1.0  0.01572  0.42386  0.18659  1.0000
  Fe  Fe20      1.0  0.07271  0.45489  0.14803  1.0000
  S   S47       1.0  0.08817  0.47439  0.18296  1.0000
  S   S48       1.0  0.07868  0.45467  0.09837  1.0000
  Fe  Fe21      1.0  0.07858  0.45400  0.21590  1.0000
  S   S49       1.0  0.09754  0.44971  0.24729  1.0000
  Fe  Fe22      1.0  0.06511  0.47864  0.19147  1.0000
  S   S50       1.0  0.06437  0.43433  0.18028  1.0000
  S   S51       1.0  0.05024  0.46034  0.15489  1.0000
  Fe  Fe23      1.0  0.05212  0.27645  0.36791  1.0000
  S   S52       1.0  0.05762  0.26553  0.40949  1.0000
  S   S53       1.0  0.06636  0.30326  0.35666  1.0000
  S   S54       1.0  0.02457  0.26331  0.37074  1.0000
  S   S55       1.0  0.05359  0.25718  0.33598  1.0000
  Fe  Fe24      1.0  0.10927  0.38925  0.44518  1.0000
  S   S56       1.0  0.11906  0.39908  0.40107  1.0000
  S   S57       1.0  0.09265  0.36265  0.45375  1.0000
  H   H173      1.0  0.07383  0.40200  0.06788  1.0000
  S   S58       1.0  0.13509  0.43574  0.43504  1.0000
  S   S59       1.0  0.11734  0.41981  0.02390  1.0000
  Fe  Fe25      1.0  0.11067  0.41927  0.41132  1.0000
  S   S60       1.0  0.09316  0.42675  0.38181  1.0000
  Fe  Fe26      1.0  0.14292  0.41464  0.42810  1.0000
  S   S61       1.0  0.16679  0.41651  0.40636  1.0000
  S   S62       1.0  0.09918  0.40834  0.45407  1.0000
  H   H174      1.0  0.00756  0.25551  0.13883  1.0000
  Fe  Fe27      1.0  0.02601  0.24294  0.34181  1.0000
  S   S63       1.0  0.22227  0.25651  0.37200  1.0000
  Fe  Fe28      1.0  0.17772  0.25560  0.35889  1.0000
  S   S64       1.0  0.20055  0.27464  0.33966  1.0000
  Fe  Fe29      1.0  0.29220  0.41701  0.46265  1.0000
  Fe  Fe30      1.0  0.20796  0.25376  0.32783  1.0000
  Fe  Fe31      1.0  0.21327  0.27599  0.38467  1.0000
  S   S65       1.0  0.23174  0.29827  0.41171  1.0000
  S   S66       1.0  0.19009  0.25850  0.40507  1.0000
  Fe  Fe32      1.0  0.29412  0.43227  0.40102  1.0000
  S   S67       1.0  0.29775  0.41002  0.41678  1.0000
  H   H175      1.0  0.09899  0.29216  0.43587  1.0000
  Fe  Fe33      1.0  0.26224  0.42352  0.43690  1.0000
  S   S68       1.0  0.26476  0.40114  0.45507  1.0000
  S   S69       1.0  0.24043  0.42790  0.45573  1.0000
  C   C151      1.0  0.13722  0.31563  0.42421  1.0000
  C   C152      1.0  0.27401  0.34641  0.34729  1.0000
  Fe  Fe34      1.0  0.27003  0.39643  0.40815  1.0000
  S   S70       1.0  0.25540  0.37327  0.37925  1.0000
  S   S71       1.0  0.28953  0.43975  0.44740  1.0000
  S   S72       1.0  0.26662  0.41832  0.38944  1.0000
  H   H176      1.0  0.10093  0.31293  0.36222  1.0000
  H   H177      1.0  0.31063  0.48045  0.14030  1.0000
  H   H178      1.0  0.19368  0.38616  0.42678  1.0000
  C   C153      1.0  0.10918  0.46707  0.42271  1.0000
  H   H179      1.0  0.22451  0.30725  0.31071  1.0000
  H   H180      1.0  0.29023  0.46036  0.16982  1.0000
  C   C154      1.0  0.14841  0.29108  0.41168  1.0000
  C   C155      1.0  0.23689  0.31911  0.40371  1.0000
  C   C156      1.0  0.24825  0.33151  0.42327  1.0000
  C   C157      1.0  0.25354  0.34823  0.41674  1.0000
  C   C158      1.0  0.24765  0.35266  0.39033  1.0000
  C   C159      1.0  0.23598  0.34029  0.37111  1.0000
  C   C160      1.0  0.23050  0.32358  0.37787  1.0000
  H   H181      1.0  0.25321  0.32814  0.44336  1.0000
  H   H182      1.0  0.26257  0.35764  0.43165  1.0000
  H   H183      1.0  0.23138  0.34365  0.35061  1.0000
  H   H184      1.0  0.22160  0.31417  0.36288  1.0000
  C   C161      1.0  0.26543  0.32951  0.34093  1.0000
  H   H185      1.0  0.02154  0.49083  0.21244  1.0000
  C   C162      1.0  0.13790  0.47519  0.44044  1.0000
  H   H186      1.0  0.15278  0.28155  0.40663  1.0000
  H   H187      1.0  0.22775  0.38143  0.38900  1.0000
  H   H188      1.0  0.09928  0.46428  0.40564  1.0000
  C   C163      1.0  0.05557  0.35542  0.00956  1.0000
  C   C164      1.0  0.99816  0.24457  0.12628  1.0000
  N   N11       1.0  0.11024  0.30044  0.39420  1.0000
  H   H189      1.0  0.25907  0.29598  0.33923  1.0000
  C   C165      1.0  0.18718  0.41974  0.42075  1.0000
  C   C166      1.0  0.19904  0.41976  0.40062  1.0000
  C   C167      1.0  0.21537  0.42234  0.41077  1.0000
  C   C168      1.0  0.22010  0.42490  0.44133  1.0000
  C   C169      1.0  0.20824  0.42489  0.46145  1.0000
  C   C170      1.0  0.19189  0.42225  0.45130  1.0000
  H   H190      1.0  0.19561  0.41798  0.37691  1.0000
  H   H191      1.0  0.22437  0.42263  0.39489  1.0000
  C   C171      1.0  0.27704  0.44606  0.08253  1.0000
  C   C172      1.0  0.07517  0.34518  0.99095  1.0000
  H   H192      1.0  0.09776  0.43878  0.00569  1.0000
  C   C173      1.0  0.20085  0.38108  0.44141  1.0000
  H   H193      1.0  0.03943  0.37694  0.01541  1.0000
  H   H194      1.0  0.03402  0.26386  0.11925  1.0000
  H   H195      1.0  0.30649  0.45965  0.19429  1.0000
  C   C174      1.0  0.08576  0.34625  0.42657  1.0000
  C   C175      1.0  0.07375  0.33087  0.43388  1.0000
  C   C176      1.0  0.06765  0.31760  0.41270  1.0000
  C   C177      1.0  0.07347  0.31964  0.38391  1.0000
  C   C178      1.0  0.08554  0.33500  0.37659  1.0000
  C   C179      1.0  0.09182  0.34820  0.39793  1.0000
  H   H196      1.0  0.06906  0.32923  0.45605  1.0000
  H   H197      1.0  0.05837  0.30582  0.41863  1.0000
  H   H198      1.0  0.09015  0.33665  0.35437  1.0000
  H   H199      1.0  0.10133  0.35987  0.39226  1.0000
  C   C180      1.0  0.09547  0.44232  0.28406  1.0000
  C   C181      1.0  0.08199  0.44091  0.30087  1.0000
  C   C182      1.0  0.08129  0.43569  0.33050  1.0000
  C   C183      1.0  0.09394  0.43166  0.34354  1.0000
  C   C184      1.0  0.10724  0.43273  0.32653  1.0000
  C   C185      1.0  0.10804  0.43816  0.29705  1.0000
  H   H200      1.0  0.07227  0.44412  0.29121  1.0000
  H   H201      1.0  0.07099  0.43499  0.34353  1.0000
  H   H202      1.0  0.11698  0.42953  0.33611  1.0000
  H   H203      1.0  0.11849  0.43916  0.28416  1.0000
  C   C186      1.0  0.10703  0.43021  0.04406  1.0000
  C   C187      1.0  0.10730  0.42978  0.07553  1.0000
  C   C188      1.0  0.09862  0.43699  0.09247  1.0000
  C   C189      1.0  0.08968  0.44500  0.07822  1.0000
  C   C190      1.0  0.08951  0.44556  0.04677  1.0000
  C   C191      1.0  0.09807  0.43820  0.02980  1.0000
  H   H204      1.0  0.11423  0.42372  0.08694  1.0000
  H   H205      1.0  0.09902  0.43652  0.11660  1.0000
  H   H206      1.0  0.08274  0.45177  0.03540  1.0000
  H   H207      1.0  0.31767  0.40242  0.34464  1.0000
  C   C192      1.0  0.00254  0.41980  0.21675  1.0000
  C   C193      1.0  0.00890  0.42396  0.24634  1.0000
  H   H208      1.0  0.01471  0.45571  0.21276  1.0000
  H   H209      1.0  0.02221  0.42948  0.25121  1.0000
  H   H210      1.0  0.12332  0.25802  0.31731  1.0000
  C   C194      1.0  0.13274  0.28940  0.40032  1.0000
  C   C195      1.0  0.13262  0.25189  0.35859  1.0000
  C   C196      1.0  0.22051  0.38634  0.40296  1.0000
  H   H211      1.0  0.08722  0.29937  0.41087  1.0000
  H   H212      1.0  0.11783  0.32636  0.38618  1.0000
  H   H213      1.0  0.12563  0.27838  0.38692  1.0000
  H   H214      1.0  0.12775  0.45089  0.37781  1.0000
  H   H215      1.0  0.99340  0.44716  0.22176  1.0000
  N   N12       1.0  0.06116  0.37423  0.37125  1.0000
  C   C197      1.0  0.04756  0.37963  0.37661  1.0000
  C   C198      1.0  0.05381  0.35597  0.36924  1.0000
  C   C199      1.0  0.07305  0.37989  0.39772  1.0000
  C   C200      1.0  0.06999  0.38078  0.34384  1.0000
  C   C201      1.0  0.06554  0.39096  0.32425  1.0000
  C   C202      1.0  0.08358  0.37706  0.33608  1.0000
  C   C203      1.0  0.07427  0.39700  0.29870  1.0000
  C   C204      1.0  0.09234  0.38334  0.31069  1.0000
  C   C205      1.0  0.08771  0.39332  0.29207  1.0000
  H   H216      1.0  0.03776  0.37532  0.35807  1.0000
  H   H217      1.0  0.04133  0.37463  0.39752  1.0000
  H   H218      1.0  0.05248  0.39331  0.37934  1.0000
  H   H219      1.0  0.04505  0.35117  0.34921  1.0000
  H   H220      1.0  0.04695  0.35059  0.38941  1.0000
  H   H221      1.0  0.06340  0.35089  0.36763  1.0000
  H   H222      1.0  0.07918  0.39355  0.39940  1.0000
  H   H223      1.0  0.06692  0.37555  0.41902  1.0000
  H   H224      1.0  0.08301  0.37532  0.39698  1.0000
  H   H225      1.0  0.05564  0.39479  0.32843  1.0000
  H   H226      1.0  0.08768  0.36942  0.34985  1.0000
  H   H227      1.0  0.07093  0.40504  0.28439  1.0000
  H   H228      1.0  0.10290  0.38061  0.30561  1.0000
  H   H229      1.0  0.27312  0.28909  0.46236  1.0000
  C   C206      1.0  0.29885  0.45416  0.17316  1.0000
  H   H230      1.0  0.23227  0.36874  0.43478  1.0000
  N   N13       1.0  0.13183  0.47617  0.38518  1.0000
  H   H231      1.0  0.08810  0.28428  0.36821  1.0000
  H   H232      1.0  0.99045  0.24889  0.11123  1.0000
  H   H233      1.0  0.13344  0.32549  0.42947  1.0000
  H   H234      1.0  0.02305  0.46174  0.26735  1.0000
  C   C207      1.0  0.15841  0.30486  0.42946  1.0000
  C   C208      1.0  0.15285  0.31715  0.43563  1.0000
  C   C209      1.0  0.18588  0.35829  0.38947  1.0000
  H   H235      1.0  0.12144  0.31446  0.35644  1.0000
  H   H236      1.0  0.10821  0.46330  0.36079  1.0000
  H   H237      1.0  0.04616  0.39159  0.04620  1.0000
  C   C210      1.0  0.08481  0.37347  0.00918  1.0000
  H   H238      1.0  0.22954  0.39785  0.41472  1.0000
  H   H239      1.0  0.28224  0.26508  0.24115  1.0000
  C   C211      1.0  0.26765  0.27574  0.46182  1.0000
  C   C212      1.0  0.19980  0.35880  0.40745  1.0000
  H   H240      1.0  0.18311  0.36905  0.38760  1.0000
  C   C213      1.0  0.00392  0.45886  0.21696  1.0000
  H   H241      1.0  0.08925  0.39601  0.05422  1.0000
  C   C214      1.0  0.28675  0.45317  0.10879  1.0000
  H   H242      1.0  0.00051  0.46330  0.19569  1.0000
  C   C215      1.0  0.13766  0.46344  0.37573  1.0000
  H   H243      1.0  0.20891  0.39169  0.45653  1.0000
  H   H244      1.0  0.14113  0.46458  0.35202  1.0000
  H   H245      1.0  0.14867  0.46402  0.38970  1.0000
  H   H246      1.0  0.08898  0.48888  0.12456  1.0000
  H   H247      1.0  0.17074  0.31892  0.36062  1.0000
  C   C216      1.0  0.10431  0.46388  0.45204  1.0000
  H   H248      1.0  0.22981  0.38300  0.46035  1.0000
  H   H249      1.0  0.06179  0.47959  0.09927  1.0000
  C   C217      1.0  0.31208  0.43904  0.31638  1.0000
  H   H250      1.0  0.19201  0.37170  0.45545  1.0000
  C   C218      1.0  0.19255  0.33015  0.39031  1.0000
  N   N14       1.0  0.06544  0.38520  0.02915  1.0000
  C   C219      1.0  0.27565  0.25390  0.25254  1.0000
  Fe  Fe35      1.0  0.05810  0.24564  0.37805  1.0000
  S   S73       1.0  0.15281  0.25689  0.34506  1.0000
  H   H251      1.0  0.29120  0.44094  0.17690  1.0000
  C   C220      1.0  0.99327  0.47538  0.24569  1.0000
  C   C221      1.0  0.17547  0.34402  0.37302  1.0000
  H   H252      1.0  0.20847  0.24370  0.46181  1.0000
  H   H253      1.0  0.04358  0.37091  0.05236  1.0000
  C   C222      1.0  0.29893  0.44779  0.12022  1.0000
  H   H254      1.0  0.17051  0.30604  0.43836  1.0000
  C   C223      1.0  0.25756  0.32338  0.31216  1.0000
  N   N15       1.0  0.24792  0.30562  0.30474  1.0000
  S   S74       1.0  0.31532  0.45114  0.37559  1.0000
  C   C224      1.0  0.99799  0.42077  0.26971  1.0000
  H   H255      1.0  0.04484  0.27529  0.02827  1.0000
  H   H256      1.0  0.23030  0.30872  0.27263  1.0000
  C   C225      1.0  0.26767  0.35208  0.29697  1.0000
  H   H257      1.0  0.24035  0.29816  0.34917  1.0000
  H   H258      1.0  0.19530  0.31929  0.39020  1.0000
  C   C226      1.0  0.10404  0.24962  0.34886  1.0000
  H   H259      1.0  0.23923  0.28179  0.32443  1.0000
  H   H260      1.0  0.00175  0.45308  0.27557  1.0000
  C   C227      1.0  0.20300  0.34433  0.40696  1.0000
  H   H261      1.0  0.30033  0.42954  0.32191  1.0000
  C   C228      1.0  0.24666  0.29502  0.33058  1.0000
  H   H262      1.0  0.10521  0.31388  0.43077  1.0000
  C   C229      1.0  0.23073  0.30267  0.29389  1.0000
  H   H263      1.0  0.28089  0.37077  0.33115  1.0000
  S   S75       1.0  0.22060  0.25577  0.28320  1.0000
  C   C230      1.0  0.02300  0.25336  0.03461  1.0000
  S   S76       1.0  0.30895  0.41853  0.00514  1.0000
  H   H264      1.0  0.22293  0.28931  0.28925  1.0000
  C   C231      1.0  0.27492  0.35767  0.32554  1.0000
  C   C232      1.0  0.25923  0.33520  0.29021  1.0000
  H   H265      1.0  0.29255  0.41794  0.06527  1.0000
  H   H266      1.0  0.12311  0.47841  0.34012  1.0000
  C   C233      1.0  0.11854  0.47570  0.36304  1.0000
  S   S77       1.0  0.13341  0.40344  0.47183  1.0000
  C   C234      1.0  0.02311  0.48578  0.23437  1.0000
  H   H267      1.0  0.01466  0.47365  0.28882  1.0000
  N   N16       1.0  0.21079  0.37412  0.42435  1.0000
  C   C235      1.0  0.26724  0.25501  0.27769  1.0000
  N   N17       1.0  0.00787  0.47140  0.24168  1.0000
  H   H268      1.0  0.28484  0.46312  0.11986  1.0000
  H   H269      1.0  0.09468  0.39845  0.27268  1.0000
  H   H270      1.0  0.04274  0.35257  0.01363  1.0000
  H   H271      1.0  0.27931  0.35087  0.36972  1.0000
  H   H272      1.0  0.07275  0.38161  0.07408  1.0000
  C   C236      1.0  0.06849  0.37128  0.01614  1.0000
  H   H273      1.0  0.01993  0.25063  0.01079  1.0000
  Fe  Fe36      1.0  0.02991  0.25058  0.41032  1.0000
  H   H274      1.0  0.26738  0.26673  0.28506  1.0000
  C   C237      1.0  0.04785  0.38085  0.03600  1.0000
  C   C238      1.0  0.05897  0.34262  0.99712  1.0000
  C   C239      1.0  0.07571  0.39142  0.05751  1.0000
  C   C240      1.0  0.10039  0.28481  0.37688  1.0000
  H   H275      1.0  0.27186  0.42807  0.04629  1.0000
  C   C241      1.0  0.04083  0.27082  0.07497  1.0000
  H   H276      1.0  0.26468  0.32161  0.35933  1.0000
  H   H277      1.0  0.14187  0.47309  0.48789  1.0000
  C   C242      1.0  0.31171  0.25079  0.07108  1.0000
  C   C243      1.0  0.12662  0.30163  0.40635  1.0000
  C   C244      1.0  0.10010  0.30157  0.41905  1.0000
  H   H278      1.0  0.10682  0.28333  0.35693  1.0000
  H   H279      1.0  0.21240  0.38987  0.38743  1.0000
  H   H280      1.0  0.09525  0.38524  0.01304  1.0000
  H   H281      1.0  0.26897  0.30253  0.28777  1.0000
  C   C245      1.0  0.11215  0.24205  0.39650  1.0000
  H   H282      1.0  0.26799  0.45053  0.07393  1.0000
  C   C246      1.0  0.25589  0.30018  0.28081  1.0000
  N   N18       1.0  0.30944  0.45594  0.14750  1.0000
  H   H283      1.0  0.05168  0.28172  0.08254  1.0000
  H   H284      1.0  0.25374  0.33148  0.26779  1.0000
  H   H285      1.0  0.06771  0.40934  0.01651  1.0000
  C   C247      1.0  0.03701  0.26725  0.04442  1.0000
  H   H286      1.0  0.25603  0.30656  0.25967  1.0000
  H   H287      1.0  0.24910  0.28674  0.27513  1.0000
  C   C248      1.0  0.24682  0.24999  0.44156  1.0000
  H   H288      1.0  0.13779  0.24511  0.40248  1.0000
  H   H289      1.0  0.09764  0.27395  0.39105  1.0000
  H   H290      1.0  0.09124  0.45907  0.45662  1.0000
  H   H291      1.0  0.18299  0.42233  0.46711  1.0000
  C   C249      1.0  0.30059  0.43468  0.10396  1.0000
  H   H292      1.0  0.26832  0.36092  0.28018  1.0000
  H   H293      1.0  0.99065  0.24683  0.40012  1.0000
  C   C250      1.0  0.11278  0.31417  0.37399  1.0000
  C   C251      1.0  0.12623  0.47309  0.41606  1.0000
  H   H294      1.0  0.30360  0.26177  0.22006  1.0000
  H   H295      1.0  0.21623  0.36171  0.46161  1.0000
  C   C252      1.0  0.22273  0.37165  0.44617  1.0000
  C   C253      1.0  0.31665  0.24789  0.09972  1.0000
  H   H296      1.0  0.23343  0.25924  0.22465  1.0000
  H   H297      1.0  0.21367  0.34372  0.41887  1.0000
  C   C254      1.0  0.03069  0.26047  0.09581  1.0000
  C   C255      1.0  0.11612  0.46641  0.47544  1.0000
  C   C256      1.0  0.25400  0.26713  0.44221  1.0000
  S   S78       1.0  0.01475  0.25048  0.45106  1.0000
  C   C257      1.0  0.01642  0.24610  0.08660  1.0000
  H   H298      1.0  0.00299  0.42387  0.29259  1.0000
  C   C258      1.0  0.12031  0.25368  0.33959  1.0000
  C   C259      1.0  0.22995  0.24654  0.23022  1.0000
  C   C260      1.0  0.17877  0.32996  0.37350  1.0000
  H   H299      1.0  0.15094  0.47878  0.43705  1.0000
  H   H300      1.0  0.08349  0.40369  0.00345  1.0000
  H   H301      1.0  0.24881  0.27376  0.42778  1.0000
  C   C261      1.0  0.01198  0.46470  0.26953  1.0000
  C   C262      1.0  0.29078  0.42764  0.07780  1.0000
  H   H302      1.0  0.03391  0.48238  0.23241  1.0000
  C   C263      1.0  0.27913  0.43338  0.06698  1.0000
  C   C264      1.0  0.07007  0.39870  0.00783  1.0000
  C   C265      1.0  0.01280  0.24295  0.05526  1.0000
  C   C266      1.0  0.08804  0.36061  0.99676  1.0000
  H   H303      1.0  0.27691  0.25580  0.19166  1.0000
  H   H304      1.0  0.16492  0.34395  0.35949  1.0000
  H   H305      1.0  0.30966  0.42987  0.11047  1.0000
  H   H306      1.0  0.16069  0.32792  0.44934  1.0000
  H   H307      1.0  0.30991  0.43037  0.27036  1.0000
  Fe  Fe37      1.0  0.12386  0.42344  0.47726  1.0000
  H   H308      1.0  0.11334  0.48476  0.36932  1.0000
  H   H309      1.0  0.04896  0.33064  0.99186  1.0000
  C   C267      1.0  0.27406  0.26725  0.48110  1.0000
  C   C268      1.0  0.26679  0.24978  0.48154  1.0000
  C   C269      1.0  0.13286  0.47191  0.46965  1.0000
  H   H310      1.0  0.09467  0.25074  0.33369  1.0000
  H   H311      1.0  0.23439  0.28696  0.00994  1.0000
  H   H312      1.0  0.10059  0.36267  0.99119  1.0000
  H   H313      1.0  0.31561  0.43582  0.16128  1.0000
  C   C270      1.0  0.99354  0.49125  0.24078  1.0000
  H   H314      1.0  0.31760  0.45422  0.01210  1.0000
  H   H315      1.0  0.21173  0.42694  0.48512  1.0000
  H   H316      1.0  0.30738  0.24540  0.23736  1.0000
  C   C271      1.0  0.09978  0.24362  0.37733  1.0000
  C   C272      1.0  0.12849  0.24630  0.38735  1.0000
  C   C273      1.0  0.31758  0.43954  0.28710  1.0000
  H   H317      1.0  0.29864  0.24575  0.06397  1.0000
  H   H318      1.0  0.08468  0.48985  0.06947  1.0000
  H   H319      1.0  0.22087  0.26826  0.99011  1.0000
  H   H320      1.0  0.23605  0.24330  0.42650  1.0000
  C   C274      1.0  0.30136  0.24859  0.21755  1.0000
  H   H321      1.0  0.30802  0.24758  0.19745  1.0000
  H   H322      1.0  0.98749  0.24198  0.36092  1.0000
  C   C275      1.0  0.27585  0.24300  0.18853  1.0000
  H   H323      1.0  0.28183  0.24251  0.16738  1.0000
  C   C276      1.0  0.22711  0.28187  0.98840  1.0000
  Fe  Fe38      1.0  0.04366  0.45095  0.69224  1.0000
  S   S79       1.0  0.06056  0.46556  0.73101  1.0000
  S   S80       1.0  0.01539  0.44115  0.68998  1.0000
  Fe  Fe39      1.0  0.07258  0.45935  0.64985  1.0000
  S   S81       1.0  0.09136  0.47530  0.68582  1.0000
  S   S82       1.0  0.07494  0.45188  0.60119  1.0000
  Fe  Fe40      1.0  0.07818  0.45462  0.71649  1.0000
  S   S83       1.0  0.09430  0.44426  0.74336  1.0000
  H   H324      1.0  0.18458  0.37517  0.90640  1.0000
  S   S84       1.0  0.06023  0.43835  0.67997  1.0000
  S   S85       1.0  0.05455  0.47089  0.65954  1.0000
  Fe  Fe41      1.0  0.03672  0.27196  0.88228  1.0000
  S   S86       1.0  0.04766  0.25925  0.91374  1.0000
  S   S87       1.0  0.03681  0.29698  0.89439  1.0000
  H   H325      1.0  0.27101  0.48159  0.86160  1.0000
  S   S88       1.0  0.04925  0.26742  0.84288  1.0000
  Fe  Fe42      1.0  0.11222  0.38420  0.93125  1.0000
  S   S89       1.0  0.12292  0.40003  0.89272  1.0000
  S   S90       1.0  0.10653  0.35702  0.92439  1.0000
  S   S91       1.0  0.26813  0.39601  0.95779  1.0000
  S   S92       1.0  0.13120  0.43220  0.93812  1.0000
  S   S93       1.0  0.12739  0.43807  0.52187  1.0000
  Fe  Fe43      1.0  0.10954  0.41528  0.90790  1.0000
  S   S94       1.0  0.09193  0.42284  0.87908  1.0000
  Fe  Fe44      1.0  0.14388  0.41541  0.92559  1.0000
  S   S95       1.0  0.16927  0.42174  0.90584  1.0000
  S   S96       1.0  0.09705  0.39810  0.94446  1.0000
  H   H326      1.0  0.13151  0.40940  0.59266  1.0000
  H   H327      1.0  0.27031  0.46153  0.93485  1.0000
  S   S97       1.0  0.21740  0.26656  0.85559  1.0000
  H   H328      1.0  0.12743  0.43441  0.68136  1.0000
  S   S98       1.0  0.18128  0.26416  0.82900  1.0000
  Fe  Fe45      1.0  0.19888  0.25226  0.81828  1.0000
  H   H329      1.0  0.18221  0.41903  0.96619  1.0000
  Fe  Fe46      1.0  0.19885  0.27656  0.86855  1.0000
  S   S99       1.0  0.20284  0.30270  0.88201  1.0000
  S   S100      1.0  0.18590  0.25647  0.90002  1.0000
  Fe  Fe47      1.0  0.28922  0.42652  0.89621  1.0000
  S   S101      1.0  0.30049  0.41027  0.91680  1.0000
  H   H330      1.0  0.07312  0.24612  0.93639  1.0000
  Fe  Fe48      1.0  0.25888  0.41338  0.93511  1.0000
  H   H331      1.0  0.21907  0.32509  0.81702  1.0000
  S   S102      1.0  0.23578  0.41515  0.95405  1.0000
  H   H332      1.0  0.00041  0.46347  0.70022  1.0000
  C   C277      1.0  0.27233  0.24697  0.53406  1.0000
  Fe  Fe49      1.0  0.27443  0.39048  0.91210  1.0000
  S   S103      1.0  0.27176  0.36522  0.89499  1.0000
  S   S104      1.0  0.28395  0.43485  0.94138  1.0000
  S   S105      1.0  0.26340  0.40625  0.88877  1.0000
  H   H333      1.0  0.99082  0.39537  0.68027  1.0000
  Fe  Fe50      1.0  0.20318  0.24535  0.88427  1.0000
  C   C278      1.0  0.29120  0.43124  0.74695  1.0000
  H   H334      1.0  0.07479  0.41340  0.66295  1.0000
  H   H335      1.0  0.99699  0.25434  0.50083  1.0000
  C   C279      1.0  0.14625  0.31428  0.88329  1.0000
  C   C280      1.0  0.15532  0.34664  0.90803  1.0000
  C   C281      1.0  0.22222  0.31975  0.88639  1.0000
  C   C282      1.0  0.23715  0.31833  0.88143  1.0000
  C   C283      1.0  0.25227  0.33237  0.88432  1.0000
  C   C284      1.0  0.25258  0.34785  0.89242  1.0000
  C   C285      1.0  0.23766  0.34921  0.89775  1.0000
  C   C286      1.0  0.22254  0.33521  0.89465  1.0000
  H   H336      1.0  0.23705  0.30649  0.87526  1.0000
  H   H337      1.0  0.26380  0.33127  0.88025  1.0000
  H   H338      1.0  0.23779  0.36108  0.90403  1.0000
  H   H339      1.0  0.21102  0.33636  0.89857  1.0000
  C   C287      1.0  0.31079  0.24555  0.57475  1.0000
  H   H340      1.0  0.28117  0.25993  0.53908  1.0000
  C   C288      1.0  0.16751  0.34044  0.90192  1.0000
  H   H341      1.0  0.15877  0.37369  0.87846  1.0000
  C   C289      1.0  0.13844  0.33591  0.90106  1.0000
  H   H342      1.0  0.25699  0.27967  0.94569  1.0000
  H   H343      1.0  0.13779  0.35640  0.94728  1.0000
  H   H344      1.0  0.10850  0.40225  0.55421  1.0000
  H   H345      1.0  0.28006  0.46695  0.85710  1.0000
  H   H346      1.0  0.12708  0.25060  0.94365  1.0000
  C   C290      1.0  0.18708  0.41873  0.91962  1.0000
  C   C291      1.0  0.19836  0.41766  0.89921  1.0000
  C   C292      1.0  0.21305  0.41602  0.90916  1.0000
  C   C293      1.0  0.21683  0.41580  0.93977  1.0000
  C   C294      1.0  0.20546  0.41668  0.96014  1.0000
  C   C295      1.0  0.19065  0.41806  0.95018  1.0000
  H   H347      1.0  0.19579  0.41828  0.87553  1.0000
  H   H348      1.0  0.22157  0.41527  0.89318  1.0000
  H   H349      1.0  0.27623  0.48111  0.91791  1.0000
  H   H350      1.0  0.20826  0.41656  0.98389  1.0000
  H   H351      1.0  0.10098  0.44610  0.68279  1.0000
  H   H352      1.0  0.24310  0.45124  0.93935  1.0000
  H   H353      1.0  0.12850  0.33976  0.90506  1.0000
  H   H354      1.0  0.14395  0.26297  0.87915  1.0000
  H   H355      1.0  0.24156  0.47291  0.85350  1.0000
  C   C296      1.0  0.08692  0.34065  0.91605  1.0000
  C   C297      1.0  0.08638  0.32522  0.90712  1.0000
  C   C298      1.0  0.07111  0.31179  0.90041  1.0000
  C   C299      1.0  0.05619  0.31365  0.90269  1.0000
  C   C300      1.0  0.05668  0.32908  0.91180  1.0000
  C   C301      1.0  0.07199  0.34254  0.91851  1.0000
  H   H356      1.0  0.09781  0.32355  0.90538  1.0000
  H   H357      1.0  0.07088  0.29995  0.89350  1.0000
  H   H358      1.0  0.04516  0.33054  0.91392  1.0000
  H   H359      1.0  0.07222  0.35420  0.92638  1.0000
  C   C302      1.0  0.09369  0.43892  0.78149  1.0000
  C   C303      1.0  0.10599  0.43412  0.79366  1.0000
  C   C304      1.0  0.10591  0.42954  0.82367  1.0000
  C   C305      1.0  0.09341  0.42960  0.84179  1.0000
  C   C306      1.0  0.08106  0.43431  0.82956  1.0000
  C   C307      1.0  0.08120  0.43900  0.79962  1.0000
  H   H360      1.0  0.11573  0.43405  0.77987  1.0000
  H   H361      1.0  0.11550  0.42596  0.83273  1.0000
  H   H362      1.0  0.07129  0.43434  0.84334  1.0000
  H   H363      1.0  0.07165  0.44263  0.79059  1.0000
  C   C308      1.0  0.11259  0.44191  0.54332  1.0000
  C   C309      1.0  0.11803  0.45126  0.57045  1.0000
  C   C310      1.0  0.10681  0.45460  0.58823  1.0000
  C   C311      1.0  0.08987  0.44846  0.57935  1.0000
  C   C312      1.0  0.08449  0.43938  0.55192  1.0000
  C   C313      1.0  0.09572  0.43609  0.53405  1.0000
  H   H364      1.0  0.13106  0.45605  0.57767  1.0000
  H   H365      1.0  0.11132  0.46222  0.60846  1.0000
  H   H366      1.0  0.07148  0.43473  0.54454  1.0000
  H   H367      1.0  0.09131  0.42899  0.51318  1.0000
  C   C314      1.0  0.00147  0.42844  0.71540  1.0000
  C   C315      1.0  0.00649  0.42017  0.73734  1.0000
  C   C316      1.0  0.10219  0.44058  0.66106  1.0000
  H   H368      1.0  0.01936  0.42181  0.73963  1.0000
  S   S106      1.0  0.13371  0.39878  0.96348  1.0000
  H   H369      1.0  0.25979  0.46216  0.84084  1.0000
  H   H370      1.0  0.26491  0.36731  0.82393  1.0000
  C   C317      1.0  0.24622  0.33197  0.96162  1.0000
  S   S107      1.0  0.01280  0.24946  0.87229  1.0000
  C   C318      1.0  0.23188  0.33049  0.81115  1.0000
  H   H371      1.0  0.15543  0.35464  0.96593  1.0000
  C   C319      1.0  0.13402  0.31998  0.88892  1.0000
  H   H372      1.0  0.11409  0.44902  0.65209  1.0000
  S   S108      1.0  0.08709  0.26030  0.88097  1.0000
  H   H373      1.0  0.03856  0.48487  0.70447  1.0000
  H   H374      1.0  0.31300  0.26358  0.70281  1.0000
  H   H375      1.0  0.07773  0.33529  0.98099  1.0000
  H   H376      1.0  0.99861  0.40272  0.77233  1.0000
  C   C320      1.0  0.23804  0.31483  0.96178  1.0000
  H   H377      1.0  0.14279  0.30193  0.87386  1.0000
  C   C321      1.0  0.00604  0.47626  0.69230  1.0000
  H   H378      1.0  0.01333  0.47572  0.67296  1.0000
  C   C322      1.0  0.99472  0.40938  0.75585  1.0000
  N   N19       1.0  0.31054  0.44450  0.67238  1.0000
  N   N20       1.0  0.23801  0.28653  0.96280  1.0000
  C   C323      1.0  0.23686  0.46853  0.87492  1.0000
  C   C324      1.0  0.11880  0.26163  0.87867  1.0000
  S   S109      1.0  0.20495  0.25146  0.76888  1.0000
  H   H379      1.0  0.12102  0.31195  0.88390  1.0000
  N   N21       1.0  0.23054  0.30375  0.78685  1.0000
  C   C325      1.0  0.23929  0.29412  0.80038  1.0000
  C   C326      1.0  0.21313  0.29644  0.79608  1.0000
  C   C327      1.0  0.22999  0.30168  0.75385  1.0000
  C   C328      1.0  0.23952  0.32138  0.79605  1.0000
  C   C329      1.0  0.25658  0.32992  0.79035  1.0000
  H   H380      1.0  0.24095  0.29623  0.82510  1.0000
  H   H381      1.0  0.23228  0.28064  0.79555  1.0000
  H   H382      1.0  0.25177  0.29729  0.79171  1.0000
  H   H383      1.0  0.20675  0.28321  0.78885  1.0000
  H   H384      1.0  0.20551  0.30258  0.78579  1.0000
  H   H385      1.0  0.22305  0.28849  0.74627  1.0000
  H   H386      1.0  0.22368  0.30889  0.74279  1.0000
  H   H387      1.0  0.24259  0.30572  0.74518  1.0000
  H   H388      1.0  0.26318  0.32386  0.77879  1.0000
  N   N22       1.0  0.10176  0.42388  0.66434  1.0000
  S   S110      1.0  0.30791  0.41531  0.50409  1.0000
  C   C330      1.0  0.08562  0.41314  0.67626  1.0000
  C   C331      1.0  0.11508  0.42512  0.68710  1.0000
  C   C332      1.0  0.10364  0.41739  0.63467  1.0000
  C   C333      1.0  0.09080  0.41340  0.61173  1.0000
  C   C334      1.0  0.11842  0.41572  0.62707  1.0000
  C   C335      1.0  0.09240  0.40755  0.58340  1.0000
  C   C336      1.0  0.12000  0.41017  0.59840  1.0000
  C   C337      1.0  0.10702  0.40605  0.57667  1.0000
  C   C338      1.0  0.30282  0.43767  0.72530  1.0000
  H   H389      1.0  0.25293  0.43623  0.90673  1.0000
  H   H390      1.0  0.21683  0.45267  0.94975  1.0000
  H   H391      1.0  0.08424  0.40015  0.67679  1.0000
  H   H392      1.0  0.09192  0.44051  0.64562  1.0000
  H   H393      1.0  0.08437  0.41718  0.69940  1.0000
  C   C339      1.0  0.29098  0.24485  0.49794  1.0000
  C   C340      1.0  0.23776  0.45675  0.92293  1.0000
  H   H394      1.0  0.21509  0.47342  0.86493  1.0000
  H   H395      1.0  0.12261  0.27398  0.88808  1.0000
  H   H396      1.0  0.12906  0.41892  0.64260  1.0000
  C   C341      1.0  0.27427  0.42445  0.73878  1.0000
  C   C342      1.0  0.28046  0.43051  0.68704  1.0000
  H   H397      1.0  0.23506  0.35352  0.83281  1.0000
  N   N23       1.0  0.26086  0.46045  0.88889  1.0000
  C   C343      1.0  0.27379  0.46795  0.91357  1.0000
  H   H398      1.0  0.26975  0.35278  0.96071  1.0000
  C   C344      1.0  0.31117  0.25054  0.70501  1.0000
  C   C345      1.0  0.24538  0.46230  0.89565  1.0000
  C   C346      1.0  0.13095  0.25541  0.87364  1.0000
  H   H399      1.0  0.13970  0.36737  0.89732  1.0000
  H   H400      1.0  0.20236  0.46314  0.91259  1.0000
  C   C347      1.0  0.22159  0.46894  0.88120  1.0000
  H   H401      1.0  0.25960  0.24621  0.53767  1.0000
  Fe  Fe51      1.0  0.07223  0.48519  0.69768  1.0000
  H   H402      1.0  0.28580  0.46730  0.90835  1.0000
  H   H403      1.0  0.22460  0.30960  0.96051  1.0000
  C   C348      1.0  0.26349  0.33950  0.96182  1.0000
  H   H404      1.0  0.29550  0.45095  0.63996  1.0000
  H   H405      1.0  0.23530  0.28402  0.91486  1.0000
  H   H406      1.0  0.99011  0.38524  0.62819  1.0000
  N   N24       1.0  0.30917  0.24186  0.67555  1.0000
  C   C349      1.0  0.26815  0.46819  0.86087  1.0000
  C   C350      1.0  0.26557  0.34633  0.80015  1.0000
  H   H407      1.0  0.11283  0.42932  0.70947  1.0000
  H   H408      1.0  0.18321  0.36684  0.94338  1.0000
  Fe  Fe52      1.0  0.16922  0.24355  0.85953  1.0000
  H   H409      1.0  0.23912  0.33949  0.96038  1.0000
  H   H410      1.0  0.15694  0.38570  0.90967  1.0000
  C   C351      1.0  0.15348  0.37287  0.90077  1.0000
  H   H411      1.0  0.21801  0.28573  0.93184  1.0000
  C   C352      1.0  0.29785  0.43757  0.69470  1.0000
  C   C353      1.0  0.25779  0.35478  0.81536  1.0000
  C   C354      1.0  0.24095  0.34696  0.82041  1.0000
  C   C355      1.0  0.10176  0.25193  0.87214  1.0000
  C   C356      1.0  0.03116  0.48446  0.72408  1.0000
  H   H412      1.0  0.22077  0.26693  0.93359  1.0000
  H   H413      1.0  0.31141  0.42035  0.83950  1.0000
  Fe  Fe53      1.0  0.29348  0.41706  0.96143  1.0000
  H   H414      1.0  0.28612  0.33589  0.96223  1.0000
  H   H415      1.0  0.31580  0.44270  0.73273  1.0000
  H   H416      1.0  0.09928  0.24892  0.94980  1.0000
  C   C357      1.0  0.17777  0.37298  0.92733  1.0000
  H   H417      1.0  0.31345  0.46929  0.68288  1.0000
  C   C358      1.0  0.21594  0.24178  0.71821  1.0000
  H   H418      1.0  0.08256  0.40488  0.56609  1.0000
  H   H419      1.0  0.31333  0.44940  0.62541  1.0000
  H   H420      1.0  0.00271  0.47232  0.75068  1.0000
  H   H421      1.0  0.11579  0.41301  0.68987  1.0000
  H   H422      1.0  0.27257  0.30611  0.96342  1.0000
  Fe  Fe54      1.0  0.02607  0.24389  0.83431  1.0000
  C   C359      1.0  0.16295  0.32447  0.88979  1.0000
  C   C360      1.0  0.15160  0.36214  0.95012  1.0000
  H   H423      1.0  0.29604  0.43097  0.63296  1.0000
  H   H424      1.0  0.27872  0.35247  0.79650  1.0000
  C   C361      1.0  0.22259  0.45737  0.92906  1.0000
  H   H425      1.0  0.98708  0.24917  0.78787  1.0000
  H   H426      1.0  0.17242  0.31991  0.88546  1.0000
  H   H427      1.0  0.15488  0.37450  0.96109  1.0000
  C   C362      1.0  0.26466  0.31274  0.96304  1.0000
  N   N25       1.0  0.07456  0.36983  0.84255  1.0000
  C   C363      1.0  0.09056  0.38069  0.83037  1.0000
  C   C364      1.0  0.07459  0.37491  0.87425  1.0000
  C   C365      1.0  0.07379  0.35280  0.84193  1.0000
  C   C366      1.0  0.06056  0.37144  0.82534  1.0000
  C   C367      1.0  0.06006  0.38711  0.82268  1.0000
  C   C368      1.0  0.04712  0.35778  0.81105  1.0000
  C   C369      1.0  0.04714  0.38911  0.80639  1.0000
  C   C370      1.0  0.03419  0.35989  0.79488  1.0000
  C   C371      1.0  0.03422  0.37552  0.79250  1.0000
  H   H428      1.0  0.10128  0.37880  0.84110  1.0000
  H   H429      1.0  0.09045  0.37838  0.80585  1.0000
  H   H430      1.0  0.09338  0.39398  0.83429  1.0000
  H   H431      1.0  0.08497  0.37387  0.88794  1.0000
  H   H432      1.0  0.06269  0.36720  0.88418  1.0000
  H   H433      1.0  0.07620  0.38793  0.87696  1.0000
  H   H434      1.0  0.07400  0.34824  0.81872  1.0000
  H   H435      1.0  0.08456  0.35207  0.85493  1.0000
  H   H436      1.0  0.06248  0.34405  0.85233  1.0000
  H   H437      1.0  0.06966  0.39800  0.83336  1.0000
  H   H438      1.0  0.04627  0.34534  0.81209  1.0000
  H   H439      1.0  0.04719  0.40130  0.80465  1.0000
  H   H440      1.0  0.02405  0.34933  0.78417  1.0000
  H   H441      1.0  0.02418  0.37713  0.77998  1.0000
  H   H442      1.0  0.31212  0.44901  0.52165  1.0000
  S   S111      1.0  0.30040  0.44567  0.86055  1.0000
  Fe  Fe55      1.0  0.05894  0.25312  0.87357  1.0000
  N   N26       1.0  0.15960  0.36336  0.92129  1.0000
  H   H443      1.0  0.29583  0.25548  0.65599  1.0000
  H   H444      1.0  0.26835  0.44066  0.87974  1.0000
  H   H445      1.0  0.99569  0.47948  0.68388  1.0000
  H   H446      1.0  0.29995  0.24466  0.71821  1.0000
  C   C372      1.0  0.26890  0.42408  0.70891  1.0000
  H   H447      1.0  0.21261  0.29711  0.82086  1.0000
  H   H448      1.0  0.07965  0.41538  0.61507  1.0000
  C   C373      1.0  0.24701  0.30467  0.96274  1.0000
  Fe  Fe56      1.0  0.11933  0.41426  0.97401  1.0000
  H   H449      1.0  0.18050  0.38533  0.93760  1.0000
  H   H450      1.0  0.29921  0.25813  0.50170  1.0000
  C   C374      1.0  0.25717  0.44269  0.88570  1.0000
  C   C375      1.0  0.21443  0.46327  0.90812  1.0000
  H   H451      1.0  0.18067  0.34761  0.90635  1.0000
  C   C376      1.0  0.29478  0.24269  0.65831  1.0000
  H   H452      1.0  0.26532  0.41945  0.75568  1.0000
  H   H453      1.0  0.99485  0.48698  0.73876  1.0000
  C   C377      1.0  0.31399  0.44511  0.83242  1.0000
  C   C378      1.0  0.27268  0.32991  0.96249  1.0000
  H   H454      1.0  0.25569  0.41874  0.70265  1.0000
  H   H455      1.0  0.02750  0.47187  0.73276  1.0000
  C   C379      1.0  0.30340  0.44386  0.64143  1.0000
  H   H456      1.0  0.24720  0.43645  0.86795  1.0000
  C   C380      1.0  0.31706  0.43112  0.82639  1.0000
  H   H457      1.0  0.28456  0.27447  0.49611  1.0000
  H   H458      1.0  0.27545  0.42977  0.66436  1.0000
  C   C381      1.0  0.22756  0.28058  0.93462  1.0000
  H   H459      1.0  0.29543  0.43151  0.77020  1.0000
  H   H460      1.0  0.22024  0.24560  0.51380  1.0000
  C   C382      1.0  0.00653  0.48519  0.74328  1.0000
  H   H461      1.0  0.31371  0.42186  0.66698  1.0000
  H   H462      1.0  0.29955  0.24631  0.58175  1.0000
  N   N27       1.0  0.01647  0.48811  0.71638  1.0000
  H   H463      1.0  0.24198  0.26411  0.96582  1.0000
  C   C383      1.0  0.24916  0.27768  0.96527  1.0000
  H   H464      1.0  0.20756  0.24603  0.70625  1.0000
  C   C384      1.0  0.21711  0.24281  0.74973  1.0000
  H   H465      1.0  0.06304  0.39443  0.98585  1.0000
  H   H466      1.0  0.11228  0.46372  0.49807  1.0000
  H   H467      1.0  0.21697  0.28627  0.98647  1.0000
  H   H468      1.0  0.25727  0.28140  0.98625  1.0000
  H   H469      1.0  0.14225  0.50242  0.39327  1.0000
  Fe  Fe57      1.0  0.12569  0.70065  0.40978  1.0000
  S   S112      1.0  0.10526  0.69328  0.44205  1.0000
  S   S113      1.0  0.12923  0.68683  0.36861  1.0000
  H   H470      1.0  0.10763  0.53379  0.10148  1.0000
  C   C385      1.0  0.08617  0.50283  0.07354  1.0000
  H   H471      1.0  0.09361  0.52469  0.18973  1.0000
  S   S114      1.0  0.12121  0.68492  0.01577  1.0000
  Fe  Fe58      1.0  0.10733  0.71935  0.43830  1.0000
  C   C386      1.0  0.00261  0.58088  0.33159  1.0000
  S   S115      1.0  0.14613  0.70999  0.44650  1.0000
  S   S116      1.0  0.12623  0.72585  0.40378  1.0000
  Fe  Fe59      1.0  0.08009  0.59770  0.18902  1.0000
  S   S117      1.0  0.06283  0.59952  0.15189  1.0000
  S   S118      1.0  0.09301  0.57991  0.18623  1.0000
  Fe  Fe60      1.0  0.07468  0.62333  0.22981  1.0000
  S   S119      1.0  0.05686  0.62624  0.19518  1.0000
  S   S120      1.0  0.07455  0.63593  0.27501  1.0000
  Fe  Fe61      1.0  0.04606  0.59880  0.18903  1.0000
  S   S121      1.0  0.01883  0.58076  0.18657  1.0000
  Fe  Fe62      1.0  0.07534  0.62713  0.16092  1.0000
  S   S122      1.0  0.07969  0.64819  0.12796  1.0000
  S   S123      1.0  0.06274  0.59561  0.22527  1.0000
  S   S124      1.0  0.09382  0.62553  0.19628  1.0000
  C   C387      1.0  0.10270  0.70733  0.23220  1.0000
  C   C388      1.0  0.00379  0.58054  0.21170  1.0000
  C   C389      1.0  0.00567  0.59445  0.22919  1.0000
  C   C390      1.0  0.09645  0.53561  0.10519  1.0000
  H   H472      1.0  0.98768  0.55530  0.19983  1.0000
  H   H473      1.0  0.01666  0.60573  0.22762  1.0000
  H   H474      1.0  0.11041  0.69479  0.17938  1.0000
  C   C391      1.0  0.10923  0.67469  0.04659  1.0000
  C   C392      1.0  0.11283  0.66238  0.06085  1.0000
  C   C393      1.0  0.10391  0.65405  0.08540  1.0000
  C   C394      1.0  0.09124  0.65795  0.09640  1.0000
  C   C395      1.0  0.08773  0.67035  0.08230  1.0000
  C   C396      1.0  0.09655  0.67859  0.05759  1.0000
  H   H475      1.0  0.12255  0.65917  0.05271  1.0000
  H   H476      1.0  0.10688  0.64461  0.09580  1.0000
  H   H477      1.0  0.07797  0.67353  0.09037  1.0000
  H   H478      1.0  0.09354  0.68798  0.04710  1.0000
  C   C397      1.0  0.11381  0.67283  0.34266  1.0000
  C   C398      1.0  0.11884  0.66741  0.31663  1.0000
  C   C399      1.0  0.10708  0.65615  0.29565  1.0000
  C   C400      1.0  0.09011  0.65004  0.30060  1.0000
  C   C401      1.0  0.08508  0.65549  0.32658  1.0000
  C   C402      1.0  0.09682  0.66684  0.34743  1.0000
  H   H479      1.0  0.13194  0.67188  0.31273  1.0000
  H   H480      1.0  0.11117  0.65208  0.27584  1.0000
  H   H481      1.0  0.07199  0.65093  0.33063  1.0000
  H   H482      1.0  0.09273  0.67085  0.36732  1.0000
  C   C403      1.0  0.06862  0.52309  0.19168  1.0000
  C   C404      1.0  0.05886  0.53232  0.19242  1.0000
  C   C405      1.0  0.06613  0.54966  0.19132  1.0000
  C   C406      1.0  0.08333  0.55808  0.18932  1.0000
  C   C407      1.0  0.09311  0.54886  0.18877  1.0000
  C   C408      1.0  0.08585  0.53150  0.19002  1.0000
  H   H483      1.0  0.04554  0.52603  0.19366  1.0000
  H   H484      1.0  0.05840  0.55652  0.19163  1.0000
  H   H485      1.0  0.10641  0.55520  0.18720  1.0000
  C   C409      1.0  0.10606  0.71689  0.25885  1.0000
  C   C410      1.0  0.09803  0.55181  0.10951  1.0000
  C   C411      1.0  0.06868  0.54197  0.11667  1.0000
  H   H486      1.0  0.08552  0.56753  0.11951  1.0000
  N   N28       1.0  0.07959  0.50497  0.10252  1.0000
  C   C412      1.0  0.99243  0.55396  0.29104  1.0000
  H   H487      1.0  0.09088  0.65828  0.22598  1.0000
  H   H488      1.0  0.00442  0.50135  0.23372  1.0000
  H   H489      1.0  0.10288  0.51009  0.12760  1.0000
  H   H490      1.0  0.09511  0.65929  0.18739  1.0000
  H   H491      1.0  0.15112  0.71990  0.36367  1.0000
  H   H492      1.0  0.05999  0.73560  0.40714  1.0000
  C   C413      1.0  0.16641  0.72608  0.02120  1.0000
  H   H493      1.0  0.04189  0.62048  0.30525  1.0000
  H   H494      1.0  0.99453  0.60470  0.26137  1.0000
  H   H495      1.0  0.15757  0.72573  0.00247  1.0000
  C   C414      1.0  0.08417  0.55498  0.11517  1.0000
  H   H496      1.0  0.15723  0.49346  0.39656  1.0000
  H   H497      1.0  0.19711  0.71249  0.03119  1.0000
  N   N29       1.0  0.17693  0.72340  0.36561  1.0000
  H   H498      1.0  0.10293  0.71695  0.30630  1.0000
  H   H499      1.0  0.05807  0.54454  0.12217  1.0000
  C   C415      1.0  0.16486  0.69904  0.00976  1.0000
  H   H500      1.0  0.01561  0.56548  0.27188  1.0000
  H   H501      1.0  0.17712  0.71976  0.41327  1.0000
  H   H502      1.0  0.03594  0.71698  0.99327  1.0000
  H   H503      1.0  0.10761  0.71381  0.21232  1.0000
  C   C416      1.0  0.99312  0.59385  0.24820  1.0000
  H   H504      1.0  0.08021  0.66993  0.26081  1.0000
  C   C417      1.0  0.98677  0.56818  0.33251  1.0000
  H   H505      1.0  0.19684  0.73174  0.04338  1.0000
  H   H506      1.0  0.16061  0.70230  0.33815  1.0000
  H   H507      1.0  0.15893  0.72093  0.04084  1.0000
  H   H508      1.0  0.00593  0.59101  0.34776  1.0000
  H   H509      1.0  0.16358  0.70219  0.39123  1.0000
  C   C418      1.0  0.09094  0.69265  0.28587  1.0000
  C   C419      1.0  0.00822  0.56669  0.28961  1.0000
  H   H510      1.0  0.06825  0.66299  0.17700  1.0000
  C   C420      1.0  0.10025  0.70956  0.28563  1.0000
  N   N30       1.0  0.17633  0.71675  0.01271  1.0000
  C   C421      1.0  0.09661  0.68852  0.17709  1.0000
  H   H511      1.0  0.06538  0.66210  0.21609  1.0000
  H   H512      1.0  0.08481  0.50286  0.14915  1.0000
  S   S125      1.0  0.12722  0.73042  0.99306  1.0000
  C   C422      1.0  0.04047  0.59226  0.28503  1.0000
  C   C423      1.0  0.04014  0.59466  0.33827  1.0000
  N   N31       1.0  0.03064  0.59411  0.30979  1.0000
  H   H513      1.0  0.04275  0.58086  0.28658  1.0000
  H   H514      1.0  0.02196  0.61011  0.28594  1.0000
  C   C424      1.0  0.06696  0.52571  0.11260  1.0000
  C   C425      1.0  0.08084  0.52203  0.10650  1.0000
  C   C426      1.0  0.98926  0.56609  0.21339  1.0000
  C   C427      1.0  0.09682  0.66698  0.20823  1.0000
  H   H515      1.0  0.20207  0.73203  0.32414  1.0000
  H   H516      1.0  0.05409  0.49399  0.08494  1.0000
  N   N32       1.0  0.08967  0.67937  0.20419  1.0000
  C   C428      1.0  0.09329  0.69000  0.23174  1.0000
  C   C429      1.0  0.07142  0.67066  0.19823  1.0000
  H   H517      1.0  0.11012  0.56200  0.10923  1.0000
  H   H518      1.0  0.15864  0.69445  0.03090  1.0000
  C   C430      1.0  0.02940  0.61018  0.30666  1.0000
  S   S126      1.0  0.05845  0.50116  0.19246  1.0000
  H   H519      1.0  0.17149  0.69119  0.00378  1.0000
  H   H520      1.0  0.11324  0.73008  0.25878  1.0000
  H   H521      1.0  0.16416  0.73599  0.38885  1.0000
  Fe  Fe63      1.0  0.14548  0.73498  0.44239  1.0000
  C   C431      1.0  0.08745  0.68300  0.25940  1.0000
  H   H522      1.0  0.03427  0.59738  0.35793  1.0000
  H   H523      1.0  0.05305  0.60442  0.33854  1.0000
  H   H524      1.0  0.17315  0.71954  0.31768  1.0000
  C   C432      1.0  0.01383  0.58059  0.31000  1.0000
  H   H525      1.0  0.15451  0.69681  0.99272  1.0000
  H   H526      1.0  0.02354  0.61343  0.32573  1.0000
  H   H527      1.0  0.09360  0.68013  0.15682  1.0000
  H   H528      1.0  0.02690  0.49580  0.25201  1.0000
  H   H529      1.0  0.11039  0.67296  0.21442  1.0000
  C   C433      1.0  0.17319  0.71263  0.33811  1.0000
  H   H530      1.0  0.06544  0.67952  0.19631  1.0000
  H   H531      1.0  0.09968  0.51053  0.07261  1.0000
  C   C434      1.0  0.18884  0.71862  0.03741  1.0000
  H   H532      1.0  0.09132  0.69769  0.17202  1.0000
  H   H533      1.0  0.05470  0.51627  0.11518  1.0000
  C   C435      1.0  0.17583  0.71296  0.39158  1.0000
  H   H534      1.0  0.08647  0.68696  0.30676  1.0000
  S   S127      1.0  0.12622  0.72998  0.47697  1.0000
  H   H535      1.0  0.18218  0.70681  0.33620  1.0000
  H   H536      1.0  0.17423  0.73932  0.02663  1.0000
  H   H537      1.0  0.04106  0.58268  0.34178  1.0000
  H   H538      1.0  0.03417  0.59211  0.26280  1.0000
  H   H539      1.0  0.05296  0.60265  0.28530  1.0000
  C   C436      1.0  0.19349  0.73734  0.36682  1.0000
  H   H540      1.0  0.18281  0.71312  0.05822  1.0000
  C   C437      1.0  0.16384  0.72986  0.36691  1.0000
  S   S128      1.0  0.08429  0.72448  0.43086  1.0000
  H   H541      1.0  0.18570  0.70817  0.39181  1.0000
  C   C438      1.0  0.08952  0.50160  0.12699  1.0000
  H   H542      1.0  0.07957  0.50604  0.05459  1.0000
  H   H543      1.0  0.14938  0.49572  0.36059  1.0000
  Fe  Fe64      1.0  0.12546  0.70417  0.47883  1.0000
  H   H544      1.0  0.05693  0.49237  0.12490  1.0000
  H   H545      1.0  0.98824  0.54367  0.27489  1.0000
  C   C439      1.0  0.14576  0.49264  0.38394  1.0000
  H   H546      1.0  0.16517  0.73899  0.34947  1.0000
  C   C440      1.0  0.20484  0.74007  0.34383  1.0000
  C   C441      1.0  0.06230  0.49225  0.10288  1.0000
  S   S129      1.0  0.07453  0.51034  0.71667  1.0000
  Fe  Fe65      1.0  0.11917  0.70994  0.91327  1.0000
  S   S130      1.0  0.09976  0.70192  0.94770  1.0000
  S   S131      1.0  0.11268  0.70129  0.86375  1.0000
  H   H547      1.0  0.01990  0.54238  0.71973  1.0000
  H   H548      1.0  0.08013  0.58468  0.59071  1.0000
  H   H549      1.0  0.08211  0.52495  0.65775  1.0000
  S   S132      1.0  0.12759  0.69073  0.52168  1.0000
  Fe  Fe66      1.0  0.10792  0.72913  0.95744  1.0000
  C   C442      1.0  0.03157  0.50969  0.68020  1.0000
  S   S133      1.0  0.13981  0.71028  0.94561  1.0000
  C   C443      1.0  0.03503  0.72086  0.97071  1.0000
  Fe  Fe67      1.0  0.07511  0.60075  0.68761  1.0000
  S   S134      1.0  0.05789  0.60930  0.66140  1.0000
  S   S135      1.0  0.08010  0.57945  0.66694  1.0000
  Fe  Fe68      1.0  0.08436  0.62949  0.73378  1.0000
  S   S136      1.0  0.06806  0.64005  0.70998  1.0000
  S   S137      1.0  0.09804  0.63695  0.78004  1.0000
  Fe  Fe69      1.0  0.04919  0.61375  0.70577  1.0000
  S   S138      1.0  0.02185  0.60816  0.71108  1.0000
  Fe  Fe70      1.0  0.07806  0.63495  0.66691  1.0000
  S   S139      1.0  0.08061  0.65091  0.62550  1.0000
  S   S140      1.0  0.06481  0.60331  0.73157  1.0000
  S   S141      1.0  0.09590  0.62623  0.69120  1.0000
  H   H550      1.0  0.00499  0.57518  0.80113  1.0000
  C   C444      1.0  0.00756  0.59493  0.73570  1.0000
  C   C445      1.0  0.01270  0.58890  0.76113  1.0000
  C   C446      1.0  0.18479  0.72334  0.98500  1.0000
  C   C447      1.0  0.10967  0.64487  0.51411  1.0000
  H   H551      1.0  0.02573  0.59160  0.76551  1.0000
  C   C448      1.0  0.03360  0.73160  0.91294  1.0000
  C   C449      1.0  0.11438  0.68020  0.55084  1.0000
  C   C450      1.0  0.12068  0.67305  0.57342  1.0000
  C   C451      1.0  0.11068  0.66417  0.59641  1.0000
  C   C452      1.0  0.09412  0.66229  0.59733  1.0000
  C   C453      1.0  0.08785  0.66951  0.57485  1.0000
  C   C454      1.0  0.09784  0.67838  0.55185  1.0000
  H   H552      1.0  0.13341  0.67433  0.57303  1.0000
  H   H553      1.0  0.11586  0.65889  0.61347  1.0000
  H   H554      1.0  0.07511  0.66823  0.57520  1.0000
  H   H555      1.0  0.09272  0.68374  0.53482  1.0000
  C   C455      1.0  0.10831  0.68301  0.84134  1.0000
  C   C456      1.0  0.10980  0.66907  0.85265  1.0000
  C   C457      1.0  0.10647  0.65506  0.83368  1.0000
  C   C458      1.0  0.10133  0.65466  0.80332  1.0000
  C   C459      1.0  0.09947  0.66845  0.79218  1.0000
  C   C460      1.0  0.10311  0.68256  0.81099  1.0000
  H   H556      1.0  0.11374  0.66917  0.87590  1.0000
  H   H557      1.0  0.10796  0.64450  0.84262  1.0000
  H   H558      1.0  0.09566  0.66845  0.76889  1.0000
  H   H559      1.0  0.10192  0.69325  0.80194  1.0000
  C   C461      1.0  0.07490  0.52889  0.70145  1.0000
  C   C462      1.0  0.07154  0.54001  0.72002  1.0000
  C   C463      1.0  0.07270  0.55534  0.70972  1.0000
  C   C464      1.0  0.07753  0.55990  0.68077  1.0000
  C   C465      1.0  0.08079  0.54874  0.66212  1.0000
  C   C466      1.0  0.07936  0.53329  0.67227  1.0000
  H   H560      1.0  0.06810  0.53678  0.74265  1.0000
  H   H561      1.0  0.06991  0.56361  0.72425  1.0000
  H   H562      1.0  0.08453  0.55208  0.63968  1.0000
  C   C467      1.0  0.00328  0.73738  0.89867  1.0000
  N   N33       1.0  0.04347  0.64058  0.79073  1.0000
  C   C468      1.0  0.02603  0.63019  0.79727  1.0000
  C   C469      1.0  0.04299  0.64995  0.76383  1.0000
  C   C470      1.0  0.05192  0.62973  0.78294  1.0000
  C   C471      1.0  0.05226  0.65119  0.81737  1.0000
  C   C472      1.0  0.05964  0.66868  0.81701  1.0000
  C   C473      1.0  0.05388  0.64401  0.84473  1.0000
  H   H563      1.0  0.03421  0.73623  0.89068  1.0000
  H   H564      1.0  0.99521  0.72408  0.90044  1.0000
  C   C474      1.0  0.06822  0.67824  0.84244  1.0000
  H   H565      1.0  0.01956  0.63787  0.80513  1.0000
  H   H566      1.0  0.01876  0.62285  0.77704  1.0000
  H   H567      1.0  0.02518  0.62114  0.81458  1.0000
  H   H568      1.0  0.05574  0.65762  0.75696  1.0000
  H   H569      1.0  0.03627  0.65800  0.76764  1.0000
  H   H570      1.0  0.03639  0.64158  0.74415  1.0000
  H   H571      1.0  0.05160  0.62113  0.80078  1.0000
  H   H572      1.0  0.04599  0.62195  0.76240  1.0000
  H   H573      1.0  0.06523  0.63712  0.77892  1.0000
  H   H574      1.0  0.05936  0.67533  0.79724  1.0000
  H   H575      1.0  0.04868  0.63081  0.84666  1.0000
  C   C475      1.0  0.01785  0.51734  0.71973  1.0000
  Fe  Fe71      1.0  0.14521  0.73707  0.95620  1.0000
  H   H576      1.0  0.98643  0.59586  0.71089  1.0000
  N   N34       1.0  0.11489  0.59626  0.76276  1.0000
  C   C476      1.0  0.11405  0.60137  0.79423  1.0000
  C   C477      1.0  0.13071  0.60819  0.75162  1.0000
  C   C478      1.0  0.10086  0.59754  0.74517  1.0000
  C   C479      1.0  0.11390  0.57928  0.75913  1.0000
  C   C480      1.0  0.11496  0.57284  0.73040  1.0000
  C   C481      1.0  0.11132  0.56852  0.78331  1.0000
  C   C482      1.0  0.11352  0.55670  0.72616  1.0000
  C   C483      1.0  0.10977  0.55233  0.77872  1.0000
  C   C484      1.0  0.11081  0.54642  0.75022  1.0000
  H   H577      1.0  0.10197  0.59357  0.80352  1.0000
  H   H578      1.0  0.12443  0.60096  0.80882  1.0000
  H   H579      1.0  0.11494  0.61426  0.79605  1.0000
  H   H580      1.0  0.14161  0.60706  0.76331  1.0000
  H   H581      1.0  0.13206  0.62114  0.75514  1.0000
  H   H582      1.0  0.13154  0.60643  0.72722  1.0000
  H   H583      1.0  0.08873  0.58852  0.75242  1.0000
  H   H584      1.0  0.10094  0.61004  0.74784  1.0000
  H   H585      1.0  0.10120  0.59517  0.72081  1.0000
  H   H586      1.0  0.11635  0.58006  0.71075  1.0000
  H   H587      1.0  0.11020  0.57220  0.80591  1.0000
  H   H588      1.0  0.11382  0.55186  0.70388  1.0000
  H   H589      1.0  0.10745  0.54416  0.79725  1.0000
  H   H590      1.0  0.10908  0.53371  0.74657  1.0000
  H   H591      1.0  0.18589  0.71348  0.91077  1.0000
  C   C485      1.0  0.11821  0.63683  0.52912  1.0000
  C   C486      1.0  0.03249  0.53725  0.68356  1.0000
  H   H592      1.0  0.03675  0.54961  0.67534  1.0000
  H   H593      1.0  0.17237  0.70125  0.95546  1.0000
  C   C487      1.0  0.06849  0.60732  0.58553  1.0000
  H   H594      1.0  0.06410  0.64798  0.89037  1.0000
  H   H595      1.0  0.09238  0.73877  0.90298  1.0000
  H   H596      1.0  0.06281  0.59796  0.60247  1.0000
  H   H597      1.0  0.08971  0.60810  0.62893  1.0000
  C   C488      1.0  0.09340  0.64170  0.52073  1.0000
  C   C489      1.0  0.00092  0.57961  0.78132  1.0000
  C   C490      1.0  0.06980  0.67078  0.86874  1.0000
  C   C491      1.0  0.03666  0.52551  0.66930  1.0000
  H   H598      1.0  0.07325  0.62933  0.54744  1.0000
  H   H599      1.0  0.07703  0.67830  0.88795  1.0000
  C   C492      1.0  0.08636  0.59395  0.57383  1.0000
  H   H600      1.0  0.09919  0.59458  0.57325  1.0000
  H   H601      1.0  0.03538  0.50111  0.66864  1.0000
  H   H602      1.0  0.07990  0.58906  0.55158  1.0000
  H   H603      1.0  0.06067  0.60271  0.56439  1.0000
  H   H604      1.0  0.10855  0.61766  0.61029  1.0000
  H   H605      1.0  0.09594  0.62878  0.61681  1.0000
  N   N35       1.0  0.08609  0.61016  0.58150  1.0000
  C   C493      1.0  0.09550  0.61643  0.61058  1.0000
  C   C494      1.0  0.18133  0.71387  0.95762  1.0000
  H   H606      1.0  0.08706  0.64850  0.50976  1.0000
  C   C495      1.0  0.09388  0.62199  0.55812  1.0000
  H   H607      1.0  0.06742  0.61877  0.59365  1.0000
  C   C496      1.0  0.08559  0.63056  0.54256  1.0000
  H   H608      1.0  0.11773  0.61984  0.56219  1.0000
  C   C497      1.0  0.06260  0.65370  0.86993  1.0000
  C   C498      1.0  0.04379  0.72340  0.92019  1.0000
  C   C499      1.0  0.11048  0.62553  0.55078  1.0000
  H   H609      1.0  0.05164  0.72169  0.90365  1.0000
  H   H610      1.0  0.07434  0.69155  0.84151  1.0000
  C   C500      1.0  0.02198  0.50508  0.70575  1.0000
  C   C501      1.0  0.02460  0.72887  0.96363  1.0000
  H   H611      1.0  0.04420  0.52881  0.65004  1.0000
  C   C502      1.0  0.02310  0.53318  0.70870  1.0000
  C   C503      1.0  0.02362  0.73453  0.93440  1.0000
  H   H612      1.0  0.05317  0.71254  0.95492  1.0000
  S   S142      1.0  0.12605  0.73725  0.92149  1.0000
  C   C504      1.0  0.99055  0.59124  0.73042  1.0000
  C   C505      1.0  0.19658  0.73993  0.98462  1.0000
  C   C506      1.0  0.04466  0.71822  0.94909  1.0000
  H   H613      1.0  0.01060  0.51505  0.73924  1.0000
  C   C507      1.0  0.18905  0.72077  0.93159  1.0000
  H   H614      1.0  0.13102  0.63968  0.52436  1.0000
  H   H615      1.0  0.99376  0.73185  0.95552  1.0000
  C   C508      1.0  0.20044  0.73714  0.93202  1.0000
  H   H616      1.0  0.01771  0.73074  0.98160  1.0000
  Fe  Fe72      1.0  0.12062  0.70377  0.98100  1.0000
  H   H617      1.0  0.01076  0.73878  0.87877  1.0000
  H   H618      1.0  0.11586  0.65407  0.49806  1.0000
  H   H619      1.0  0.03975  0.49352  0.74120  1.0000
  H   H620      1.0  0.01382  0.49340  0.76257  1.0000
  S   S143      1.0  0.16602  0.76005  0.43107  1.0000
  Fe  Fe73      1.0  0.06924  0.79848  0.36806  1.0000
  S   S144      1.0  0.06706  0.81732  0.39949  1.0000
  S   S145      1.0  0.09160  0.79231  0.37666  1.0000
  Fe  Fe74      1.0  0.03961  0.79709  0.32584  1.0000
  S   S146      1.0  0.03573  0.81620  0.35452  1.0000
  S   S147      1.0  0.02452  0.78125  0.28477  1.0000
  Fe  Fe75      1.0  0.06407  0.82980  0.35762  1.0000
  S   S148      1.0  0.08006  0.85609  0.34350  1.0000
  Fe  Fe76      1.0  0.03924  0.80215  0.39425  1.0000
  S   S149      1.0  0.02276  0.78768  0.43127  1.0000
  S   S150      1.0  0.06736  0.81134  0.32644  1.0000
  S   S151      1.0  0.04204  0.78261  0.36509  1.0000
  Fe  Fe77      1.0  0.17106  0.93546  0.36426  1.0000
  S   S152      1.0  0.18430  0.93309  0.32364  1.0000
  S   S153      1.0  0.14906  0.91593  0.38690  1.0000
  Fe  Fe78      1.0  0.19858  0.96977  0.38278  1.0000
  S   S154      1.0  0.21397  0.96956  0.34404  1.0000
  C   C509      1.0  0.20694  0.83848  0.46843  1.0000
  Fe  Fe79      1.0  0.19012  0.95993  0.31579  1.0000
  S   S155      1.0  0.18782  0.96948  0.26895  1.0000
  Fe  Fe80      1.0  0.20742  0.94298  0.35419  1.0000
  S   S156      1.0  0.22641  0.93212  0.34845  1.0000
  S   S157      1.0  0.17472  0.96146  0.35398  1.0000
  S   S158      1.0  0.19422  0.94402  0.39534  1.0000
  Fe  Fe81      1.0  0.25563  0.83940  0.45003  1.0000
  H   H621      1.0  0.13882  0.80665  0.41207  1.0000
  H   H622      1.0  0.16232  0.92811  0.44887  1.0000
  Fe  Fe82      1.0  0.27971  0.86565  0.41029  1.0000
  S   S159      1.0  0.28097  0.88675  0.44076  1.0000
  S   S160      1.0  0.28920  0.87125  0.36295  1.0000
  C   C510      1.0  0.20181  0.98409  0.24508  1.0000
  S   S161      1.0  0.29332  0.86096  0.03195  1.0000
  Fe  Fe83      1.0  0.25338  0.87275  0.44208  1.0000
  S   S162      1.0  0.23350  0.88278  0.44348  1.0000
  S   S163      1.0  0.28381  0.85099  0.44854  1.0000
  S   S164      1.0  0.25158  0.85240  0.40995  1.0000
  C   C511      1.0  0.22811  0.91819  0.37471  1.0000
  C   C512      1.0  0.24060  0.91227  0.37231  1.0000
  C   C513      1.0  0.24238  0.90134  0.39315  1.0000
  C   C514      1.0  0.23164  0.89627  0.41651  1.0000
  C   C515      1.0  0.21898  0.90196  0.41861  1.0000
  C   C516      1.0  0.21721  0.91288  0.39781  1.0000
  H   H623      1.0  0.24904  0.91628  0.35446  1.0000
  H   H624      1.0  0.25214  0.89699  0.39129  1.0000
  H   H625      1.0  0.21066  0.89812  0.43667  1.0000
  H   H626      1.0  0.20752  0.91731  0.39983  1.0000
  H   H627      1.0  0.00527  0.75775  0.36952  1.0000
  H   H628      1.0  0.12437  0.81451  0.34816  1.0000
  C   C517      1.0  0.22490  0.76458  0.37032  1.0000
  H   H629      1.0  0.03205  0.80083  0.10908  1.0000
  H   H630      1.0  0.12231  0.84633  0.29625  1.0000
  C   C518      1.0  0.02234  0.80180  0.18321  1.0000
  H   H631      1.0  0.18000  0.85161  0.35020  1.0000
  H   H632      1.0  0.13431  0.87003  0.35976  1.0000
  H   H633      1.0  0.15157  0.83183  0.33879  1.0000
  C   C519      1.0  0.00523  0.77977  0.00714  1.0000
  C   C520      1.0  0.19561  0.98696  0.21718  1.0000
  H   H634      1.0  0.19761  0.92599  0.25961  1.0000
  C   C521      1.0  0.98938  0.76670  0.21514  1.0000
  C   C522      1.0  0.09921  0.87262  0.35627  1.0000
  C   C523      1.0  0.10560  0.87455  0.38596  1.0000
  C   C524      1.0  0.12076  0.88791  0.39485  1.0000
  C   C525      1.0  0.12993  0.89940  0.37418  1.0000
  C   C526      1.0  0.12361  0.89740  0.34446  1.0000
  C   C527      1.0  0.10828  0.88425  0.33573  1.0000
  H   H635      1.0  0.09872  0.86591  0.40220  1.0000
  H   H636      1.0  0.12542  0.88932  0.41794  1.0000
  H   H637      1.0  0.13037  0.90615  0.32828  1.0000
  H   H638      1.0  0.10343  0.88304  0.31277  1.0000
  C   C528      1.0  0.18674  0.77460  0.44117  1.0000
  C   C529      1.0  0.21411  0.76220  0.39324  1.0000
  C   C530      1.0  0.22030  0.75353  0.34571  1.0000
  C   C531      1.0  0.21970  0.79858  0.45522  1.0000
  C   C532      1.0  0.21028  0.80039  0.43064  1.0000
  C   C533      1.0  0.19395  0.78850  0.42372  1.0000
  C   C534      1.0  0.02406  0.82568  0.15603  1.0000
  C   C535      1.0  0.99706  0.78231  0.35065  1.0000
  H   H639      1.0  0.21569  0.81082  0.41668  1.0000
  H   H640      1.0  0.18683  0.79006  0.40462  1.0000
  H   H641      1.0  0.01522  0.77685  0.13918  1.0000
  C   C536      1.0  0.10212  0.75536  0.41015  1.0000
  C   C537      1.0  0.10349  0.77034  0.39822  1.0000
  C   C538      1.0  0.08923  0.77296  0.38990  1.0000
  C   C539      1.0  0.07353  0.76036  0.39288  1.0000
  H   H642      1.0  0.29567  0.88223  0.30323  1.0000
  H   H643      1.0  0.04257  0.83694  0.22602  1.0000
  H   H644      1.0  0.11566  0.77995  0.39560  1.0000
  H   H645      1.0  0.06247  0.76218  0.38617  1.0000
  H   H646      1.0  0.18605  0.88029  0.36681  1.0000
  C   C540      1.0  0.00871  0.78748  0.45899  1.0000
  H   H647      1.0  0.03583  0.74805  0.46980  1.0000
  H   H648      1.0  0.11319  0.75356  0.41699  1.0000
  H   H649      1.0  0.12672  0.82106  0.30979  1.0000
  H   H650      1.0  0.19976  0.92861  0.22026  1.0000
  H   H651      1.0  0.08028  0.76398  0.45716  1.0000
  H   H652      1.0  0.10673  0.81268  0.32511  1.0000
  H   H653      1.0  0.05043  0.75480  0.44125  1.0000
  C   C541      1.0  0.00829  0.78058  0.25867  1.0000
  C   C542      1.0  0.00207  0.76773  0.23661  1.0000
  H   H654      1.0  0.24373  0.97822  0.00225  1.0000
  H   H655      1.0  0.25346  0.96696  0.24526  1.0000
  C   C543      1.0  0.03605  0.82906  0.20671  1.0000
  H   H656      1.0  0.16430  0.83190  0.41424  1.0000
  C   C544      1.0  0.01858  0.80831  0.15647  1.0000
  H   H657      1.0  0.19937  0.74811  0.00416  1.0000
  H   H658      1.0  0.25692  0.93294  0.00947  1.0000
  H   H659      1.0  0.16556  0.96940  0.43190  1.0000
  H   H660      1.0  0.02334  0.81505  0.09732  1.0000
  C   C545      1.0  0.99742  0.75551  0.34831  1.0000
  H   H661      1.0  0.21769  0.77083  0.41236  1.0000
  H   H662      1.0  0.18805  0.97398  0.00191  1.0000
  H   H663      1.0  0.09617  0.75060  0.48232  1.0000
  H   H664      1.0  0.99688  0.81326  0.11600  1.0000
  N   N36       1.0  0.19360  0.83863  0.44701  1.0000
  H   H665      1.0  0.28802  0.91490  0.33132  1.0000
  C   C546      1.0  0.98886  0.79136  0.23762  1.0000
  C   C547      1.0  0.17682  0.80936  0.46275  1.0000
  H   H666      1.0  0.99560  0.77565  0.15249  1.0000
  H   H667      1.0  0.00614  0.80237  0.27582  1.0000
  C   C548      1.0  0.03262  0.83585  0.18084  1.0000
  C   C549      1.0  0.25725  0.93947  0.98913  1.0000
  C   C550      1.0  0.30096  0.91802  0.33804  1.0000
  H   H668      1.0  0.19066  0.74757  0.40988  1.0000
  C   C551      1.0  0.00385  0.80047  0.46367  1.0000
  N   N37       1.0  0.98636  0.76440  0.34934  1.0000
  C   C552      1.0  0.02021  0.80221  0.10398  1.0000
  H   H669      1.0  0.13929  0.93565  0.44824  1.0000
  C   C553      1.0  0.14947  0.80749  0.42626  1.0000
  H   H670      1.0  0.02167  0.83150  0.13649  1.0000
  H   H671      1.0  0.00596  0.75957  0.32963  1.0000
  H   H672      1.0  0.16298  0.88921  0.37147  1.0000
  H   H673      1.0  0.07170  0.78276  0.44268  1.0000
  H   H674      1.0  0.16377  0.94988  0.41760  1.0000
  N   N38       1.0  0.12230  0.83758  0.34077  1.0000
  C   C554      1.0  0.11257  0.83582  0.36765  1.0000
  C   C555      1.0  0.11508  0.84433  0.31663  1.0000
  C   C556      1.0  0.12011  0.82080  0.33048  1.0000
  C   C557      1.0  0.13986  0.84894  0.34807  1.0000
  C   C558      1.0  0.15337  0.84413  0.34591  1.0000
  C   C559      1.0  0.14389  0.86549  0.35764  1.0000
  C   C560      1.0  0.16982  0.85537  0.35261  1.0000
  C   C561      1.0  0.16032  0.87658  0.36444  1.0000
  C   C562      1.0  0.17329  0.87156  0.36187  1.0000
  H   H675      1.0  0.11251  0.84766  0.37571  1.0000
  H   H676      1.0  0.09929  0.82736  0.36303  1.0000
  H   H677      1.0  0.11751  0.83074  0.38639  1.0000
  H   H678      1.0  0.11475  0.85625  0.32341  1.0000
  H   H679      1.0  0.10191  0.83600  0.31025  1.0000
  C   C563      1.0  0.30744  0.87667  0.34217  1.0000
  C   C564      1.0  0.30492  0.91316  0.36559  1.0000
  N   N39       1.0  0.00952  0.79783  0.12987  1.0000
  H   H680      1.0  0.21761  0.96235  0.27859  1.0000
  H   H681      1.0  0.22357  0.92371  0.26426  1.0000
  C   C565      1.0  0.24535  0.96812  0.22747  1.0000
  H   H682      1.0  0.31362  0.85798  0.08167  1.0000
  H   H683      1.0  0.00622  0.78582  0.37023  1.0000
  C   C566      1.0  0.31720  0.90277  0.08562  1.0000
  C   C567      1.0  0.14853  0.79405  0.44278  1.0000
  H   H684      1.0  0.03361  0.80683  0.22807  1.0000
  S   S165      1.0  0.25563  0.85897  0.48221  1.0000
  C   C568      1.0  0.21685  0.98657  0.46605  1.0000
  H   H685      1.0  0.01388  0.79418  0.08379  1.0000
  H   H686      1.0  0.20269  0.83045  0.40896  1.0000
  H   H687      1.0  0.03555  0.76361  0.44493  1.0000
  C   C569      1.0  0.19620  0.77273  0.46563  1.0000
  H   H688      1.0  0.16128  0.98129  0.47387  1.0000
  C   C570      1.0  0.19704  0.98470  0.99197  1.0000
  C   C571      1.0  0.31348  0.92645  0.31886  1.0000
  C   C572      1.0  0.25246  0.98033  0.20694  1.0000
  H   H689      1.0  0.21779  0.94428  0.29535  1.0000
  C   C573      1.0  0.99257  0.79955  0.48578  1.0000
  C   C574      1.0  0.00213  0.77362  0.47674  1.0000
  H   H690      1.0  0.22877  0.75545  0.32792  1.0000
  H   H691      1.0  0.01489  0.78056  0.02366  1.0000
  C   C575      1.0  0.17823  0.82329  0.44612  1.0000
  H   H692      1.0  0.23685  0.77504  0.37166  1.0000
  H   H693      1.0  0.24252  0.93976  0.25510  1.0000
  C   C576      1.0  0.16213  0.79503  0.46105  1.0000
  H   H694      1.0  0.30945  0.92962  0.29772  1.0000
  H   H695      1.0  0.31811  0.91527  0.08669  1.0000
  H   H696      1.0  0.18198  0.94099  0.46660  1.0000
  C   C577      1.0  0.03100  0.81210  0.20782  1.0000
  C   C578      1.0  0.00151  0.79236  0.25916  1.0000
  C   C579      1.0  0.22567  0.97271  0.18100  1.0000
  H   H697      1.0  0.20122  0.86444  0.45891  1.0000
  C   C580      1.0  0.21255  0.78462  0.47253  1.0000
  C   C581      1.0  0.06593  0.78627  0.46168  1.0000
  H   H698      1.0  0.05836  0.79245  0.45124  1.0000
  H   H699      1.0  0.98697  0.79244  0.10268  1.0000
  C   C582      1.0  0.30583  0.87552  0.06067  1.0000
  C   C583      1.0  0.30693  0.88161  0.31256  1.0000
  H   H700      1.0  0.21549  0.97499  0.45567  1.0000
  H   H701      1.0  0.99036  0.74200  0.34487  1.0000
  C   C584      1.0  0.16409  0.82189  0.42776  1.0000
  N   N40       1.0  0.16393  0.95171  0.46573  1.0000
  H   H702      1.0  0.18164  0.85539  0.43891  1.0000
  C   C585      1.0  0.16833  0.93727  0.46778  1.0000
  C   C586      1.0  0.22807  0.95784  0.22545  1.0000
  C   C587      1.0  0.20266  0.93535  0.24238  1.0000
  H   H703      1.0  0.23677  0.95997  0.28521  1.0000
  C   C588      1.0  0.18977  0.85284  0.45591  1.0000
  Fe  Fe84      1.0  0.28335  0.87143  0.47905  1.0000
  C   C589      1.0  0.99423  0.80046  0.12222  1.0000
  H   H704      1.0  0.19555  0.94325  0.24344  1.0000
  C   C590      1.0  0.07215  0.74531  0.40465  1.0000
  C   C591      1.0  0.22341  0.95335  0.27798  1.0000
  C   C592      1.0  0.21838  0.96054  0.20153  1.0000
  C   C593      1.0  0.00436  0.77995  0.13422  1.0000
  N   N41       1.0  0.22082  0.94522  0.24788  1.0000
  H   H705      1.0  0.30049  0.89584  0.04588  1.0000
  H   H706      1.0  0.21803  0.97493  0.16343  1.0000
  H   H707      1.0  0.14110  0.95538  0.46149  1.0000
  C   C594      1.0  0.22909  0.93361  0.24810  1.0000
  H   H708      1.0  0.13733  0.78275  0.44121  1.0000
  H   H709      1.0  0.20509  0.95375  0.19854  1.0000
  H   H710      1.0  0.18301  0.96408  0.43591  1.0000
  H   H711      1.0  0.00713  0.75849  0.23602  1.0000
  H   H712      1.0  0.22799  0.92768  0.22553  1.0000
  C   C595      1.0  0.16925  0.95909  0.43656  1.0000
  H   H713      1.0  0.03652  0.84907  0.18009  1.0000
  H   H714      1.0  0.98598  0.79764  0.14134  1.0000
  H   H715      1.0  0.00876  0.81122  0.45031  1.0000
  C   C596      1.0  0.20034  0.84121  0.41688  1.0000
  H   H716      1.0  0.01858  0.78877  0.18594  1.0000
  H   H717      1.0  0.21235  0.85223  0.41680  1.0000
  C   C597      1.0  0.08643  0.74284  0.41364  1.0000
  S   S166      1.0  0.24051  0.81307  0.46486  1.0000
  H   H718      1.0  0.07604  0.79560  0.47628  1.0000
  H   H719      1.0  0.19763  0.78608  0.99982  1.0000
  C   C598      1.0  0.31460  0.87051  0.08261  1.0000
  H   H720      1.0  0.18358  0.85077  0.47749  1.0000
  C   C599      1.0  0.24263  0.98263  0.18378  1.0000
  C   C600      1.0  0.14557  0.94555  0.46589  1.0000
  H   H721      1.0  0.18254  0.98031  0.21067  1.0000
  H   H722      1.0  0.24255  0.95113  0.00596  1.0000
  C   C601      1.0  0.04384  0.75906  0.45782  1.0000
  H   H723      1.0  0.00562  0.76341  0.47321  1.0000
  H   H724      1.0  0.29511  0.90622  0.37998  1.0000
  H   H725      1.0  0.19179  0.84318  0.39997  1.0000
  H   H726      1.0  0.00447  0.78608  0.33049  1.0000
  C   C602      1.0  0.98863  0.77407  0.01547  1.0000
  H   H727      1.0  0.99772  0.77245  0.11376  1.0000
  C   C603      1.0  0.07819  0.76137  0.48037  1.0000
  H   H728      1.0  0.98954  0.78977  0.35173  1.0000
  C   C604      1.0  0.30724  0.89178  0.06232  1.0000
  H   H729      1.0  0.19092  0.76212  0.47926  1.0000
  H   H730      1.0  0.21815  0.85035  0.46898  1.0000
  H   H731      1.0  0.21133  0.82880  0.46210  1.0000
  H   H732      1.0  0.22388  0.99094  0.27416  1.0000
  H   H733      1.0  0.16144  0.78438  0.47335  1.0000
  H   H734      1.0  0.22360  0.96151  0.99278  1.0000
  N   N42       1.0  0.05562  0.77194  0.47897  1.0000
  H   H735      1.0  0.18698  0.80900  0.47673  1.0000
  H   H736      1.0  0.98614  0.78227  0.40216  1.0000
  C   C605      1.0  0.19864  0.74881  0.39160  1.0000
  H   H737      1.0  0.26561  0.98828  0.20922  1.0000
  H   H738      1.0  0.03883  0.78377  0.48631  1.0000
  H   H739      1.0  0.14110  0.94043  0.48788  1.0000
  Fe  Fe85      1.0  0.27961  0.86301  0.98829  1.0000
  S   S167      1.0  0.25193  0.85525  0.97953  1.0000
  Fe  Fe86      1.0  0.05007  0.78716  0.86273  1.0000
  S   S168      1.0  0.05117  0.80241  0.90391  1.0000
  S   S169      1.0  0.06155  0.76869  0.85891  1.0000
  Fe  Fe87      1.0  0.03173  0.80296  0.82315  1.0000
  S   S170      1.0  0.03168  0.81959  0.86195  1.0000
  S   S171      1.0  0.02350  0.80679  0.77539  1.0000
  Fe  Fe88      1.0  0.05842  0.82355  0.87252  1.0000
  S   S172      1.0  0.07914  0.84864  0.88765  1.0000
  Fe  Fe89      1.0  0.02449  0.79717  0.89010  1.0000
  S   S173      1.0  0.00154  0.78918  0.91829  1.0000
  S   S174      1.0  0.05892  0.80845  0.83230  1.0000
  S   S175      1.0  0.02299  0.78036  0.85048  1.0000
  Fe  Fe90      1.0  0.16829  0.92549  0.85150  1.0000
  S   S176      1.0  0.18864  0.93375  0.81897  1.0000
  S   S177      1.0  0.14808  0.89945  0.83902  1.0000
  Fe  Fe91      1.0  0.18737  0.95703  0.89130  1.0000
  S   S178      1.0  0.20882  0.96720  0.86115  1.0000
  C   C606      1.0  0.08164  0.87994  0.82084  1.0000
  Fe  Fe92      1.0  0.18931  0.95931  0.82275  1.0000
  S   S179      1.0  0.19029  0.97067  0.77625  1.0000
  Fe  Fe93      1.0  0.20673  0.94112  0.85870  1.0000
  S   S180      1.0  0.22964  0.93563  0.85650  1.0000
  S   S181      1.0  0.16756  0.95067  0.85310  1.0000
  S   S182      1.0  0.18671  0.93131  0.89103  1.0000
  Fe  Fe94      1.0  0.25375  0.84169  0.93803  1.0000
  N   N43       1.0  0.01376  0.74417  0.92669  1.0000
  S   S183      1.0  0.23254  0.81750  0.91926  1.0000
  Fe  Fe95      1.0  0.28708  0.87057  0.92241  1.0000
  S   S184      1.0  0.28636  0.88601  0.96261  1.0000
  H   H740      1.0  0.98891  0.80967  0.48914  1.0000
  H   H741      1.0  0.07537  0.84336  0.75992  1.0000
  S   S185      1.0  0.29618  0.88322  0.52485  1.0000
  Fe  Fe96      1.0  0.25902  0.87717  0.95039  1.0000
  S   S186      1.0  0.24331  0.89183  0.95578  1.0000
  S   S187      1.0  0.28103  0.84761  0.94863  1.0000
  S   S188      1.0  0.26002  0.86358  0.90829  1.0000
  C   C607      1.0  0.23271  0.92264  0.88332  1.0000
  C   C608      1.0  0.22426  0.91960  0.90971  1.0000
  C   C609      1.0  0.22773  0.91021  0.93170  1.0000
  C   C610      1.0  0.23932  0.90335  0.92717  1.0000
  C   C611      1.0  0.24747  0.90599  0.90046  1.0000
  C   C612      1.0  0.24430  0.91578  0.87874  1.0000
  H   H742      1.0  0.21535  0.92481  0.91355  1.0000
  H   H743      1.0  0.22144  0.90828  0.95239  1.0000
  H   H744      1.0  0.25646  0.90079  0.89679  1.0000
  H   H745      1.0  0.25091  0.91808  0.85838  1.0000
  C   C613      1.0  0.05340  0.85707  0.76055  1.0000
  C   C614      1.0  0.30544  0.88000  0.83751  1.0000
  H   H746      1.0  0.21899  0.96948  0.93000  1.0000
  H   H747      1.0  0.28769  0.84761  0.52371  1.0000
  H   H748      1.0  0.30577  0.86577  0.61943  1.0000
  N   N44       1.0  0.23997  0.96920  0.95623  1.0000
  H   H749      1.0  0.19143  0.82230  0.90131  1.0000
  H   H750      1.0  0.29257  0.87260  0.84161  1.0000
  H   H751      1.0  0.23811  0.93701  0.75578  1.0000
  C   C615      1.0  0.16540  0.85020  0.87316  1.0000
  H   H752      1.0  0.25479  0.98413  0.92176  1.0000
  H   H753      1.0  0.30499  0.89995  0.58259  1.0000
  C   C616      1.0  0.18700  0.98926  0.53586  1.0000
  C   C617      1.0  0.09848  0.86236  0.87399  1.0000
  C   C618      1.0  0.10518  0.85853  0.84865  1.0000
  C   C619      1.0  0.12041  0.86994  0.83861  1.0000
  C   C620      1.0  0.12926  0.88531  0.85374  1.0000
  C   C621      1.0  0.12276  0.88896  0.87949  1.0000
  C   C622      1.0  0.10750  0.87757  0.88948  1.0000
  H   H754      1.0  0.09862  0.84684  0.83669  1.0000
  H   H755      1.0  0.12527  0.86695  0.81866  1.0000
  H   H756      1.0  0.12937  0.90066  0.89148  1.0000
  H   H757      1.0  0.10256  0.88068  0.90923  1.0000
  C   C623      1.0  0.18705  0.77504  0.95635  1.0000
  H   H758      1.0  0.24335  0.97421  0.80274  1.0000
  C   C624      1.0  0.21294  0.80003  0.96517  1.0000
  C   C625      1.0  0.21521  0.80129  0.93444  1.0000
  C   C626      1.0  0.20319  0.78937  0.91479  1.0000
  C   C627      1.0  0.18920  0.77641  0.92558  1.0000
  S   S189      1.0  0.31201  0.88128  0.89949  1.0000
  H   H759      1.0  0.27786  0.80676  0.58790  1.0000
  H   H760      1.0  0.20475  0.79014  0.89097  1.0000
  H   H761      1.0  0.18023  0.76732  0.91011  1.0000
  C   C628      1.0  0.09033  0.87683  0.77139  1.0000
  C   C629      1.0  0.99094  0.77275  0.49895  1.0000
  H   H762      1.0  0.26389  0.84830  0.54711  1.0000
  C   C630      1.0  0.07090  0.76271  0.88945  1.0000
  C   C631      1.0  0.06939  0.76705  0.91900  1.0000
  C   C632      1.0  0.07829  0.87073  0.79317  1.0000
  H   H763      1.0  0.08068  0.74933  0.86105  1.0000
  H   H764      1.0  0.03356  0.76695  0.94245  1.0000
  H   H765      1.0  0.06294  0.77482  0.92357  1.0000
  H   H766      1.0  0.07411  0.76371  0.96562  1.0000
  C   C633      1.0  0.99714  0.78368  0.95606  1.0000
  H   H767      1.0  0.25304  0.80350  0.55992  1.0000
  H   H768      1.0  0.99471  0.75122  0.94312  1.0000
  H   H769      1.0  0.99220  0.79182  0.67730  1.0000
  C   C634      1.0  0.29943  0.85290  0.61232  1.0000
  C   C635      1.0  0.00249  0.74450  0.95021  1.0000
  H   H770      1.0  0.20058  0.82368  0.93792  1.0000
  C   C636      1.0  0.00584  0.79808  0.72052  1.0000
  C   C637      1.0  0.00807  0.79275  0.74920  1.0000
  H   H771      1.0  0.05853  0.84824  0.83251  1.0000
  H   H772      1.0  0.01349  0.81054  0.71480  1.0000
  C   C638      1.0  0.04576  0.77762  0.49890  1.0000
  H   H773      1.0  0.23051  0.98462  0.73607  1.0000
  N   N45       1.0  0.23245  0.95817  0.76389  1.0000
  C   C639      1.0  0.07575  0.76078  0.94277  1.0000
  C   C640      1.0  0.27060  0.97933  0.71809  1.0000
  H   H774      1.0  0.30116  0.87829  0.78944  1.0000
  C   C641      1.0  0.25726  0.95515  0.93577  1.0000
  H   H775      1.0  0.21068  0.95932  0.74118  1.0000
  H   H776      1.0  0.04093  0.83886  0.80666  1.0000
  H   H777      1.0  0.99946  0.77225  0.77804  1.0000
  C   C642      1.0  0.25809  0.83462  0.54743  1.0000
  H   H778      1.0  0.03347  0.76219  0.90325  1.0000
  H   H779      1.0  0.20277  0.83664  0.49166  1.0000
  C   C643      1.0  0.09618  0.89422  0.82618  1.0000
  S   S190      1.0  0.17014  0.75848  0.97174  1.0000
  H   H780      1.0  0.08866  0.87051  0.74988  1.0000
  H   H781      1.0  0.01854  0.76916  0.91654  1.0000
  H   H782      1.0  0.13686  0.77573  0.91630  1.0000
  C   C644      1.0  0.07942  0.75270  0.88386  1.0000
  H   H783      1.0  0.06032  0.85924  0.73983  1.0000
  H   H784      1.0  0.11811  0.77636  0.95506  1.0000
  C   C645      1.0  0.06831  0.84159  0.78042  1.0000
  H   H785      1.0  0.09870  0.90083  0.84769  1.0000
  H   H786      1.0  0.22255  0.95925  0.80660  1.0000
  N   N46       1.0  0.10631  0.81755  0.90753  1.0000
  C   C646      1.0  0.11880  0.83478  0.90630  1.0000
  C   C647      1.0  0.09563  0.81318  0.87945  1.0000
  C   C648      1.0  0.09552  0.81699  0.93243  1.0000
  C   C649      1.0  0.11482  0.80624  0.91073  1.0000
  C   C650      1.0  0.11242  0.79550  0.93491  1.0000
  C   C651      1.0  0.12574  0.80554  0.88886  1.0000
  C   C652      1.0  0.12043  0.78476  0.93682  1.0000
  C   C653      1.0  0.13364  0.79471  0.89097  1.0000
  C   C654      1.0  0.13097  0.78433  0.91490  1.0000
  H   H787      1.0  0.12590  0.83692  0.88582  1.0000
  H   H788      1.0  0.11282  0.84371  0.90608  1.0000
  H   H789      1.0  0.12784  0.83818  0.92604  1.0000
  H   H790      1.0  0.10281  0.81450  0.85920  1.0000
  H   H791      1.0  0.08872  0.82118  0.87664  1.0000
  H   H792      1.0  0.08633  0.80017  0.87922  1.0000
  H   H793      1.0  0.08534  0.80452  0.93382  1.0000
  H   H794      1.0  0.10279  0.82056  0.95429  1.0000
  H   H795      1.0  0.08932  0.82565  0.92929  1.0000
  C   C655      1.0  0.08607  0.74670  0.90758  1.0000
  H   H796      1.0  0.12794  0.81312  0.86963  1.0000
  H   H797      1.0  0.22940  0.95840  0.91238  1.0000
  H   H798      1.0  0.07158  0.74965  0.56306  1.0000
  C   C656      1.0  0.08509  0.74957  0.52441  1.0000
  N   N47       1.0  0.27056  0.82731  0.54745  1.0000
  C   C657      1.0  0.20230  0.98799  0.75481  1.0000
  C   C658      1.0  0.28145  0.83392  0.52235  1.0000
  C   C659      1.0  0.26136  0.80927  0.54161  1.0000
  C   C660      1.0  0.28087  0.83167  0.57594  1.0000
  C   C661      1.0  0.99374  0.78747  0.69912  1.0000
  H   H799      1.0  0.07623  0.84023  0.79931  1.0000
  C   C662      1.0  0.31720  0.88599  0.86165  1.0000
  H   H800      1.0  0.22624  0.98186  0.50863  1.0000
  C   C663      1.0  0.23708  0.94479  0.77466  1.0000
  H   H801      1.0  0.29142  0.82925  0.52209  1.0000
  H   H802      1.0  0.29570  0.81520  0.63333  1.0000
  H   H803      1.0  0.26996  0.80308  0.53861  1.0000
  H   H804      1.0  0.10416  0.79484  0.95239  1.0000
  N   N48       1.0  0.06327  0.85529  0.78691  1.0000
  H   H805      1.0  0.24938  0.83052  0.52716  1.0000
  C   C664      1.0  0.24454  0.96958  0.74408  1.0000
  C   C665      1.0  0.28920  0.84838  0.58603  1.0000
  H   H806      1.0  0.20650  0.94142  0.76176  1.0000
  C   C666      1.0  0.22562  0.96135  0.93435  1.0000
  C   C667      1.0  0.28350  0.81976  0.59379  1.0000
  H   H807      1.0  0.16966  0.82995  0.88954  1.0000
  H   H808      1.0  0.05391  0.78672  0.51638  1.0000
  H   H809      1.0  0.28194  0.97808  0.71280  1.0000
  H   H810      1.0  0.11418  0.89526  0.76057  1.0000
  C   C668      1.0  0.19906  0.78697  0.97598  1.0000
  N   N49       1.0  0.20018  0.84648  0.92303  1.0000
  C   C669      1.0  0.21660  0.85138  0.90999  1.0000
  C   C670      1.0  0.20286  0.85311  0.95441  1.0000
  C   C671      1.0  0.19265  0.82823  0.92393  1.0000
  C   C672      1.0  0.18993  0.85327  0.90541  1.0000
  C   C673      1.0  0.17464  0.84321  0.88966  1.0000
  C   C674      1.0  0.19532  0.87055  0.90328  1.0000
  C   C675      1.0  0.31394  0.89472  0.57890  1.0000
  C   C676      1.0  0.18597  0.87740  0.88690  1.0000
  C   C677      1.0  0.17100  0.86726  0.87193  1.0000
  H   H811      1.0  0.27161  0.94228  0.91963  1.0000
  H   H812      1.0  0.22449  0.84616  0.92232  1.0000
  H   H813      1.0  0.21527  0.84696  0.88622  1.0000
  H   H814      1.0  0.20993  0.86669  0.95618  1.0000
  C   C678      1.0  0.25121  0.98527  0.94487  1.0000
  H   H815      1.0  0.19083  0.85017  0.96490  1.0000
  H   H816      1.0  0.02229  0.78899  0.97177  1.0000
  S   S191      1.0  0.18613  0.96640  0.93892  1.0000
  C   C679      1.0  0.08400  0.75049  0.93712  1.0000
  C   C680      1.0  0.23104  0.96751  0.79060  1.0000
  H   H817      1.0  0.20693  0.87890  0.91415  1.0000
  H   H818      1.0  0.21032  0.84801  0.96838  1.0000
  H   H819      1.0  0.22382  0.86496  0.91086  1.0000
  H   H820      1.0  0.16384  0.87269  0.85915  1.0000
  H   H821      1.0  0.04178  0.84571  0.75584  1.0000
  H   H822      1.0  0.05733  0.82961  0.77675  1.0000
  H   H823      1.0  0.25331  0.80641  0.52055  1.0000
  H   H824      1.0  0.18898  0.97647  0.71325  1.0000
  C   C681      1.0  0.31267  0.88573  0.55194  1.0000
  C   C682      1.0  0.05212  0.85047  0.81216  1.0000
  H   H825      1.0  0.30986  0.84461  0.64946  1.0000
  C   C683      1.0  0.99800  0.77658  0.75614  1.0000
  C   C684      1.0  0.00948  0.78454  0.97768  1.0000
  H   H826      1.0  0.04972  0.86753  0.76424  1.0000
  C   C685      1.0  0.24154  0.98273  0.73151  1.0000
  H   H827      1.0  0.27159  0.92843  0.96692  1.0000
  H   H828      1.0  0.22200  0.80902  0.98068  1.0000
  C   C686      1.0  0.22304  0.99055  0.49609  1.0000
  C   C687      1.0  0.16906  0.97902  0.49096  1.0000
  H   H829      1.0  0.18031  0.82358  0.93386  1.0000
  H   H830      1.0  0.07348  0.87618  0.83911  1.0000
  H   H831      1.0  0.24896  0.94975  0.78869  1.0000
  C   C688      1.0  0.98587  0.76599  0.73479  1.0000
  C   C689      1.0  0.21589  0.95028  0.74770  1.0000
  C   C690      1.0  0.10493  0.89102  0.77717  1.0000
  H   H832      1.0  0.04741  0.85999  0.81782  1.0000
  H   H833      1.0  0.25055  0.83112  0.56744  1.0000
  C   C691      1.0  0.10787  0.89966  0.80455  1.0000
  C   C692      1.0  0.17180  0.96433  0.49021  1.0000
  H   H834      1.0  0.14161  0.79407  0.87367  1.0000
  H   H835      1.0  0.28806  0.85814  0.57341  1.0000
  H   H836      1.0  0.19045  0.89068  0.88561  1.0000
  H   H837      1.0  0.22758  0.93638  0.78922  1.0000
  C   C693      1.0  0.18241  0.96262  0.51360  1.0000
  C   C694      1.0  0.07347  0.75306  0.53996  1.0000
  H   H838      1.0  0.11942  0.91040  0.80932  1.0000
  H   H839      1.0  0.21275  0.75956  0.95858  1.0000
  C   C695      1.0  0.24886  0.95826  0.95989  1.0000
  C   C696      1.0  0.31037  0.88326  0.80787  1.0000
  C   C697      1.0  0.02535  0.76135  0.92203  1.0000
  C   C698      1.0  0.26564  0.94480  0.93859  1.0000
  H   H840      1.0  0.19839  0.97378  0.55309  1.0000
  H   H841      1.0  0.27424  0.83038  0.50039  1.0000
  H   H842      1.0  0.99508  0.74393  0.89343  1.0000
  C   C699      1.0  0.08744  0.75372  0.49466  1.0000
  C   C700      1.0  0.06403  0.76058  0.52575  1.0000
  H   H843      1.0  0.15393  0.84239  0.86092  1.0000
  H   H844      1.0  0.22591  0.97670  0.78484  1.0000
  C   C701      1.0  0.20427  0.74667  0.95852  1.0000
  C   C702      1.0  0.23358  0.97274  0.98449  1.0000
  H   H845      1.0  0.21969  0.78295  0.49147  1.0000
  H   H846      1.0  0.00951  0.75110  0.97114  1.0000
  C   C703      1.0  0.29378  0.82443  0.62007  1.0000
  C   C704      1.0  0.19877  0.98446  0.96087  1.0000
  H   H847      1.0  0.05500  0.76257  0.53895  1.0000
  H   H848      1.0  0.21650  0.94356  0.72691  1.0000
  H   H849      1.0  0.25696  0.96025  0.91415  1.0000
  C   C705      1.0  0.30176  0.84097  0.62927  1.0000
  C   C706      1.0  0.18982  0.97495  0.53603  1.0000
  C   C707      1.0  0.25952  0.96822  0.73689  1.0000
  H   H850      1.0  0.21640  0.94964  0.94263  1.0000
  C   C708      1.0  0.06616  0.76502  0.49537  1.0000
  H   H851      1.0  0.26297  0.95872  0.74552  1.0000
  H   H852      1.0  0.18552  0.95209  0.51481  1.0000
  C   C709      1.0  0.19898  0.98723  0.72356  1.0000
  C   C710      1.0  0.17664  0.99130  0.51340  1.0000
  H   H853      1.0  0.20609  0.74257  0.91167  1.0000
  C   C711      1.0  0.26563  0.93696  0.96521  1.0000
  H   H854      1.0  0.26279  0.99103  0.95958  1.0000
  H   H855      1.0  0.09214  0.74342  0.53524  1.0000
  H   H856      1.0  0.03609  0.76721  0.50982  1.0000
  H   H857      1.0  0.22783  0.98172  0.98139  1.0000
  C   C712      1.0  0.24897  0.94995  0.98669  1.0000
  C   C713      1.0  0.98605  0.78573  0.50364  1.0000
  H   H858      1.0  0.98598  0.76199  0.51230  1.0000
  S   S192      1.0  0.09113  0.74215  0.96729  1.0000
  H   H859      1.0  0.16416  0.93067  0.48872  1.0000
  H   H860      1.0  0.48130  0.12820  0.46020  1.0000
  Fe  Fe97      1.0  0.62737  0.08923  0.24051  1.0000
  S   S193      1.0  0.63119  0.07746  0.28311  1.0000
  C   C714      1.0  0.35102  0.21061  0.01881  1.0000
  Fe  Fe98      1.0  0.59538  0.09153  0.26291  1.0000
  S   S194      1.0  0.59748  0.08034  0.30646  1.0000
  S   S195      1.0  0.57356  0.09798  0.24713  1.0000
  Fe  Fe99      1.0  0.62505  0.09652  0.30756  1.0000
  S   S196      1.0  0.63775  0.11240  0.35036  1.0000
  Fe  Fe100     1.0  0.60347  0.06227  0.27868  1.0000
  S   S197      1.0  0.59014  0.03506  0.28842  1.0000
  S   S198      1.0  0.62258  0.10915  0.26511  1.0000
  S   S199      1.0  0.60008  0.07262  0.23508  1.0000
  Fe  Fe101     1.0  0.47912  0.08257  0.28090  1.0000
  S   S200      1.0  0.45624  0.06290  0.29842  1.0000
  S   S201      1.0  0.50329  0.08287  0.30320  1.0000
  Fe  Fe102     1.0  0.45753  0.09410  0.23833  1.0000
  S   S202      1.0  0.43351  0.07541  0.25404  1.0000
  S   S203      1.0  0.46060  0.10986  0.19726  1.0000
  Fe  Fe103     1.0  0.44594  0.08239  0.30081  1.0000
  S   S204      1.0  0.43135  0.08214  0.34263  1.0000
  Fe  Fe104     1.0  0.44583  0.05766  0.25100  1.0000
  S   S205      1.0  0.43650  0.03392  0.22230  1.0000
  S   S206      1.0  0.46931  0.10242  0.28521  1.0000
  S   S207      1.0  0.46933  0.07603  0.23335  1.0000
  Fe  Fe105     1.0  0.40671  0.15277  0.01381  1.0000
  H   H861      1.0  0.40522  0.16396  0.43506  1.0000
  H   H862      1.0  0.53333  0.03391  0.30812  1.0000
  Fe  Fe106     1.0  0.40597  0.12760  0.06068  1.0000
  S   S208      1.0  0.39138  0.10602  0.02916  1.0000
  S   S209      1.0  0.40898  0.12491  0.11109  1.0000
  H   H863      1.0  0.52973  0.05480  0.18829  1.0000
  S   S210      1.0  0.42830  0.12667  0.45549  1.0000
  Fe  Fe107     1.0  0.37617  0.12023  0.01649  1.0000
  S   S211      1.0  0.34795  0.10953  0.00973  1.0000
  S   S212      1.0  0.42435  0.14085  0.02658  1.0000
  S   S213      1.0  0.38950  0.14099  0.04997  1.0000
  C   C715      1.0  0.33454  0.09764  0.03674  1.0000
  C   C716      1.0  0.34068  0.09535  0.06485  1.0000
  H   H864      1.0  0.35395  0.10059  0.07021  1.0000
  C   C717      1.0  0.44551  0.11266  0.17278  1.0000
  C   C718      1.0  0.44977  0.11799  0.14373  1.0000
  C   C719      1.0  0.43853  0.12119  0.12406  1.0000
  C   C720      1.0  0.42299  0.11940  0.13352  1.0000
  C   C721      1.0  0.41868  0.11392  0.16247  1.0000
  C   C722      1.0  0.42977  0.11040  0.18189  1.0000
  H   H865      1.0  0.46193  0.11983  0.13649  1.0000
  H   H866      1.0  0.44208  0.12544  0.10194  1.0000
  H   H867      1.0  0.40670  0.11251  0.17002  1.0000
  H   H868      1.0  0.42635  0.10645  0.20421  1.0000
  C   C723      1.0  0.42837  0.11428  0.42347  1.0000
  C   C724      1.0  0.41661  0.09810  0.41807  1.0000
  C   C725      1.0  0.41769  0.08862  0.39315  1.0000
  C   C726      1.0  0.43041  0.09513  0.37301  1.0000
  C   C727      1.0  0.44203  0.11141  0.37817  1.0000
  C   C728      1.0  0.44104  0.12085  0.40324  1.0000
  H   H869      1.0  0.40679  0.09279  0.43327  1.0000
  H   H870      1.0  0.40859  0.07608  0.38949  1.0000
  H   H871      1.0  0.45184  0.11672  0.36298  1.0000
  H   H872      1.0  0.45029  0.13329  0.40712  1.0000
  C   C729      1.0  0.41271  0.01208  0.25708  1.0000
  C   C730      1.0  0.42171  0.01436  0.23140  1.0000
  N   N50       1.0  0.34802  0.22507  0.02907  1.0000
  H   H873      1.0  0.41489  0.02244  0.27227  1.0000
  C   C731      1.0  0.57429  0.00271  0.26861  1.0000
  C   C732      1.0  0.55394  0.09315  0.26290  1.0000
  C   C733      1.0  0.55013  0.08578  0.29049  1.0000
  C   C734      1.0  0.53453  0.08255  0.30228  1.0000
  C   C735      1.0  0.52241  0.08635  0.28646  1.0000
  C   C736      1.0  0.52605  0.09326  0.25848  1.0000
  C   C737      1.0  0.54174  0.09676  0.24695  1.0000
  H   H874      1.0  0.55936  0.08296  0.30310  1.0000
  H   H875      1.0  0.53193  0.07726  0.32398  1.0000
  H   H876      1.0  0.51694  0.09635  0.24606  1.0000
  H   H877      1.0  0.54452  0.10248  0.22562  1.0000
  C   C738      1.0  0.53382  0.02957  0.21566  1.0000
  C   C739      1.0  0.41449  0.16293  0.45172  1.0000
  C   C740      1.0  0.58116  0.01920  0.26028  1.0000
  C   C741      1.0  0.58018  0.02266  0.23011  1.0000
  C   C742      1.0  0.57210  0.00975  0.20866  1.0000
  H   H878      1.0  0.37399  0.07569  0.13353  1.0000
  H   H879      1.0  0.58567  0.03524  0.22326  1.0000
  H   H880      1.0  0.54510  0.07072  0.21177  1.0000
  N   N51       1.0  0.54618  0.04683  0.21408  1.0000
  H   H881      1.0  0.38891  0.08871  0.08936  1.0000
  H   H882      1.0  0.62770  0.11488  0.47033  1.0000
  H   H883      1.0  0.59016  0.08022  0.15877  1.0000
  C   C743      1.0  0.42759  0.19856  0.46991  1.0000
  H   H884      1.0  0.53999  0.02110  0.22098  1.0000
  C   C744      1.0  0.62995  0.10504  0.45967  1.0000
  H   H885      1.0  0.57155  0.01248  0.18536  1.0000
  C   C745      1.0  0.40722  0.22501  0.03680  1.0000
  C   C746      1.0  0.41646  0.22595  0.01178  1.0000
  C   C747      1.0  0.36211  0.23602  0.04940  1.0000
  C   C748      1.0  0.41190  0.19687  0.01551  1.0000
  C   C749      1.0  0.40213  0.19576  0.03985  1.0000
  C   C750      1.0  0.40000  0.20979  0.05063  1.0000
  H   H886      1.0  0.64838  0.12376  0.18907  1.0000
  H   H887      1.0  0.52613  0.02523  0.19431  1.0000
  H   H888      1.0  0.39655  0.18423  0.05077  1.0000
  H   H889      1.0  0.39283  0.20890  0.06999  1.0000
  H   H890      1.0  0.54944  0.02342  0.17416  1.0000
  C   C751      1.0  0.43744  0.20155  0.41983  1.0000
  H   H891      1.0  0.52508  0.02830  0.23355  1.0000
  C   C752      1.0  0.64051  0.09838  0.47374  1.0000
  N   N52       1.0  0.42797  0.17854  0.10898  1.0000
  C   C753      1.0  0.40996  0.16943  0.11327  1.0000
  C   C754      1.0  0.43218  0.17024  0.08358  1.0000
  C   C755      1.0  0.43755  0.17705  0.13601  1.0000
  C   C756      1.0  0.43165  0.19610  0.10419  1.0000
  C   C757      1.0  0.43869  0.20415  0.07787  1.0000
  C   C758      1.0  0.42780  0.20561  0.12603  1.0000
  C   C759      1.0  0.64290  0.08567  0.45752  1.0000
  C   C760      1.0  0.43031  0.22195  0.12136  1.0000
  C   C761      1.0  0.33478  0.13656  0.07263  1.0000
  H   H892      1.0  0.40232  0.17086  0.09396  1.0000
  H   H893      1.0  0.40655  0.15599  0.11538  1.0000
  H   H894      1.0  0.40599  0.17361  0.13383  1.0000
  H   H895      1.0  0.42921  0.15706  0.08782  1.0000
  H   H896      1.0  0.44567  0.17604  0.07958  1.0000
  H   H897      1.0  0.42498  0.17045  0.06261  1.0000
  H   H898      1.0  0.43413  0.18173  0.15667  1.0000
  H   H899      1.0  0.43529  0.16393  0.13970  1.0000
  H   H900      1.0  0.45115  0.18403  0.13391  1.0000
  H   H901      1.0  0.44177  0.19795  0.05964  1.0000
  H   H902      1.0  0.42251  0.20037  0.14664  1.0000
  H   H903      1.0  0.33104  0.23182  0.05378  1.0000
  C   C762      1.0  0.63514  0.08006  0.42910  1.0000
  H   H904      1.0  0.61960  0.08310  0.39331  1.0000
  N   N53       1.0  0.48099  0.09118  0.38440  1.0000
  C   C763      1.0  0.49820  0.09306  0.39277  1.0000
  C   C764      1.0  0.47154  0.07393  0.37293  1.0000
  C   C765      1.0  0.48159  0.10213  0.35958  1.0000
  C   C766      1.0  0.47352  0.09578  0.41011  1.0000
  C   C767      1.0  0.48189  0.11132  0.42543  1.0000
  C   C768      1.0  0.45755  0.08554  0.41973  1.0000
  H   H905      1.0  0.64724  0.11914  0.07286  1.0000
  C   C769      1.0  0.45067  0.09050  0.44354  1.0000
  H   H906      1.0  0.55154  0.01947  0.29776  1.0000
  H   H907      1.0  0.49844  0.08579  0.41260  1.0000
  H   H908      1.0  0.50369  0.08880  0.37410  1.0000
  H   H909      1.0  0.50686  0.10607  0.39785  1.0000
  H   H910      1.0  0.47026  0.06501  0.39073  1.0000
  H   H911      1.0  0.47783  0.07068  0.35434  1.0000
  H   H912      1.0  0.45891  0.07195  0.36352  1.0000
  H   H913      1.0  0.46884  0.10085  0.35230  1.0000
  H   H914      1.0  0.48906  0.11531  0.36589  1.0000
  H   H915      1.0  0.48727  0.09917  0.33982  1.0000
  H   H916      1.0  0.49376  0.12002  0.41870  1.0000
  H   H917      1.0  0.44984  0.07387  0.40862  1.0000
  C   C770      1.0  0.41870  0.00079  0.21180  1.0000
  C   C771      1.0  0.50431  0.99850  0.27495  1.0000
  H   H918      1.0  0.63344  0.12185  0.04546  1.0000
  H   H919      1.0  0.32123  0.21365  0.03089  1.0000
  C   C772      1.0  0.36922  0.19939  0.99564  1.0000
  C   C773      1.0  0.43693  0.22936  0.09509  1.0000
  C   C774      1.0  0.62242  0.09946  0.43112  1.0000
  C   C775      1.0  0.53831  0.01363  0.29133  1.0000
  H   H920      1.0  0.44187  0.22491  0.40043  1.0000
  H   H921      1.0  0.42783  0.16863  0.39866  1.0000
  C   C776      1.0  0.32959  0.08641  0.08622  1.0000
  H   H922      1.0  0.45358  0.10976  0.47593  1.0000
  H   H923      1.0  0.57514  0.99992  0.29187  1.0000
  H   H924      1.0  0.63748  0.07071  0.41666  1.0000
  H   H925      1.0  0.43829  0.08272  0.44994  1.0000
  C   C777      1.0  0.43788  0.21748  0.41981  1.0000
  H   H926      1.0  0.34265  0.13187  0.06100  1.0000
  H   H927      1.0  0.42215  0.23752  0.00094  1.0000
  H   H928      1.0  0.36005  0.17305  0.99088  1.0000
  C   C778      1.0  0.44129  0.22054  0.07360  1.0000
  C   C779      1.0  0.51116  0.01426  0.28882  1.0000
  H   H929      1.0  0.33095  0.11935  0.47320  1.0000
  H   H930      1.0  0.42685  0.22888  0.13789  1.0000
  C   C780      1.0  0.47484  0.11618  0.44914  1.0000
  C   C781      1.0  0.33259  0.22067  0.04548  1.0000
  H   H931      1.0  0.43558  0.15611  0.41966  1.0000
  C   C782      1.0  0.63719  0.10053  0.00199  1.0000
  N   N54       1.0  0.41506  0.05693  0.16346  1.0000
  C   C783      1.0  0.41697  0.04334  0.14663  1.0000
  C   C784      1.0  0.43171  0.06869  0.17543  1.0000
  C   C785      1.0  0.40501  0.04974  0.18944  1.0000
  C   C786      1.0  0.40759  0.06548  0.14335  1.0000
  C   C787      1.0  0.39223  0.06656  0.14853  1.0000
  C   C788      1.0  0.41576  0.07309  0.11759  1.0000
  H   H932      1.0  0.32941  0.14733  0.48072  1.0000
  H   H933      1.0  0.42560  0.00246  0.19186  1.0000
  C   C789      1.0  0.43223  0.19158  0.44501  1.0000
  H   H934      1.0  0.42580  0.04788  0.12860  1.0000
  H   H935      1.0  0.42196  0.03625  0.16150  1.0000
  H   H936      1.0  0.40482  0.03454  0.13622  1.0000
  H   H937      1.0  0.44052  0.07418  0.15772  1.0000
  H   H938      1.0  0.43774  0.06269  0.19059  1.0000
  H   H939      1.0  0.43079  0.07905  0.18831  1.0000
  H   H940      1.0  0.41098  0.04350  0.20419  1.0000
  H   H941      1.0  0.40362  0.05941  0.20381  1.0000
  H   H942      1.0  0.39250  0.04024  0.18219  1.0000
  H   H943      1.0  0.38514  0.06134  0.16759  1.0000
  H   H944      1.0  0.42760  0.07301  0.11241  1.0000
  N   N55       1.0  0.43161  0.17469  0.44605  1.0000
  H   H945      1.0  0.41322  0.14995  0.45066  1.0000
  C   C790      1.0  0.33913  0.19411  0.02088  1.0000
  H   H946      1.0  0.52792  0.05565  0.22820  1.0000
  C   C791      1.0  0.53682  0.05739  0.21034  1.0000
  S   S214      1.0  0.64351  0.08959  0.20105  1.0000
  C   C792      1.0  0.55776  0.03607  0.17137  1.0000
  H   H947      1.0  0.34932  0.16173  0.06277  1.0000
  H   H948      1.0  0.54803  0.05003  0.26223  1.0000
  C   C793      1.0  0.55602  0.05143  0.24308  1.0000
  H   H949      1.0  0.56503  0.06447  0.24427  1.0000
  H   H950      1.0  0.56334  0.04386  0.24692  1.0000
  C   C794      1.0  0.55756  0.04930  0.18948  1.0000
  C   C795      1.0  0.45927  0.10578  0.45818  1.0000
  H   H951      1.0  0.50325  0.02067  0.29338  1.0000
  H   H952      1.0  0.61498  0.10516  0.42015  1.0000
  C   C796      1.0  0.38559  0.07476  0.12904  1.0000
  C   C797      1.0  0.58088  0.06791  0.16182  1.0000
  H   H953      1.0  0.33318  0.16828  0.01248  1.0000
  C   C798      1.0  0.32090  0.12568  0.08655  1.0000
  C   C799      1.0  0.58090  0.05466  0.14479  1.0000
  C   C800      1.0  0.56936  0.06532  0.18372  1.0000
  H   H954      1.0  0.57027  0.07598  0.19695  1.0000
  H   H955      1.0  0.59011  0.05668  0.12835  1.0000
  C   C801      1.0  0.56929  0.03880  0.14939  1.0000
  H   H956      1.0  0.37565  0.22498  0.00280  1.0000
  H   H957      1.0  0.56949  0.02848  0.13635  1.0000
  H   H958      1.0  0.44326  0.16157  0.47190  1.0000
  Fe  Fe108     1.0  0.40866  0.12008  0.99374  1.0000
  C   C802      1.0  0.43634  0.16892  0.41802  1.0000
  C   C803      1.0  0.42809  0.21447  0.46964  1.0000
  H   H959      1.0  0.44939  0.17672  0.41300  1.0000
  C   C804      1.0  0.39394  0.08205  0.10400  1.0000
  H   H960      1.0  0.65102  0.08011  0.46587  1.0000
  C   C805      1.0  0.62498  0.08697  0.41591  1.0000
  H   H961      1.0  0.33445  0.08486  0.10801  1.0000
  H   H962      1.0  0.41074  0.16499  0.47423  1.0000
  C   C806      1.0  0.56489  0.99332  0.21704  1.0000
  H   H963      1.0  0.43353  0.23624  0.44464  1.0000
  C   C807      1.0  0.63882  0.11306  0.05279  1.0000
  H   H964      1.0  0.36477  0.22916  0.06799  1.0000
  C   C808      1.0  0.44316  0.17404  0.47066  1.0000
  C   C809      1.0  0.40899  0.08124  0.09828  1.0000
  C   C810      1.0  0.34240  0.18077  0.01082  1.0000
  H   H965      1.0  0.41562  0.08732  0.07912  1.0000
  C   C811      1.0  0.41890  0.21201  0.00144  1.0000
  N   N56       1.0  0.64792  0.10917  0.02872  1.0000
  S   S215      1.0  0.41662  0.18015  0.00290  1.0000
  H   H966      1.0  0.64691  0.08675  0.04774  1.0000
  C   C812      1.0  0.33849  0.15334  0.07349  1.0000
  H   H967      1.0  0.45612  0.18300  0.46762  1.0000
  H   H968      1.0  0.62879  0.10172  0.06056  1.0000
  H   H969      1.0  0.33279  0.21351  0.06548  1.0000
  H   H970      1.0  0.61401  0.10193  0.01500  1.0000
  H   H971      1.0  0.53986  0.99184  0.27454  1.0000
  C   C813      1.0  0.62022  0.09810  0.99814  1.0000
  H   H972      1.0  0.44609  0.22624  0.05288  1.0000
  H   H973      1.0  0.35829  0.23927  0.99064  1.0000
  C   C814      1.0  0.52810  0.02177  0.29711  1.0000
  H   H974      1.0  0.32718  0.19118  0.03004  1.0000
  C   C815      1.0  0.32822  0.15927  0.08803  1.0000
  H   H975      1.0  0.49108  0.99337  0.26939  1.0000
  C   C816      1.0  0.35747  0.18340  0.99845  1.0000
  C   C817      1.0  0.36607  0.21282  0.00550  1.0000
  C   C818      1.0  0.40076  0.99633  0.26298  1.0000
  C   C819      1.0  0.43320  0.22391  0.44465  1.0000
  H   H976      1.0  0.33110  0.17234  0.08850  1.0000
  H   H977      1.0  0.39378  0.99467  0.28281  1.0000
  H   H978      1.0  0.44123  0.19736  0.39987  1.0000
  C   C820      1.0  0.34664  0.23445  0.00282  1.0000
  C   C821      1.0  0.53155  0.99784  0.27774  1.0000
  S   S216      1.0  0.38570  0.12528  0.48668  1.0000
  H   H979      1.0  0.33134  0.22875  0.65464  1.0000
  Fe  Fe109     1.0  0.63017  0.09691  0.74865  1.0000
  S   S217      1.0  0.63339  0.08359  0.78937  1.0000
  H   H980      1.0  0.48215  0.10437  0.82572  1.0000
  Fe  Fe110     1.0  0.59446  0.09161  0.76454  1.0000
  S   S218      1.0  0.59561  0.07855  0.80640  1.0000
  S   S219      1.0  0.57170  0.09470  0.74357  1.0000
  Fe  Fe111     1.0  0.62189  0.09781  0.81503  1.0000
  S   S220      1.0  0.63175  0.11206  0.86021  1.0000
  Fe  Fe112     1.0  0.60705  0.06528  0.77775  1.0000
  S   S221      1.0  0.59919  0.03786  0.78343  1.0000
  S   S222      1.0  0.61977  0.11209  0.77499  1.0000
  S   S223      1.0  0.60472  0.07731  0.73524  1.0000
  Fe  Fe113     1.0  0.47734  0.08161  0.77939  1.0000
  S   S224      1.0  0.45839  0.06983  0.81351  1.0000
  S   S225      1.0  0.50403  0.08943  0.79962  1.0000
  Fe  Fe114     1.0  0.44986  0.07904  0.73181  1.0000
  S   S226      1.0  0.42929  0.06730  0.76301  1.0000
  S   S227      1.0  0.44334  0.07999  0.68203  1.0000
  Fe  Fe115     1.0  0.44592  0.08606  0.79799  1.0000
  S   S228      1.0  0.43571  0.10087  0.82760  1.0000
  Fe  Fe116     1.0  0.44325  0.05197  0.77625  1.0000
  S   S229      1.0  0.43098  0.02500  0.78762  1.0000
  S   S230      1.0  0.46564  0.09907  0.76556  1.0000
  S   S231      1.0  0.46302  0.06243  0.74340  1.0000
  Fe  Fe117     1.0  0.39438  0.14614  0.52146  1.0000
  C   C822      1.0  0.33667  0.14866  0.50234  1.0000
  S   S232      1.0  0.38535  0.16630  0.50969  1.0000
  Fe  Fe118     1.0  0.40975  0.12763  0.56227  1.0000
  S   S233      1.0  0.40232  0.10580  0.53003  1.0000
  S   S234      1.0  0.42167  0.13017  0.60947  1.0000
  C   C823      1.0  0.49209  0.02658  0.76561  1.0000
  S   S235      1.0  0.42015  0.10570  0.96550  1.0000
  Fe  Fe119     1.0  0.37793  0.10859  0.52538  1.0000
  S   S236      1.0  0.35273  0.08693  0.52372  1.0000
  S   S237      1.0  0.41997  0.14627  0.52672  1.0000
  S   S238      1.0  0.38481  0.12928  0.55942  1.0000
  C   C824      1.0  0.33766  0.08393  0.55046  1.0000
  C   C825      1.0  0.34105  0.09413  0.57625  1.0000
  H   H981      1.0  0.35306  0.10421  0.58021  1.0000
  C   C826      1.0  0.43763  0.09429  0.66230  1.0000
  C   C827      1.0  0.43256  0.09101  0.63173  1.0000
  C   C828      1.0  0.42771  0.10186  0.61520  1.0000
  C   C829      1.0  0.42785  0.11614  0.62909  1.0000
  C   C830      1.0  0.43295  0.11944  0.65963  1.0000
  C   C831      1.0  0.43782  0.10860  0.67616  1.0000
  H   H982      1.0  0.43244  0.08001  0.62078  1.0000
  H   H983      1.0  0.42410  0.09931  0.59166  1.0000
  H   H984      1.0  0.43317  0.13048  0.67058  1.0000
  H   H985      1.0  0.44172  0.11132  0.69960  1.0000
  C   C832      1.0  0.42439  0.10467  0.92701  1.0000
  C   C833      1.0  0.42192  0.11495  0.90582  1.0000
  C   C834      1.0  0.42565  0.11372  0.87572  1.0000
  C   C835      1.0  0.43193  0.10225  0.86627  1.0000
  C   C836      1.0  0.43460  0.09209  0.88753  1.0000
  C   C837      1.0  0.43082  0.09329  0.91760  1.0000
  H   H986      1.0  0.41709  0.12384  0.91259  1.0000
  H   H987      1.0  0.42354  0.12168  0.85959  1.0000
  H   H988      1.0  0.43952  0.08329  0.88090  1.0000
  H   H989      1.0  0.43285  0.08531  0.93377  1.0000
  C   C838      1.0  0.41428  0.01223  0.73270  1.0000
  C   C839      1.0  0.41895  0.00898  0.76130  1.0000
  C   C840      1.0  0.49180  0.14850  0.88413  1.0000
  H   H990      1.0  0.41833  0.02482  0.72595  1.0000
  H   H991      1.0  0.49952  0.05282  0.76702  1.0000
  C   C841      1.0  0.55280  0.09251  0.75976  1.0000
  C   C842      1.0  0.55150  0.09337  0.79071  1.0000
  C   C843      1.0  0.53648  0.09231  0.80242  1.0000
  C   C844      1.0  0.52246  0.09011  0.78347  1.0000
  C   C845      1.0  0.52366  0.08890  0.75255  1.0000
  C   C846      1.0  0.53877  0.09023  0.74082  1.0000
  H   H992      1.0  0.56218  0.09526  0.80561  1.0000
  H   H993      1.0  0.53575  0.09331  0.82637  1.0000
  H   H994      1.0  0.51305  0.08727  0.73762  1.0000
  H   H995      1.0  0.53958  0.08957  0.71684  1.0000
  C   C847      1.0  0.32884  0.09124  0.59720  1.0000
  C   C848      1.0  0.58004  0.00537  0.76818  1.0000
  C   C849      1.0  0.58431  0.02176  0.76029  1.0000
  C   C850      1.0  0.57602  0.02489  0.73541  1.0000
  C   C851      1.0  0.56317  0.01178  0.71929  1.0000
  H   H996      1.0  0.58643  0.00281  0.78733  1.0000
  H   H997      1.0  0.57941  0.03740  0.72872  1.0000
  C   C852      1.0  0.48549  0.15660  0.90397  1.0000
  C   C853      1.0  0.41360  0.99255  0.76968  1.0000
  H   H998      1.0  0.64395  0.10782  0.61223  1.0000
  C   C854      1.0  0.47386  0.14772  0.92409  1.0000
  C   C855      1.0  0.32189  0.07092  0.54578  1.0000
  H   H999      1.0  0.42312  0.21748  0.56536  1.0000
  H   H1000     1.0  0.33405  0.15707  0.51799  1.0000
  C   C856      1.0  0.49935  0.11157  0.87884  1.0000
  H   H1001     1.0  0.38096  0.20142  0.98604  1.0000
  C   C857      1.0  0.40492  0.22173  0.53704  1.0000
  C   C858      1.0  0.39127  0.21432  0.51653  1.0000
  C   C859      1.0  0.38543  0.19736  0.50861  1.0000
  C   C860      1.0  0.39310  0.18757  0.52105  1.0000
  C   C861      1.0  0.40669  0.19495  0.54166  1.0000
  C   C862      1.0  0.41255  0.21190  0.54951  1.0000
  H   H1002     1.0  0.62811  0.10945  0.52034  1.0000
  H   H1003     1.0  0.50954  0.11910  0.89539  1.0000
  H   H1004     1.0  0.41273  0.18764  0.55155  1.0000
  H   H1005     1.0  0.33902  0.11153  0.50389  1.0000
  Fe  Fe120     1.0  0.41077  0.12433  0.49372  1.0000
  H   H1006     1.0  0.50073  0.14009  0.82871  1.0000
  C   C863      1.0  0.47471  0.12249  0.90485  1.0000
  H   H1007     1.0  0.48835  0.00116  0.76538  1.0000
  C   C864      1.0  0.47818  0.11122  0.84253  1.0000
  C   C865      1.0  0.63567  0.10232  0.52566  1.0000
  H   H1008     1.0  0.50447  0.10509  0.86321  1.0000
  C   C866      1.0  0.63848  0.14036  0.67542  1.0000
  H   H1009     1.0  0.46823  0.10189  0.85487  1.0000
  C   C867      1.0  0.48655  0.13111  0.88398  1.0000
  N   N57       1.0  0.49241  0.12199  0.86258  1.0000
  C   C868      1.0  0.46854  0.13071  0.92461  1.0000
  C   C869      1.0  0.64784  0.15285  0.62843  1.0000
  H   H1010     1.0  0.60604  0.13874  0.62843  1.0000
  H   H1011     1.0  0.38082  0.07516  0.92530  1.0000
  H   H1012     1.0  0.48982  0.10170  0.89098  1.0000
  H   H1013     1.0  0.51665  0.14124  0.85702  1.0000
  C   C870      1.0  0.50364  0.04286  0.76887  1.0000
  H   H1014     1.0  0.61068  0.08047  0.92775  1.0000
  H   H1015     1.0  0.38531  0.22169  0.50661  1.0000
  N   N58       1.0  0.54420  0.03803  0.78543  1.0000
  C   C871      1.0  0.54974  0.04862  0.81323  1.0000
  C   C872      1.0  0.54811  0.02344  0.79026  1.0000
  C   C873      1.0  0.55412  0.04719  0.76071  1.0000
  C   C874      1.0  0.52633  0.03379  0.77807  1.0000
  C   C875      1.0  0.51426  0.01728  0.77401  1.0000
  C   C876      1.0  0.52050  0.04644  0.77480  1.0000
  S   S239      1.0  0.39226  0.13283  0.97884  1.0000
  C   C877      1.0  0.61788  0.08576  0.94849  1.0000
  C   C878      1.0  0.63144  0.14936  0.61887  1.0000
  H   H1016     1.0  0.54170  0.04275  0.83184  1.0000
  H   H1017     1.0  0.56280  0.05102  0.82064  1.0000
  H   H1018     1.0  0.54953  0.06093  0.81034  1.0000
  H   H1019     1.0  0.54119  0.01604  0.80882  1.0000
  H   H1020     1.0  0.56159  0.02708  0.79635  1.0000
  H   H1021     1.0  0.54533  0.01537  0.76965  1.0000
  H   H1022     1.0  0.55280  0.05894  0.75694  1.0000
  H   H1023     1.0  0.56766  0.05048  0.76538  1.0000
  H   H1024     1.0  0.55029  0.03973  0.73930  1.0000
  C   C879      1.0  0.64830  0.11370  0.88656  1.0000
  H   H1025     1.0  0.52895  0.05925  0.77696  1.0000
  C   C880      1.0  0.40414  0.99914  0.71288  1.0000
  N   N59       1.0  0.33314  0.13239  0.51531  1.0000
  C   C881      1.0  0.64395  0.09509  0.97797  1.0000
  H   H1026     1.0  0.33637  0.22665  0.98666  1.0000
  H   H1027     1.0  0.46880  0.15398  0.93916  1.0000
  H   H1028     1.0  0.59794  0.08930  0.96895  1.0000
  H   H1029     1.0  0.32016  0.17729  0.63961  1.0000
  H   H1030     1.0  0.50059  0.15612  0.86892  1.0000
  N   N60       1.0  0.37648  0.07384  0.60432  1.0000
  C   C882      1.0  0.38361  0.06900  0.57826  1.0000
  C   C883      1.0  0.35827  0.06394  0.60286  1.0000
  C   C884      1.0  0.37931  0.09136  0.60111  1.0000
  C   C885      1.0  0.38400  0.07082  0.63259  1.0000
  C   C886      1.0  0.38377  0.05501  0.63780  1.0000
  C   C887      1.0  0.39153  0.08318  0.65571  1.0000
  C   C888      1.0  0.39128  0.05200  0.66384  1.0000
  C   C889      1.0  0.39875  0.07992  0.68186  1.0000
  C   C890      1.0  0.39887  0.06447  0.68570  1.0000
  H   H1031     1.0  0.38038  0.05558  0.57656  1.0000
  H   H1032     1.0  0.37889  0.07205  0.55668  1.0000
  H   H1033     1.0  0.39743  0.07548  0.57957  1.0000
  H   H1034     1.0  0.35221  0.06570  0.58162  1.0000
  H   H1035     1.0  0.35235  0.06746  0.62166  1.0000
  H   H1036     1.0  0.35509  0.05054  0.60391  1.0000
  H   H1037     1.0  0.37417  0.09333  0.57914  1.0000
  H   H1038     1.0  0.37320  0.09567  0.61850  1.0000
  H   H1039     1.0  0.39282  0.09949  0.60233  1.0000
  H   H1040     1.0  0.37797  0.04492  0.62160  1.0000
  H   H1041     1.0  0.39250  0.09563  0.65387  1.0000
  H   H1042     1.0  0.39151  0.04002  0.66695  1.0000
  H   H1043     1.0  0.40496  0.08967  0.69874  1.0000
  H   H1044     1.0  0.40521  0.06230  0.70538  1.0000
  C   C891      1.0  0.61844  0.14122  0.63739  1.0000
  H   H1045     1.0  0.46980  0.10924  0.90564  1.0000
  H   H1046     1.0  0.51750  0.00682  0.77557  1.0000
  C   C892      1.0  0.49740  0.01382  0.76797  1.0000
  C   C893      1.0  0.32821  0.23054  0.57049  1.0000
  H   H1047     1.0  0.35666  0.14266  0.54092  1.0000
  H   H1048     1.0  0.50973  0.12542  0.82796  1.0000
  H   H1049     1.0  0.48679  0.99434  0.69169  1.0000
  H   H1050     1.0  0.33165  0.09907  0.61726  1.0000
  N   N61       1.0  0.60817  0.12681  0.68583  1.0000
  C   C894      1.0  0.60854  0.11049  0.69027  1.0000
  C   C895      1.0  0.61071  0.13557  0.71539  1.0000
  C   C896      1.0  0.59121  0.12395  0.67358  1.0000
  C   C897      1.0  0.62159  0.13633  0.66626  1.0000
  H   H1051     1.0  0.48948  0.16984  0.90353  1.0000
  H   H1052     1.0  0.37496  0.19186  0.49256  1.0000
  H   H1053     1.0  0.63995  0.08403  0.93352  1.0000
  H   H1054     1.0  0.64187  0.13675  0.69677  1.0000
  H   H1055     1.0  0.37856  0.04698  0.93391  1.0000
  H   H1056     1.0  0.62023  0.11143  0.70235  1.0000
  H   H1057     1.0  0.59811  0.10259  0.70360  1.0000
  H   H1058     1.0  0.60749  0.10380  0.66849  1.0000
  H   H1059     1.0  0.62248  0.13691  0.72756  1.0000
  H   H1060     1.0  0.60056  0.12881  0.73040  1.0000
  H   H1061     1.0  0.61104  0.14814  0.71294  1.0000
  H   H1062     1.0  0.58794  0.11646  0.65222  1.0000
  H   H1063     1.0  0.58150  0.11695  0.68921  1.0000
  H   H1064     1.0  0.58995  0.13576  0.66999  1.0000
  H   H1065     1.0  0.64136  0.10647  0.54876  1.0000
  H   H1066     1.0  0.62881  0.15283  0.59679  1.0000
  H   H1067     1.0  0.40045  0.00177  0.69092  1.0000
  H   H1068     1.0  0.45932  0.12384  0.94011  1.0000
  H   H1069     1.0  0.55663  0.01433  0.70037  1.0000
  H   H1070     1.0  0.35005  0.15521  0.49764  1.0000
  C   C898      1.0  0.34317  0.13534  0.54398  1.0000
  H   H1071     1.0  0.33027  0.21946  0.57368  1.0000
  N   N62       1.0  0.40066  0.04348  0.84159  1.0000
  C   C899      1.0  0.39326  0.04370  0.81122  1.0000
  C   C900      1.0  0.41891  0.05270  0.84153  1.0000
  C   C901      1.0  0.39728  0.02605  0.84757  1.0000
  C   C902      1.0  0.39416  0.05148  0.86400  1.0000
  C   C903      1.0  0.38788  0.04415  0.89130  1.0000
  C   C904      1.0  0.39506  0.06762  0.85981  1.0000
  C   C905      1.0  0.38301  0.05260  0.91296  1.0000
  C   C906      1.0  0.39000  0.07585  0.88148  1.0000
  C   C907      1.0  0.38416  0.06845  0.90813  1.0000
  H   H1072     1.0  0.39705  0.05637  0.80306  1.0000
  H   H1073     1.0  0.39737  0.03699  0.79427  1.0000
  H   H1074     1.0  0.37944  0.03788  0.81081  1.0000
  H   H1075     1.0  0.42446  0.04686  0.82570  1.0000
  H   H1076     1.0  0.42496  0.05323  0.86411  1.0000
  H   H1077     1.0  0.42241  0.06558  0.83473  1.0000
  H   H1078     1.0  0.38371  0.01846  0.84852  1.0000
  H   H1079     1.0  0.40190  0.02031  0.82970  1.0000
  H   H1080     1.0  0.40382  0.02498  0.86873  1.0000
  H   H1081     1.0  0.38687  0.03202  0.89674  1.0000
  H   H1082     1.0  0.40032  0.07432  0.84026  1.0000
  N   N63       1.0  0.64855  0.10473  0.50382  1.0000
  H   H1083     1.0  0.39118  0.08832  0.87806  1.0000
  H   H1084     1.0  0.62703  0.08910  0.52620  1.0000
  H   H1085     1.0  0.47235  0.11850  0.83024  1.0000
  H   H1086     1.0  0.47900  0.02388  0.76133  1.0000
  C   C908      1.0  0.50547  0.13277  0.84338  1.0000
  C   C909      1.0  0.61078  0.09082  0.97169  1.0000
  H   H1087     1.0  0.33918  0.14225  0.56061  1.0000
  H   H1088     1.0  0.64529  0.13250  0.91364  1.0000
  H   H1089     1.0  0.34217  0.12367  0.55401  1.0000
  H   H1090     1.0  0.63507  0.10066  0.66383  1.0000
  C   C910      1.0  0.55879  0.99540  0.72741  1.0000
  H   H1091     1.0  0.31868  0.14922  0.63913  1.0000
  C   C911      1.0  0.63438  0.08776  0.95176  1.0000
  H   H1092     1.0  0.46378  0.00007  0.70874  1.0000
  C   C912      1.0  0.64792  0.10827  0.66025  1.0000
  H   H1093     1.0  0.43968  0.17690  0.49294  1.0000
  C   C913      1.0  0.33894  0.12296  0.49431  1.0000
  C   C914      1.0  0.56743  0.99224  0.75172  1.0000
  H   H1094     1.0  0.42647  0.21304  0.98259  1.0000
  H   H1095     1.0  0.31914  0.06292  0.52592  1.0000
  C   C915      1.0  0.33445  0.24152  0.65027  1.0000
  H   H1096     1.0  0.42350  0.19174  0.48986  1.0000
  H   H1097     1.0  0.42447  0.21953  0.48896  1.0000
  C   C916      1.0  0.65135  0.14849  0.65674  1.0000
  H   H1098     1.0  0.35200  0.13023  0.48836  1.0000
  H   H1099     1.0  0.36591  0.46772  0.43140  1.0000
  Fe  Fe121     1.0  0.48249  0.40061  0.29044  1.0000
  S   S240      1.0  0.46755  0.40576  0.32547  1.0000
  S   S241      1.0  0.51109  0.41419  0.29454  1.0000
  Fe  Fe122     1.0  0.45110  0.37463  0.25727  1.0000
  S   S242      1.0  0.43441  0.37897  0.29003  1.0000
  S   S243      1.0  0.43425  0.35438  0.22339  1.0000
  Fe  Fe123     1.0  0.45048  0.40572  0.28665  1.0000
  S   S244      1.0  0.44173  0.42643  0.28648  1.0000
  Fe  Fe124     1.0  0.45255  0.37831  0.32644  1.0000
  S   S245      1.0  0.44109  0.36655  0.37026  1.0000
  S   S246      1.0  0.46596  0.40179  0.25130  1.0000
  S   S247      1.0  0.46873  0.37279  0.29404  1.0000
  S   S248      1.0  0.39559  0.47782  0.15396  1.0000
  Fe  Fe125     1.0  0.36176  0.46527  0.21452  1.0000
  S   S249      1.0  0.36049  0.44917  0.17418  1.0000
  S   S250      1.0  0.33862  0.45208  0.24141  1.0000
  Fe  Fe126     1.0  0.38772  0.45623  0.18399  1.0000
  S   S251      1.0  0.39571  0.43503  0.18133  1.0000
  Fe  Fe127     1.0  0.36809  0.47175  0.14731  1.0000
  S   S252      1.0  0.35470  0.47371  0.10333  1.0000
  S   S253      1.0  0.38875  0.47088  0.22588  1.0000
  H   H1100     1.0  0.53527  0.45116  0.19642  1.0000
  Fe  Fe128     1.0  0.41886  0.30434  0.06265  1.0000
  S   S254      1.0  0.40258  0.30985  0.02799  1.0000
  S   S255      1.0  0.43789  0.32476  0.09383  1.0000
  Fe  Fe129     1.0  0.40765  0.26829  0.03873  1.0000
  C   C917      1.0  0.46236  0.35012  0.47967  1.0000
  H   H1101     1.0  0.32287  0.46427  0.47604  1.0000
  S   S256      1.0  0.42049  0.30112  0.44633  1.0000
  Fe  Fe130     1.0  0.38310  0.28483  0.03755  1.0000
  S   S257      1.0  0.35532  0.27868  0.03492  1.0000
  S   S258      1.0  0.42924  0.29211  0.02898  1.0000
  S   S259      1.0  0.39855  0.28035  0.07466  1.0000
  C   C918      1.0  0.34074  0.26707  0.06055  1.0000
  C   C919      1.0  0.33022  0.42999  0.05541  1.0000
  H   H1102     1.0  0.48043  0.34392  0.41679  1.0000
  C   C920      1.0  0.33279  0.45184  0.27920  1.0000
  C   C921      1.0  0.34253  0.46361  0.30120  1.0000
  C   C922      1.0  0.54862  0.42668  0.23717  1.0000
  H   H1103     1.0  0.35417  0.47323  0.29553  1.0000
  C   C923      1.0  0.32197  0.43430  0.03155  1.0000
  C   C924      1.0  0.34225  0.45821  0.07600  1.0000
  C   C925      1.0  0.33396  0.46253  0.05222  1.0000
  C   C926      1.0  0.53784  0.43165  0.22062  1.0000
  S   S260      1.0  0.56170  0.48790  0.26774  1.0000
  C   C927      1.0  0.39691  0.31274  0.36945  1.0000
  C   C928      1.0  0.43663  0.33260  0.13009  1.0000
  C   C929      1.0  0.42176  0.32728  0.14473  1.0000
  C   C930      1.0  0.42137  0.33405  0.17330  1.0000
  C   C931      1.0  0.43579  0.34619  0.18764  1.0000
  C   C932      1.0  0.45067  0.35152  0.17307  1.0000
  C   C933      1.0  0.45105  0.34478  0.14444  1.0000
  H   H1104     1.0  0.41058  0.31795  0.13399  1.0000
  H   H1105     1.0  0.40977  0.32982  0.18429  1.0000
  H   H1106     1.0  0.46190  0.36078  0.18381  1.0000
  H   H1107     1.0  0.46263  0.34896  0.13335  1.0000
  C   C934      1.0  0.43565  0.34822  0.39098  1.0000
  C   C935      1.0  0.42608  0.34645  0.41612  1.0000
  C   C936      1.0  0.42140  0.33227  0.43335  1.0000
  C   C937      1.0  0.42636  0.31962  0.42593  1.0000
  C   C938      1.0  0.43594  0.32139  0.40079  1.0000
  C   C939      1.0  0.44056  0.33555  0.38346  1.0000
  H   H1108     1.0  0.42216  0.35611  0.42219  1.0000
  H   H1109     1.0  0.41366  0.33102  0.45200  1.0000
  H   H1110     1.0  0.43981  0.31171  0.39465  1.0000
  H   H1111     1.0  0.44811  0.33674  0.36457  1.0000
  C   C940      1.0  0.42909  0.42862  0.25682  1.0000
  C   C941      1.0  0.42727  0.44354  0.25464  1.0000
  C   C942      1.0  0.41704  0.44565  0.23158  1.0000
  C   C943      1.0  0.40846  0.43276  0.21073  1.0000
  C   C944      1.0  0.41010  0.41776  0.21313  1.0000
  C   C945      1.0  0.42046  0.41570  0.23604  1.0000
  H   H1112     1.0  0.43391  0.45355  0.27074  1.0000
  H   H1113     1.0  0.41594  0.45728  0.22975  1.0000
  H   H1114     1.0  0.40343  0.40778  0.19704  1.0000
  H   H1115     1.0  0.42175  0.40415  0.23775  1.0000
  C   C946      1.0  0.54729  0.46814  0.27887  1.0000
  C   C947      1.0  0.55189  0.45829  0.29820  1.0000
  C   C948      1.0  0.54055  0.44203  0.30331  1.0000
  C   C949      1.0  0.52423  0.43547  0.29010  1.0000
  C   C950      1.0  0.51936  0.44560  0.27196  1.0000
  C   C951      1.0  0.53086  0.46169  0.26615  1.0000
  H   H1116     1.0  0.56426  0.46301  0.30882  1.0000
  H   H1117     1.0  0.54449  0.43440  0.31748  1.0000
  H   H1118     1.0  0.50692  0.44083  0.26153  1.0000
  H   H1119     1.0  0.52705  0.46912  0.25126  1.0000
  C   C952      1.0  0.46100  0.36481  0.47079  1.0000
  H   H1120     1.0  0.43721  0.34329  0.28191  1.0000
  H   H1121     1.0  0.34660  0.43828  0.09546  1.0000
  C   C953      1.0  0.32371  0.26045  0.05170  1.0000
  H   H1122     1.0  0.40796  0.33840  0.26084  1.0000
  C   C954      1.0  0.35434  0.43042  0.32173  1.0000
  C   C955      1.0  0.41554  0.31341  0.26699  1.0000
  C   C956      1.0  0.34028  0.42353  0.33844  1.0000
  C   C957      1.0  0.40540  0.29736  0.32202  1.0000
  H   H1123     1.0  0.43946  0.33006  0.30996  1.0000
  S   S261      1.0  0.39118  0.27187  0.00227  1.0000
  C   C958      1.0  0.33103  0.46960  0.45730  1.0000
  C   C959      1.0  0.47378  0.36433  0.42432  1.0000
  H   H1124     1.0  0.33054  0.45051  0.13830  1.0000
  H   H1125     1.0  0.34446  0.47257  0.34699  1.0000
  Fe  Fe131     1.0  0.41191  0.29670  0.99490  1.0000
  H   H1126     1.0  0.46498  0.38266  0.43666  1.0000
  H   H1127     1.0  0.59690  0.45292  0.19867  1.0000
  H   H1128     1.0  0.56420  0.46986  0.20392  1.0000
  H   H1129     1.0  0.59107  0.45573  0.28025  1.0000
  H   H1130     1.0  0.33809  0.43082  0.35608  1.0000
  H   H1131     1.0  0.39370  0.42313  0.27120  1.0000
  C   C960      1.0  0.33128  0.39814  0.30904  1.0000
  H   H1132     1.0  0.32821  0.48003  0.16116  1.0000
  H   H1133     1.0  0.39423  0.45009  0.27446  1.0000
  C   C961      1.0  0.46662  0.37174  0.44351  1.0000
  C   C962      1.0  0.35542  0.47164  0.43226  1.0000
  H   H1134     1.0  0.36246  0.44308  0.32742  1.0000
  H   H1135     1.0  0.34686  0.39714  0.27478  1.0000
  H   H1136     1.0  0.42007  0.32092  0.24699  1.0000
  H   H1137     1.0  0.47069  0.33133  0.46362  1.0000
  N   N64       1.0  0.42716  0.38786  0.15310  1.0000
  C   C963      1.0  0.41981  0.37920  0.18029  1.0000
  C   C964      1.0  0.41404  0.38197  0.12837  1.0000
  C   C965      1.0  0.44073  0.38300  0.14476  1.0000
  C   C966      1.0  0.43384  0.40587  0.15948  1.0000
  C   C967      1.0  0.42706  0.41622  0.14554  1.0000
  C   C968      1.0  0.44711  0.41345  0.18135  1.0000
  C   C969      1.0  0.43317  0.43302  0.15338  1.0000
  C   C970      1.0  0.45305  0.43023  0.18916  1.0000
  C   C971      1.0  0.44606  0.43999  0.17523  1.0000
  H   H1138     1.0  0.40965  0.38260  0.18752  1.0000
  H   H1139     1.0  0.41463  0.36558  0.17658  1.0000
  H   H1140     1.0  0.42914  0.38223  0.19951  1.0000
  H   H1141     1.0  0.41878  0.38807  0.10720  1.0000
  H   H1142     1.0  0.40288  0.38416  0.13395  1.0000
  H   H1143     1.0  0.40959  0.36845  0.12370  1.0000
  H   H1144     1.0  0.44989  0.38459  0.16375  1.0000
  H   H1145     1.0  0.43590  0.36973  0.13753  1.0000
  H   H1146     1.0  0.44758  0.39031  0.12605  1.0000
  H   H1147     1.0  0.41672  0.41163  0.12911  1.0000
  H   H1148     1.0  0.45268  0.40634  0.19322  1.0000
  H   H1149     1.0  0.42738  0.44057  0.14332  1.0000
  H   H1150     1.0  0.46279  0.43557  0.20676  1.0000
  H   H1151     1.0  0.45035  0.45289  0.18191  1.0000
  H   H1152     1.0  0.40456  0.34228  0.29814  1.0000
  H   H1153     1.0  0.59250  0.47917  0.19696  1.0000
  N   N65       1.0  0.58981  0.46412  0.23536  1.0000
  C   C972      1.0  0.45772  0.49156  0.21735  1.0000
  C   C973      1.0  0.40385  0.33225  0.28224  1.0000
  N   N66       1.0  0.37217  0.42799  0.28007  1.0000
  C   C974      1.0  0.57198  0.45314  0.22980  1.0000
  C   C975      1.0  0.56062  0.45780  0.21290  1.0000
  H   H1154     1.0  0.35975  0.24638  0.05925  1.0000
  H   H1155     1.0  0.33587  0.48320  0.46000  1.0000
  C   C976      1.0  0.32388  0.45068  0.03015  1.0000
  H   H1156     1.0  0.43120  0.34485  0.31901  1.0000
  C   C977      1.0  0.43126  0.33597  0.30127  1.0000
  H   H1157     1.0  0.34579  0.44023  0.44659  1.0000
  H   H1158     1.0  0.36081  0.48528  0.43505  1.0000
  C   C978      1.0  0.60019  0.45615  0.22293  1.0000
  H   H1159     1.0  0.37761  0.43318  0.23390  1.0000
  H   H1160     1.0  0.40324  0.30343  0.26015  1.0000
  H   H1161     1.0  0.32910  0.44297  0.42701  1.0000
  H   H1162     1.0  0.39120  0.29015  0.39210  1.0000
  C   C979      1.0  0.54384  0.44712  0.20837  1.0000
  C   C980      1.0  0.33694  0.46321  0.33041  1.0000
  C   C981      1.0  0.56546  0.43716  0.24155  1.0000
  H   H1163     1.0  0.54372  0.41485  0.24755  1.0000
  H   H1164     1.0  0.39060  0.32352  0.27855  1.0000
  H   H1165     1.0  0.59864  0.44467  0.23434  1.0000
  H   H1166     1.0  0.34847  0.46854  0.40996  1.0000
  H   H1167     1.0  0.42470  0.30797  0.27200  1.0000
  H   H1168     1.0  0.57323  0.43277  0.25491  1.0000
  C   C982      1.0  0.38221  0.41811  0.28386  1.0000
  C   C983      1.0  0.47525  0.34987  0.43221  1.0000
  H   H1169     1.0  0.38616  0.41799  0.30779  1.0000
  C   C984      1.0  0.34568  0.26412  0.08917  1.0000
  H   H1170     1.0  0.40523  0.33430  0.34431  1.0000
  H   H1171     1.0  0.35874  0.26927  0.09634  1.0000
  C   C985      1.0  0.39525  0.29656  0.37162  1.0000
  C   C986      1.0  0.46957  0.34275  0.45936  1.0000
  H   H1172     1.0  0.52469  0.42371  0.21828  1.0000
  C   C987      1.0  0.40733  0.31395  0.31920  1.0000
  H   H1173     1.0  0.39411  0.31883  0.38829  1.0000
  C   C988      1.0  0.38321  0.44539  0.28841  1.0000
  H   H1174     1.0  0.39845  0.27639  0.35008  1.0000
  H   H1175     1.0  0.44774  0.47936  0.21713  1.0000
  C   C989      1.0  0.35736  0.42122  0.29814  1.0000
  C   C990      1.0  0.40312  0.32144  0.34393  1.0000
  C   C991      1.0  0.34541  0.40483  0.29241  1.0000
  H   H1176     1.0  0.37536  0.40514  0.27554  1.0000
  H   H1177     1.0  0.47769  0.36953  0.40283  1.0000
  N   N67       1.0  0.34445  0.46354  0.45657  1.0000
  S   S262      1.0  0.36788  0.48780  0.18697  1.0000
  C   C992      1.0  0.39947  0.28889  0.34797  1.0000
  H   H1178     1.0  0.37656  0.45363  0.28502  1.0000
  H   H1179     1.0  0.40867  0.29076  0.30479  1.0000
  H   H1180     1.0  0.36016  0.41450  0.23864  1.0000
  C   C993      1.0  0.36683  0.42727  0.24799  1.0000
  H   H1181     1.0  0.35845  0.43374  0.24444  1.0000
  H   H1182     1.0  0.38825  0.44683  0.31201  1.0000
  H   H1183     1.0  0.33538  0.47516  0.05079  1.0000
  N   N68       1.0  0.41432  0.32359  0.29274  1.0000
  H   H1184     1.0  0.45523  0.37087  0.48457  1.0000
  H   H1185     1.0  0.32883  0.41736  0.05679  1.0000
  C   C994      1.0  0.34028  0.44182  0.07747  1.0000
  C   C995      1.0  0.33646  0.44562  0.44875  1.0000
  C   C996      1.0  0.59387  0.46719  0.26800  1.0000
  H   H1186     1.0  0.32303  0.46624  0.43614  1.0000
  H   H1187     1.0  0.32565  0.47551  0.12164  1.0000
  C   C997      1.0  0.32872  0.40750  0.33198  1.0000
  H   H1188     1.0  0.33759  0.25247  0.13083  1.0000
  C   C998      1.0  0.35421  0.46753  0.48563  1.0000
  H   H1189     1.0  0.32947  0.45549  0.17667  1.0000
  H   H1190     1.0  0.47626  0.48372  0.23517  1.0000
  S   S263      1.0  0.40500  0.24250  0.05282  1.0000
  H   H1191     1.0  0.32221  0.38569  0.30397  1.0000
  C   C999      1.0  0.32174  0.44906  0.15618  1.0000
  C   C1000     1.0  0.33367  0.25461  0.10868  1.0000
  H   H1192     1.0  0.32761  0.43885  0.46569  1.0000
  C   C1001     1.0  0.32166  0.45098  0.33823  1.0000
  C   C1002     1.0  0.59466  0.48042  0.22171  1.0000
  H   H1193     1.0  0.34416  0.24535  0.00954  1.0000
  H   H1194     1.0  0.31977  0.26274  0.02965  1.0000
  H   H1195     1.0  0.58664  0.47362  0.27791  1.0000
  H   H1196     1.0  0.60730  0.47505  0.27307  1.0000
  H   H1197     1.0  0.61369  0.46438  0.22545  1.0000
  H   H1198     1.0  0.58767  0.48734  0.23082  1.0000
  C   C1003     1.0  0.31881  0.47372  0.14251  1.0000
  H   H1199     1.0  0.60810  0.48845  0.22654  1.0000
  H   H1200     1.0  0.37373  0.24203  0.03766  1.0000
  H   H1201     1.0  0.43835  0.24184  0.09102  1.0000
  S   S264      1.0  0.56885  0.48020  0.80739  1.0000
  Fe  Fe132     1.0  0.47997  0.39873  0.77588  1.0000
  S   S265      1.0  0.46681  0.40151  0.81625  1.0000
  S   S266      1.0  0.50316  0.41840  0.75681  1.0000
  Fe  Fe133     1.0  0.45136  0.36542  0.75562  1.0000
  S   S267      1.0  0.43638  0.36634  0.79449  1.0000
  S   S268      1.0  0.43743  0.34148  0.72788  1.0000
  Fe  Fe134     1.0  0.44404  0.39302  0.78487  1.0000
  S   S269      1.0  0.42485  0.40382  0.78791  1.0000
  Fe  Fe135     1.0  0.46006  0.37438  0.82284  1.0000
  S   S270      1.0  0.46184  0.36467  0.86962  1.0000
  S   S271      1.0  0.45719  0.39159  0.74407  1.0000
  S   S272      1.0  0.47502  0.37213  0.78455  1.0000
  S   S273      1.0  0.39445  0.47606  0.65540  1.0000
  Fe  Fe136     1.0  0.36493  0.45892  0.72131  1.0000
  S   S274      1.0  0.36441  0.44346  0.68023  1.0000
  S   S275      1.0  0.34711  0.44335  0.75577  1.0000
  Fe  Fe137     1.0  0.39230  0.45536  0.68568  1.0000
  S   S276      1.0  0.41010  0.44292  0.68076  1.0000
  Fe  Fe138     1.0  0.36633  0.46532  0.65373  1.0000
  S   S277      1.0  0.34948  0.46546  0.61285  1.0000
  S   S278      1.0  0.39289  0.46926  0.72814  1.0000
  H   H1202     1.0  0.43417  0.34816  0.50285  1.0000
  Fe  Fe139     1.0  0.41526  0.30055  0.56006  1.0000
  S   S279      1.0  0.39886  0.30470  0.52397  1.0000
  S   S280      1.0  0.43291  0.32337  0.58798  1.0000
  Fe  Fe140     1.0  0.40595  0.26462  0.53643  1.0000
  C   C1004     1.0  0.33714  0.43515  0.58063  1.0000
  N   N69       1.0  0.44777  0.48961  0.71860  1.0000
  S   S281      1.0  0.41469  0.30458  0.94577  1.0000
  Fe  Fe141     1.0  0.38022  0.27924  0.53383  1.0000
  S   S282      1.0  0.35352  0.27629  0.53925  1.0000
  S   S283      1.0  0.42657  0.28907  0.52740  1.0000
  S   S284      1.0  0.39596  0.27598  0.57212  1.0000
  C   C1005     1.0  0.33820  0.25869  0.55424  1.0000
  H   H1203     1.0  0.48167  0.34215  0.79839  1.0000
  H   H1204     1.0  0.43098  0.29581  0.82239  1.0000
  C   C1006     1.0  0.33497  0.44481  0.78583  1.0000
  C   C1007     1.0  0.34067  0.24427  0.55836  1.0000
  C   C1008     1.0  0.41017  0.36772  0.72535  1.0000
  Fe  Fe142     1.0  0.40927  0.29214  0.49181  1.0000
  H   H1205     1.0  0.47786  0.36015  0.53353  1.0000
  C   C1009     1.0  0.33762  0.45105  0.58338  1.0000
  C   C1010     1.0  0.43611  0.48723  0.69233  1.0000
  H   H1206     1.0  0.38189  0.33452  0.92088  1.0000
  H   H1207     1.0  0.43705  0.29022  0.91599  1.0000
  H   H1208     1.0  0.40197  0.38641  0.88660  1.0000
  C   C1011     1.0  0.43377  0.32817  0.62691  1.0000
  C   C1012     1.0  0.42329  0.31717  0.64652  1.0000
  C   C1013     1.0  0.42467  0.32146  0.67732  1.0000
  C   C1014     1.0  0.43645  0.33679  0.68887  1.0000
  C   C1015     1.0  0.44683  0.34784  0.66922  1.0000
  C   C1016     1.0  0.44549  0.34354  0.63844  1.0000
  H   H1209     1.0  0.41427  0.30529  0.63802  1.0000
  H   H1210     1.0  0.41660  0.31278  0.69230  1.0000
  H   H1211     1.0  0.45610  0.35959  0.67774  1.0000
  H   H1212     1.0  0.45373  0.35210  0.62350  1.0000
  C   C1017     1.0  0.44811  0.34830  0.89083  1.0000
  C   C1018     1.0  0.45325  0.34641  0.92026  1.0000
  C   C1019     1.0  0.44309  0.33343  0.93771  1.0000
  C   C1020     1.0  0.42763  0.32201  0.92586  1.0000
  C   C1021     1.0  0.42246  0.32400  0.89650  1.0000
  C   C1022     1.0  0.43251  0.33708  0.87920  1.0000
  H   H1213     1.0  0.46526  0.35495  0.92962  1.0000
  H   H1214     1.0  0.44735  0.33207  0.96012  1.0000
  H   H1215     1.0  0.41057  0.31526  0.88702  1.0000
  H   H1216     1.0  0.42820  0.33830  0.85680  1.0000
  C   C1023     1.0  0.42146  0.41533  0.75846  1.0000
  C   C1024     1.0  0.43017  0.41772  0.73237  1.0000
  C   C1025     1.0  0.42662  0.42624  0.70877  1.0000
  C   C1026     1.0  0.41448  0.43262  0.71118  1.0000
  C   C1027     1.0  0.40604  0.43056  0.73752  1.0000
  C   C1028     1.0  0.40945  0.42186  0.76097  1.0000
  H   H1217     1.0  0.43957  0.41294  0.73027  1.0000
  H   H1218     1.0  0.43321  0.42781  0.68847  1.0000
  H   H1219     1.0  0.39664  0.43539  0.73966  1.0000
  H   H1220     1.0  0.40266  0.42009  0.78107  1.0000
  C   C1029     1.0  0.55059  0.46316  0.79267  1.0000
  C   C1030     1.0  0.54623  0.46026  0.76199  1.0000
  C   C1031     1.0  0.53172  0.44656  0.75160  1.0000
  C   C1032     1.0  0.52132  0.43550  0.77158  1.0000
  C   C1033     1.0  0.52570  0.43834  0.80225  1.0000
  C   C1034     1.0  0.54023  0.45204  0.81264  1.0000
  H   H1221     1.0  0.55421  0.46836  0.74618  1.0000
  H   H1222     1.0  0.52860  0.44443  0.72783  1.0000
  H   H1223     1.0  0.51796  0.42993  0.81795  1.0000
  H   H1224     1.0  0.54351  0.45399  0.83639  1.0000
  C   C1035     1.0  0.44199  0.29650  0.89577  1.0000
  C   C1036     1.0  0.51393  0.47352  0.80359  1.0000
  H   H1225     1.0  0.43455  0.37018  0.69299  1.0000
  C   C1037     1.0  0.42388  0.37684  0.86190  1.0000
  C   C1038     1.0  0.46340  0.31861  0.87153  1.0000
  C   C1039     1.0  0.35622  0.45534  0.50356  1.0000
  H   H1226     1.0  0.32126  0.27041  0.55946  1.0000
  C   C1040     1.0  0.41789  0.36897  0.91306  1.0000
  C   C1041     1.0  0.42704  0.37660  0.68331  1.0000
  H   H1227     1.0  0.43990  0.37468  0.94379  1.0000
  C   C1042     1.0  0.45941  0.32822  0.51542  1.0000
  C   C1043     1.0  0.44887  0.32954  0.80402  1.0000
  C   C1044     1.0  0.43874  0.30001  0.84279  1.0000
  H   H1228     1.0  0.44897  0.30099  0.78545  1.0000
  H   H1229     1.0  0.44800  0.33861  0.82057  1.0000
  H   H1230     1.0  0.41671  0.38000  0.73700  1.0000
  H   H1231     1.0  0.44758  0.40409  0.88543  1.0000
  H   H1232     1.0  0.42968  0.38707  0.84650  1.0000
  C   C1045     1.0  0.41518  0.39330  0.89465  1.0000
  H   H1233     1.0  0.45064  0.38692  0.89995  1.0000
  H   H1234     1.0  0.48257  0.43848  0.77457  1.0000
  C   C1046     1.0  0.42710  0.36659  0.93807  1.0000
  H   H1235     1.0  0.42740  0.35126  0.97474  1.0000
  H   H1236     1.0  0.40749  0.34413  0.68719  1.0000
  H   H1237     1.0  0.47505  0.32926  0.87460  1.0000
  N   N70       1.0  0.42487  0.38303  0.89322  1.0000
  C   C1047     1.0  0.33198  0.45886  0.79192  1.0000
  H   H1238     1.0  0.39336  0.38513  0.72539  1.0000
  H   H1239     1.0  0.46027  0.34995  0.55568  1.0000
  H   H1240     1.0  0.47727  0.34596  0.83552  1.0000
  H   H1241     1.0  0.39346  0.35816  0.88923  1.0000
  C   C1048     1.0  0.49582  0.45992  0.74975  1.0000
  H   H1242     1.0  0.41700  0.36013  0.73255  1.0000
  C   C1049     1.0  0.49204  0.45098  0.77558  1.0000
  N   N71       1.0  0.46047  0.32243  0.81557  1.0000
  C   C1050     1.0  0.50102  0.45778  0.80242  1.0000
  H   H1243     1.0  0.37972  0.40198  0.70614  1.0000
  S   S285      1.0  0.36575  0.48048  0.69459  1.0000
  H   H1244     1.0  0.41089  0.36996  0.85279  1.0000
  C   C1051     1.0  0.32735  0.43095  0.80317  1.0000
  H   H1245     1.0  0.45288  0.31794  0.49859  1.0000
  C   C1052     1.0  0.40127  0.35714  0.90766  1.0000
  C   C1053     1.0  0.44623  0.47308  0.72774  1.0000
  H   H1246     1.0  0.43041  0.36847  0.86025  1.0000
  H   H1247     1.0  0.42029  0.40419  0.88039  1.0000
  H   H1248     1.0  0.43285  0.33334  0.52998  1.0000
  C   C1054     1.0  0.34380  0.27422  0.63478  1.0000
  C   C1055     1.0  0.38506  0.39618  0.69070  1.0000
  S   S286      1.0  0.38921  0.26672  0.49859  1.0000
  H   H1249     1.0  0.33056  0.43969  0.65453  1.0000
  C   C1056     1.0  0.32789  0.42441  0.55643  1.0000
  H   H1250     1.0  0.37904  0.40736  0.65244  1.0000
  H   H1251     1.0  0.43608  0.32007  0.79879  1.0000
  H   H1252     1.0  0.39874  0.33087  0.96344  1.0000
  H   H1253     1.0  0.36398  0.27158  0.61320  1.0000
  H   H1254     1.0  0.47295  0.33109  0.51639  1.0000
  H   H1255     1.0  0.40500  0.37695  0.63464  1.0000
  H   H1256     1.0  0.45300  0.33601  0.78291  1.0000
  H   H1257     1.0  0.43319  0.38979  0.69093  1.0000
  H   H1258     1.0  0.32780  0.41223  0.55439  1.0000
  H   H1259     1.0  0.49844  0.45049  0.82218  1.0000
  H   H1260     1.0  0.43969  0.48180  0.67267  1.0000
  H   H1261     1.0  0.41524  0.39787  0.91800  1.0000
  C   C1057     1.0  0.32967  0.26651  0.65100  1.0000
  C   C1058     1.0  0.39957  0.38212  0.65091  1.0000
  H   H1262     1.0  0.42060  0.28134  0.86796  1.0000
  H   H1263     1.0  0.48916  0.45429  0.72875  1.0000
  H   H1264     1.0  0.43141  0.32778  0.49120  1.0000
  N   N72       1.0  0.40961  0.36911  0.69235  1.0000
  H   H1265     1.0  0.46936  0.30443  0.80088  1.0000
  C   C1059     1.0  0.45728  0.30997  0.89719  1.0000
  H   H1266     1.0  0.32947  0.41998  0.79869  1.0000
  H   H1267     1.0  0.46048  0.36594  0.53229  1.0000
  H   H1268     1.0  0.34407  0.43119  0.59688  1.0000
  H   H1269     1.0  0.33765  0.46961  0.77882  1.0000
  H   H1270     1.0  0.32270  0.27363  0.65675  1.0000
  H   H1271     1.0  0.34730  0.28677  0.62798  1.0000
  H   H1272     1.0  0.32844  0.46349  0.70226  1.0000
  H   H1273     1.0  0.39749  0.36168  0.73374  1.0000
  C   C1060     1.0  0.39301  0.38640  0.70147  1.0000
  H   H1274     1.0  0.44425  0.39968  0.92395  1.0000
  H   H1275     1.0  0.35054  0.44237  0.49731  1.0000
  H   H1276     1.0  0.48669  0.33161  0.82827  1.0000
  C   C1061     1.0  0.43270  0.29157  0.86866  1.0000
  C   C1062     1.0  0.35329  0.26571  0.62651  1.0000
  H   H1277     1.0  0.46415  0.31408  0.91862  1.0000
  H   H1278     1.0  0.42795  0.37595  0.65871  1.0000
  H   H1279     1.0  0.40204  0.35194  0.65402  1.0000
  H   H1280     1.0  0.38809  0.34639  0.68391  1.0000
  C   C1063     1.0  0.40064  0.37914  0.68181  1.0000
  C   C1064     1.0  0.47726  0.33609  0.81975  1.0000
  C   C1065     1.0  0.38464  0.39921  0.66038  1.0000
  C   C1066     1.0  0.51801  0.48306  0.77769  1.0000
  H   H1281     1.0  0.51110  0.48214  0.73007  1.0000
  C   C1067     1.0  0.45434  0.31376  0.84336  1.0000
  C   C1068     1.0  0.44259  0.39387  0.90114  1.0000
  C   C1069     1.0  0.40143  0.35220  0.67874  1.0000
  C   C1070     1.0  0.32317  0.25923  0.56232  1.0000
  H   H1282     1.0  0.39147  0.39458  0.61690  1.0000
  C   C1071     1.0  0.39178  0.39211  0.64048  1.0000
  C   C1072     1.0  0.43789  0.33794  0.50809  1.0000
  H   H1283     1.0  0.47514  0.48188  0.70773  1.0000
  H   H1284     1.0  0.44781  0.46568  0.70873  1.0000
  C   C1073     1.0  0.46406  0.35532  0.53348  1.0000
  S   S287      1.0  0.41339  0.24320  0.54707  1.0000
  C   C1074     1.0  0.32111  0.46201  0.68070  1.0000
  C   C1075     1.0  0.46140  0.31068  0.79248  1.0000
  C   C1076     1.0  0.36527  0.45956  0.53115  1.0000
  C   C1077     1.0  0.34869  0.24945  0.63441  1.0000
  H   H1285     1.0  0.31925  0.46986  0.81927  1.0000
  C   C1078     1.0  0.37232  0.47585  0.54195  1.0000
  H   H1286     1.0  0.45476  0.32331  0.53751  1.0000
  H   H1287     1.0  0.32838  0.43641  0.69359  1.0000
  H   H1288     1.0  0.35218  0.24371  0.55224  1.0000
  H   H1289     1.0  0.36628  0.45003  0.54483  1.0000
  H   H1290     1.0  0.46666  0.31696  0.77169  1.0000
  H   H1291     1.0  0.52079  0.47771  0.82487  1.0000
  H   H1292     1.0  0.43359  0.46557  0.73536  1.0000
  C   C1079     1.0  0.32844  0.45587  0.56189  1.0000
  C   C1080     1.0  0.39446  0.34362  0.92574  1.0000
  N   N73       1.0  0.45612  0.34296  0.50858  1.0000
  C   C1081     1.0  0.50852  0.47576  0.75073  1.0000
  C   C1082     1.0  0.40387  0.34160  0.94990  1.0000
  Fe  Fe143     1.0  0.39391  0.48965  0.69779  1.0000
  H   H1293     1.0  0.33035  0.46786  0.66367  1.0000
  C   C1083     1.0  0.32444  0.24985  0.65903  1.0000
  H   H1294     1.0  0.42325  0.47874  0.69702  1.0000
  H   H1295     1.0  0.32865  0.46810  0.56373  1.0000
  C   C1084     1.0  0.42007  0.35313  0.95622  1.0000
  H   H1296     1.0  0.35592  0.24278  0.62720  1.0000
  C   C1085     1.0  0.36201  0.48409  0.49693  1.0000
  C   C1086     1.0  0.32149  0.45895  0.81491  1.0000
  H   H1297     1.0  0.37870  0.47889  0.56395  1.0000
  C   C1087     1.0  0.32124  0.43521  0.67189  1.0000
  C   C1088     1.0  0.31911  0.44509  0.53782  1.0000
  C   C1089     1.0  0.37079  0.48811  0.52480  1.0000
  H   H1298     1.0  0.45530  0.47400  0.74654  1.0000
  H   H1299     1.0  0.43018  0.48867  0.75154  1.0000
  H   H1300     1.0  0.32210  0.25049  0.71846  1.0000
  C   C1090     1.0  0.31887  0.42929  0.53473  1.0000
  Fe  Fe144     1.0  0.60147  0.54654  0.28686  1.0000
  S   S288      1.0  0.59661  0.52886  0.24757  1.0000
  S   S289      1.0  0.59752  0.57023  0.28607  1.0000
  Fe  Fe145     1.0  0.61676  0.52817  0.32700  1.0000
  S   S290      1.0  0.61280  0.50898  0.29007  1.0000
  S   S291      1.0  0.62748  0.52584  0.37362  1.0000
  Fe  Fe146     1.0  0.62226  0.53029  0.25912  1.0000
  H   H1301     1.0  0.58043  0.64510  0.44437  1.0000
  Fe  Fe147     1.0  0.58724  0.50892  0.28149  1.0000
  S   S292      1.0  0.62773  0.54919  0.29677  1.0000
  S   S293      1.0  0.59065  0.52688  0.32009  1.0000
  Fe  Fe148     1.0  0.52619  0.62653  0.21357  1.0000
  S   S294      1.0  0.54796  0.62619  0.18919  1.0000
  S   S295      1.0  0.52950  0.64864  0.24469  1.0000
  Fe  Fe149     1.0  0.50048  0.59693  0.17561  1.0000
  S   S296      1.0  0.52093  0.59575  0.14890  1.0000
  S   S297      1.0  0.47536  0.57728  0.15678  1.0000
  Fe  Fe150     1.0  0.53524  0.59865  0.19275  1.0000
  S   S298      1.0  0.54431  0.57815  0.19448  1.0000
  Fe  Fe151     1.0  0.53183  0.62328  0.14707  1.0000
  S   S299      1.0  0.54391  0.63483  0.10363  1.0000
  S   S300      1.0  0.51443  0.59894  0.21996  1.0000
  S   S301      1.0  0.51039  0.62455  0.17092  1.0000
  Fe  Fe152     1.0  0.57249  0.69847  0.40507  1.0000
  S   S302      1.0  0.59045  0.69904  0.44324  1.0000
  S   S303      1.0  0.56596  0.67540  0.37422  1.0000
  Fe  Fe153     1.0  0.57127  0.73057  0.42944  1.0000
  H   H1302     1.0  0.57431  0.54794  0.24048  1.0000
  Fe  Fe154     1.0  0.60359  0.72603  0.43576  1.0000
  H   H1303     1.0  0.63206  0.57015  0.42034  1.0000
  H   H1304     1.0  0.54177  0.69339  0.19020  1.0000
  H   H1305     1.0  0.55092  0.64424  0.40383  1.0000
  S   S304      1.0  0.58701  0.72526  0.39571  1.0000
  S   S305      1.0  0.55527  0.70348  0.43597  1.0000
  H   H1306     1.0  0.53472  0.63265  0.42702  1.0000
  S   S306      1.0  0.41612  0.51684  0.21328  1.0000
  C   C1091     1.0  0.45911  0.56050  0.17310  1.0000
  C   C1092     1.0  0.45680  0.56001  0.20384  1.0000
  C   C1093     1.0  0.44354  0.54667  0.21556  1.0000
  C   C1094     1.0  0.43240  0.53353  0.19686  1.0000
  C   C1095     1.0  0.43477  0.53398  0.16614  1.0000
  C   C1096     1.0  0.44794  0.54741  0.15439  1.0000
  H   H1307     1.0  0.46503  0.57007  0.21856  1.0000
  H   H1308     1.0  0.44184  0.54655  0.23934  1.0000
  H   H1309     1.0  0.42637  0.52406  0.15136  1.0000
  H   H1310     1.0  0.44945  0.54762  0.13055  1.0000
  C   C1097     1.0  0.54000  0.65596  0.28051  1.0000
  C   C1098     1.0  0.54774  0.64746  0.29677  1.0000
  C   C1099     1.0  0.55566  0.65368  0.32523  1.0000
  C   C1100     1.0  0.55610  0.66852  0.33780  1.0000
  C   C1101     1.0  0.54850  0.67710  0.32140  1.0000
  C   C1102     1.0  0.54049  0.67083  0.29302  1.0000
  H   H1311     1.0  0.54751  0.63603  0.28757  1.0000
  H   H1312     1.0  0.56150  0.64692  0.33760  1.0000
  H   H1313     1.0  0.54864  0.68847  0.33072  1.0000
  H   H1314     1.0  0.53449  0.67750  0.28080  1.0000
  C   C1103     1.0  0.54588  0.65053  0.07760  1.0000
  C   C1104     1.0  0.55735  0.65352  0.05512  1.0000
  C   C1105     1.0  0.55939  0.66569  0.03388  1.0000
  C   C1106     1.0  0.54988  0.67507  0.03462  1.0000
  C   C1107     1.0  0.53842  0.67209  0.05716  1.0000
  C   C1108     1.0  0.53643  0.65996  0.07848  1.0000
  H   H1315     1.0  0.56475  0.64635  0.05408  1.0000
  H   H1316     1.0  0.56822  0.66773  0.01677  1.0000
  H   H1317     1.0  0.53094  0.67918  0.05799  1.0000
  H   H1318     1.0  0.52748  0.65784  0.09535  1.0000
  C   C1109     1.0  0.64830  0.53603  0.42478  1.0000
  H   H1319     1.0  0.61976  0.52981  0.02888  1.0000
  H   H1320     1.0  0.62595  0.51288  0.03102  1.0000
  H   H1321     1.0  0.58122  0.68346  0.08648  1.0000
  C   C1110     1.0  0.61176  0.53812  0.47995  1.0000
  H   H1322     1.0  0.46397  0.53045  0.20087  1.0000
  N   N74       1.0  0.55775  0.64808  0.45121  1.0000
  C   C1111     1.0  0.57678  0.68947  0.10314  1.0000
  C   C1112     1.0  0.58223  0.57211  0.26137  1.0000
  C   C1113     1.0  0.57993  0.58686  0.26172  1.0000
  C   C1114     1.0  0.56821  0.58890  0.24161  1.0000
  C   C1115     1.0  0.55888  0.57624  0.22081  1.0000
  C   C1116     1.0  0.56120  0.56151  0.22050  1.0000
  C   C1117     1.0  0.57274  0.55939  0.24081  1.0000
  H   H1323     1.0  0.58723  0.59673  0.27762  1.0000
  H   H1324     1.0  0.56651  0.60029  0.24202  1.0000
  H   H1325     1.0  0.55402  0.55166  0.20445  1.0000
  H   H1326     1.0  0.49039  0.54542  0.26484  1.0000
  C   C1118     1.0  0.60498  0.53555  0.45047  1.0000
  H   H1327     1.0  0.55200  0.62684  0.42156  1.0000
  H   H1328     1.0  0.53171  0.66989  0.15309  1.0000
  H   H1329     1.0  0.50837  0.56077  0.19154  1.0000
  H   H1330     1.0  0.56259  0.70027  0.20783  1.0000
  H   H1331     1.0  0.53311  0.65854  0.18505  1.0000
  H   H1332     1.0  0.44189  0.50292  0.20004  1.0000
  H   H1333     1.0  0.64469  0.57478  0.47099  1.0000
  C   C1119     1.0  0.56375  0.68870  0.15080  1.0000
  C   C1120     1.0  0.56453  0.70469  0.14512  1.0000
  H   H1334     1.0  0.60589  0.56317  0.22676  1.0000
  N   N75       1.0  0.64341  0.53413  0.01053  1.0000
  H   H1335     1.0  0.57794  0.66100  0.42309  1.0000
  C   C1121     1.0  0.63273  0.58871  0.15920  1.0000
  C   C1122     1.0  0.54007  0.66548  0.16613  1.0000
  H   H1336     1.0  0.57132  0.72468  0.11477  1.0000
  C   C1123     1.0  0.64195  0.59193  0.13367  1.0000
  H   H1337     1.0  0.54244  0.65656  0.15139  1.0000
  C   C1124     1.0  0.64913  0.54164  0.19177  1.0000
  H   H1338     1.0  0.63519  0.60727  0.22331  1.0000
  C   C1125     1.0  0.56669  0.67269  0.19260  1.0000
  H   H1339     1.0  0.48675  0.54974  0.18318  1.0000
  C   C1126     1.0  0.61220  0.54714  0.42917  1.0000
  N   N76       1.0  0.49470  0.60556  0.06830  1.0000
  C   C1127     1.0  0.50448  0.59546  0.07315  1.0000
  C   C1128     1.0  0.49471  0.61380  0.09736  1.0000
  C   C1129     1.0  0.47737  0.59411  0.05920  1.0000
  C   C1130     1.0  0.50138  0.61814  0.04558  1.0000
  C   C1131     1.0  0.49328  0.62865  0.03825  1.0000
  C   C1132     1.0  0.51616  0.62073  0.03085  1.0000
  H   H1340     1.0  0.53651  0.61537  0.46306  1.0000
  C   C1133     1.0  0.54839  0.63736  0.42492  1.0000
  H   H1341     1.0  0.57900  0.68268  0.19939  1.0000
  H   H1342     1.0  0.51748  0.60319  0.08168  1.0000
  H   H1343     1.0  0.49904  0.58605  0.09020  1.0000
  H   H1344     1.0  0.50484  0.58869  0.05225  1.0000
  H   H1345     1.0  0.50744  0.62304  0.10421  1.0000
  H   H1346     1.0  0.49045  0.60481  0.11542  1.0000
  H   H1347     1.0  0.48631  0.62035  0.09665  1.0000
  H   H1348     1.0  0.47675  0.58805  0.03693  1.0000
  H   H1349     1.0  0.47221  0.58426  0.07562  1.0000
  H   H1350     1.0  0.46876  0.60041  0.05786  1.0000
  H   H1351     1.0  0.48212  0.62759  0.04882  1.0000
  H   H1352     1.0  0.52354  0.61378  0.03557  1.0000
  H   H1353     1.0  0.61720  0.59343  0.24114  1.0000
  H   H1354     1.0  0.55988  0.67128  0.47092  1.0000
  C   C1134     1.0  0.48665  0.50986  0.22830  1.0000
  N   N77       1.0  0.62894  0.58161  0.21325  1.0000
  C   C1135     1.0  0.52232  0.63305  0.01016  1.0000
  H   H1355     1.0  0.49352  0.64920  0.01302  1.0000
  H   H1356     1.0  0.63826  0.55592  0.00596  1.0000
  C   C1136     1.0  0.63907  0.58521  0.18669  1.0000
  H   H1357     1.0  0.56116  0.66630  0.21318  1.0000
  S   S307      1.0  0.64369  0.53438  0.22840  1.0000
  C   C1137     1.0  0.46719  0.52060  0.20834  1.0000
  C   C1138     1.0  0.57005  0.68134  0.12891  1.0000
  C   C1139     1.0  0.63728  0.54121  0.16948  1.0000
  H   H1358     1.0  0.62950  0.73336  0.37656  1.0000
  H   H1359     1.0  0.56885  0.66334  0.17872  1.0000
  H   H1360     1.0  0.63567  0.53076  0.05586  1.0000
  C   C1140     1.0  0.49966  0.64104  0.01774  1.0000
  H   H1361     1.0  0.64994  0.56053  0.36665  1.0000
  H   H1362     1.0  0.63680  0.59439  0.11282  1.0000
  H   H1363     1.0  0.58186  0.71098  0.07746  1.0000
  H   H1364     1.0  0.64064  0.56806  0.23784  1.0000
  H   H1365     1.0  0.51801  0.53499  0.21523  1.0000
  C   C1141     1.0  0.57565  0.65492  0.44498  1.0000
  C   C1142     1.0  0.64408  0.54062  0.39670  1.0000
  H   H1366     1.0  0.49875  0.51091  0.23660  1.0000
  H   H1367     1.0  0.56926  0.66894  0.13089  1.0000
  C   C1143     1.0  0.64216  0.54629  0.14042  1.0000
  C   C1144     1.0  0.63325  0.56399  0.46646  1.0000
  S   S308      1.0  0.55132  0.69021  0.00767  1.0000
  H   H1368     1.0  0.50090  0.54061  0.17383  1.0000
  C   C1145     1.0  0.55516  0.63948  0.47976  1.0000
  H   H1369     1.0  0.60724  0.54484  0.40611  1.0000
  H   H1370     1.0  0.55985  0.71122  0.16017  1.0000
  C   C1146     1.0  0.54374  0.62283  0.48214  1.0000
  C   C1147     1.0  0.57113  0.71263  0.11904  1.0000
  H   H1371     1.0  0.62995  0.57697  0.26030  1.0000
  C   C1148     1.0  0.55139  0.68933  0.19938  1.0000
  H   H1372     1.0  0.62431  0.53651  0.17433  1.0000
  H   H1373     1.0  0.53912  0.65728  0.45970  1.0000
  S   S309      1.0  0.58856  0.73257  0.46905  1.0000
  C   C1149     1.0  0.57716  0.70500  0.09804  1.0000
  N   N78       1.0  0.55567  0.67937  0.17689  1.0000
  C   C1150     1.0  0.55229  0.66178  0.45364  1.0000
  C   C1151     1.0  0.61366  0.56642  0.20703  1.0000
  H   H1374     1.0  0.60562  0.56764  0.18824  1.0000
  H   H1375     1.0  0.53388  0.63516  0.99983  1.0000
  C   C1152     1.0  0.63060  0.52654  0.03244  1.0000
  H   H1376     1.0  0.64162  0.52354  0.43155  1.0000
  H   H1377     1.0  0.50157  0.56365  0.24480  1.0000
  H   H1378     1.0  0.54597  0.68207  0.21926  1.0000
  H   H1379     1.0  0.61679  0.55580  0.20144  1.0000
  N   N79       1.0  0.49667  0.54074  0.22079  1.0000
  C   C1153     1.0  0.51340  0.54183  0.23096  1.0000
  C   C1154     1.0  0.49817  0.54820  0.19109  1.0000
  C   C1155     1.0  0.49198  0.55077  0.24234  1.0000
  C   C1156     1.0  0.48367  0.52369  0.21887  1.0000
  H   H1380     1.0  0.48011  0.55159  0.23519  1.0000
  H   H1381     1.0  0.63286  0.54576  0.12336  1.0000
  H   H1382     1.0  0.52283  0.55480  0.23222  1.0000
  H   H1383     1.0  0.51351  0.53721  0.25385  1.0000
  C   C1157     1.0  0.64852  0.55220  0.01231  1.0000
  C   C1158     1.0  0.62620  0.56140  0.43723  1.0000
  C   C1159     1.0  0.45444  0.50480  0.20771  1.0000
  Fe  Fe155     1.0  0.57391  0.70519  0.47368  1.0000
  H   H1384     1.0  0.55337  0.66821  0.43226  1.0000
  H   H1385     1.0  0.58350  0.66451  0.46196  1.0000
  H   H1386     1.0  0.61556  0.59683  0.20251  1.0000
  C   C1160     1.0  0.62407  0.59540  0.22022  1.0000
  C   C1161     1.0  0.63771  0.57909  0.24055  1.0000
  H   H1387     1.0  0.51942  0.65322  0.98861  1.0000
  C   C1162     1.0  0.51418  0.64326  0.00378  1.0000
  H   H1388     1.0  0.59428  0.52433  0.44380  1.0000
  H   H1389     1.0  0.64942  0.59005  0.24655  1.0000
  H   H1390     1.0  0.36115  0.49403  0.48447  1.0000
  H   H1391     1.0  0.62047  0.58876  0.15717  1.0000
  Fe  Fe156     1.0  0.39507  0.49244  0.19529  1.0000
  C   C1163     1.0  0.47379  0.49407  0.22751  1.0000
  S   S310      1.0  0.63166  0.74078  0.44118  1.0000
  C   C1164     1.0  0.64224  0.74125  0.38343  1.0000
  Fe  Fe157     1.0  0.58801  0.53850  0.77523  1.0000
  S   S311      1.0  0.58886  0.51739  0.74765  1.0000
  S   S312      1.0  0.56695  0.54693  0.76957  1.0000
  Fe  Fe158     1.0  0.61378  0.53751  0.82399  1.0000
  S   S313      1.0  0.61574  0.51595  0.80010  1.0000
  S   S314      1.0  0.62541  0.55113  0.86900  1.0000
  Fe  Fe159     1.0  0.61676  0.53013  0.75787  1.0000
  S   S315      1.0  0.63913  0.53449  0.72914  1.0000
  Fe  Fe160     1.0  0.58768  0.50506  0.79161  1.0000
  S   S316      1.0  0.61576  0.55207  0.78256  1.0000
  S   S317      1.0  0.58594  0.52579  0.81847  1.0000
  Fe  Fe161     1.0  0.52241  0.62437  0.71666  1.0000
  S   S318      1.0  0.54357  0.63395  0.68594  1.0000
  S   S319      1.0  0.52035  0.63510  0.76253  1.0000
  Fe  Fe162     1.0  0.50243  0.59310  0.67653  1.0000
  S   S320      1.0  0.52274  0.60055  0.64377  1.0000
  S   S321      1.0  0.48025  0.56878  0.66162  1.0000
  Fe  Fe163     1.0  0.54066  0.60753  0.68382  1.0000
  S   S322      1.0  0.56382  0.60234  0.68557  1.0000
  Fe  Fe164     1.0  0.52400  0.62631  0.64762  1.0000
  S   S323      1.0  0.52153  0.63783  0.60265  1.0000
  S   S324      1.0  0.52057  0.59828  0.71639  1.0000
  S   S325      1.0  0.50271  0.61862  0.67871  1.0000
  Fe  Fe165     1.0  0.57398  0.70098  0.90157  1.0000
  S   S326      1.0  0.58530  0.69497  0.94369  1.0000
  S   S327      1.0  0.57243  0.68982  0.85422  1.0000
  Fe  Fe166     1.0  0.57476  0.73352  0.93024  1.0000
  H   H1392     1.0  0.59188  0.57057  0.73351  1.0000
  Fe  Fe167     1.0  0.60248  0.72198  0.94659  1.0000
  C   C1165     1.0  0.54193  0.72040  0.85804  1.0000
  H   H1393     1.0  0.62296  0.53040  0.53497  1.0000
  S   S328      1.0  0.57050  0.69400  0.52061  1.0000
  S   S329      1.0  0.59254  0.72736  0.90346  1.0000
  S   S330      1.0  0.55531  0.70733  0.92575  1.0000
  H   H1394     1.0  0.54774  0.61841  0.55715  1.0000
  S   S331      1.0  0.41292  0.51585  0.71205  1.0000
  C   C1166     1.0  0.46147  0.55443  0.67611  1.0000
  C   C1167     1.0  0.45680  0.55610  0.70503  1.0000
  C   C1168     1.0  0.44183  0.54433  0.71535  1.0000
  C   C1169     1.0  0.43134  0.53063  0.69713  1.0000
  C   C1170     1.0  0.43595  0.52903  0.66812  1.0000
  C   C1171     1.0  0.45089  0.54082  0.65778  1.0000
  H   H1395     1.0  0.46470  0.56647  0.71947  1.0000
  H   H1396     1.0  0.43842  0.54580  0.73778  1.0000
  H   H1397     1.0  0.42801  0.51873  0.65360  1.0000
  H   H1398     1.0  0.45429  0.53939  0.63532  1.0000
  C   C1172     1.0  0.53523  0.65009  0.78788  1.0000
  C   C1173     1.0  0.55126  0.66015  0.77987  1.0000
  C   C1174     1.0  0.56242  0.67213  0.80055  1.0000
  C   C1175     1.0  0.55778  0.67423  0.82950  1.0000
  C   C1176     1.0  0.54176  0.66419  0.83752  1.0000
  C   C1177     1.0  0.53058  0.65223  0.81680  1.0000
  H   H1399     1.0  0.55497  0.65898  0.75757  1.0000
  H   H1400     1.0  0.57476  0.67986  0.79404  1.0000
  H   H1401     1.0  0.53795  0.66567  0.85961  1.0000
  H   H1402     1.0  0.51818  0.64461  0.82321  1.0000
  C   C1178     1.0  0.53545  0.65352  0.58026  1.0000
  C   C1179     1.0  0.52980  0.65582  0.55141  1.0000
  C   C1180     1.0  0.54020  0.66809  0.53293  1.0000
  C   C1181     1.0  0.55649  0.67840  0.54303  1.0000
  C   C1182     1.0  0.56210  0.67615  0.57192  1.0000
  C   C1183     1.0  0.55173  0.66381  0.59034  1.0000
  H   H1403     1.0  0.51725  0.64805  0.54327  1.0000
  H   H1404     1.0  0.53556  0.66966  0.51099  1.0000
  H   H1405     1.0  0.57463  0.68400  0.58013  1.0000
  H   H1406     1.0  0.55634  0.66235  0.61240  1.0000
  H   H1407     1.0  0.52836  0.71736  0.85575  1.0000
  C   C1184     1.0  0.63459  0.54695  0.67403  1.0000
  H   H1408     1.0  0.62207  0.54444  0.68010  1.0000
  C   C1185     1.0  0.61574  0.52388  0.93869  1.0000
  H   H1409     1.0  0.50219  0.50039  0.69197  1.0000
  H   H1410     1.0  0.63068  0.54594  0.56393  1.0000
  H   H1411     1.0  0.55391  0.51324  0.75627  1.0000
  N   N80       1.0  0.55053  0.72928  0.83186  1.0000
  C   C1186     1.0  0.56633  0.56190  0.74492  1.0000
  C   C1187     1.0  0.55139  0.56391  0.74063  1.0000
  C   C1188     1.0  0.55039  0.57602  0.72192  1.0000
  C   C1189     1.0  0.56442  0.58637  0.70768  1.0000
  C   C1190     1.0  0.57935  0.58429  0.71180  1.0000
  C   C1191     1.0  0.58031  0.57204  0.73031  1.0000
  H   H1412     1.0  0.54053  0.55610  0.75186  1.0000
  H   H1413     1.0  0.53880  0.57737  0.71862  1.0000
  H   H1414     1.0  0.59023  0.59223  0.70074  1.0000
  H   H1415     1.0  0.50867  0.52987  0.68493  1.0000
  C   C1192     1.0  0.64535  0.54346  0.69391  1.0000
  C   C1193     1.0  0.64284  0.55395  0.89393  1.0000
  C   C1194     1.0  0.54160  0.70319  0.80016  1.0000
  H   H1416     1.0  0.60568  0.52852  0.49512  1.0000
  H   H1417     1.0  0.51906  0.50940  0.74516  1.0000
  C   C1195     1.0  0.53578  0.72552  0.78011  1.0000
  H   H1418     1.0  0.53598  0.73774  0.78085  1.0000
  C   C1196     1.0  0.46475  0.50052  0.71052  1.0000
  C   C1197     1.0  0.56132  0.64033  0.53397  1.0000
  Fe  Fe168     1.0  0.56762  0.70275  0.96847  1.0000
  S   S332      1.0  0.63027  0.73377  0.95891  1.0000
  H   H1419     1.0  0.62758  0.72603  0.89480  1.0000
  H   H1420     1.0  0.48727  0.54069  0.69274  1.0000
  H   H1421     1.0  0.54982  0.51854  0.80745  1.0000
  S   S333      1.0  0.58574  0.72955  0.97410  1.0000
  C   C1198     1.0  0.49658  0.52174  0.69217  1.0000
  C   C1199     1.0  0.52837  0.71577  0.75420  1.0000
  C   C1200     1.0  0.63650  0.52759  0.97993  1.0000
  H   H1422     1.0  0.64286  0.57384  0.55512  1.0000
  C   C1201     1.0  0.49292  0.50516  0.69635  1.0000
  H   H1423     1.0  0.56966  0.71990  0.83737  1.0000
  C   C1202     1.0  0.46886  0.51741  0.70552  1.0000
  H   H1424     1.0  0.41993  0.55897  0.65464  1.0000
  C   C1203     1.0  0.64643  0.56505  0.91873  1.0000
  C   C1204     1.0  0.54261  0.71945  0.80401  1.0000
  H   H1425     1.0  0.64201  0.50665  0.91895  1.0000
  H   H1426     1.0  0.53342  0.68109  0.77202  1.0000
  H   H1427     1.0  0.54646  0.49795  0.81580  1.0000
  H   H1428     1.0  0.56796  0.64720  0.55418  1.0000
  H   H1429     1.0  0.45986  0.52269  0.70779  1.0000
  H   H1430     1.0  0.41867  0.55605  0.59949  1.0000
  H   H1431     1.0  0.61769  0.51120  0.89871  1.0000
  H   H1432     1.0  0.52323  0.72060  0.73620  1.0000
  H   H1433     1.0  0.64742  0.55044  0.82245  1.0000
  H   H1434     1.0  0.53337  0.52460  0.77058  1.0000
  C   C1205     1.0  0.48455  0.52784  0.69667  1.0000
  C   C1206     1.0  0.62445  0.54314  0.54101  1.0000
  H   H1435     1.0  0.52177  0.69226  0.73125  1.0000
  N   N81       1.0  0.47095  0.60009  0.59355  1.0000
  C   C1207     1.0  0.48528  0.59592  0.60121  1.0000
  C   C1208     1.0  0.46808  0.59856  0.56049  1.0000
  C   C1209     1.0  0.47547  0.61762  0.60260  1.0000
  C   C1210     1.0  0.45645  0.58919  0.60964  1.0000
  C   C1211     1.0  0.45660  0.59050  0.64130  1.0000
  C   C1212     1.0  0.44228  0.57649  0.59488  1.0000
  C   C1213     1.0  0.44344  0.57989  0.65716  1.0000
  C   C1214     1.0  0.42922  0.56585  0.61103  1.0000
  H   H1436     1.0  0.64926  0.54032  0.78888  1.0000
  H   H1437     1.0  0.48235  0.58274  0.59557  1.0000
  H   H1438     1.0  0.49657  0.60371  0.58958  1.0000
  H   H1439     1.0  0.48880  0.59777  0.62547  1.0000
  H   H1440     1.0  0.46620  0.58610  0.55168  1.0000
  H   H1441     1.0  0.47902  0.60739  0.54927  1.0000
  H   H1442     1.0  0.45717  0.60120  0.55329  1.0000
  H   H1443     1.0  0.48039  0.62058  0.62623  1.0000
  H   H1444     1.0  0.48564  0.62616  0.58938  1.0000
  H   H1445     1.0  0.46460  0.62091  0.59968  1.0000
  H   H1446     1.0  0.46723  0.59930  0.65423  1.0000
  H   H1447     1.0  0.44110  0.57432  0.57097  1.0000
  C   C1215     1.0  0.56823  0.73170  0.83493  1.0000
  H   H1448     1.0  0.60539  0.52624  0.92924  1.0000
  H   H1449     1.0  0.61197  0.54334  0.54282  1.0000
  H   H1450     1.0  0.54349  0.70871  0.86117  1.0000
  H   H1451     1.0  0.53235  0.60270  0.51125  1.0000
  H   H1452     1.0  0.45169  0.50048  0.76323  1.0000
  C   C1216     1.0  0.63749  0.57186  0.53160  1.0000
  C   C1217     1.0  0.62268  0.51540  0.92138  1.0000
  H   H1453     1.0  0.54664  0.69783  0.81725  1.0000
  H   H1454     1.0  0.63861  0.57163  0.92214  1.0000
  H   H1455     1.0  0.61659  0.53632  0.98004  1.0000
  H   H1456     1.0  0.64878  0.73395  0.85670  1.0000
  H   H1457     1.0  0.65038  0.53678  0.87132  1.0000
  C   C1218     1.0  0.42984  0.56751  0.64210  1.0000
  C   C1219     1.0  0.52396  0.51163  0.76881  1.0000
  C   C1220     1.0  0.47726  0.49463  0.70540  1.0000
  H   H1458     1.0  0.44412  0.58086  0.68140  1.0000
  H   H1459     1.0  0.54693  0.72788  0.87928  1.0000
  N   N82       1.0  0.63434  0.55516  0.51928  1.0000
  H   H1460     1.0  0.51366  0.51082  0.78309  1.0000
  C   C1221     1.0  0.53411  0.69353  0.77428  1.0000
  C   C1222     1.0  0.64045  0.73363  0.90132  1.0000
  H   H1461     1.0  0.37624  0.50077  0.53340  1.0000
  C   C1223     1.0  0.64336  0.51897  0.96155  1.0000
  C   C1224     1.0  0.54402  0.50061  0.75704  1.0000
  H   H1462     1.0  0.53133  0.50614  0.82502  1.0000
  H   H1463     1.0  0.44065  0.50836  0.73756  1.0000
  C   C1225     1.0  0.62240  0.52977  0.96761  1.0000
  C   C1226     1.0  0.63990  0.55329  0.64582  1.0000
  C   C1227     1.0  0.62617  0.55250  0.48885  1.0000
  C   C1228     1.0  0.54991  0.62411  0.53565  1.0000
  H   H1464     1.0  0.57247  0.66078  0.50673  1.0000
  N   N83       1.0  0.56447  0.61896  0.78537  1.0000
  C   C1229     1.0  0.54721  0.60935  0.79412  1.0000
  C   C1230     1.0  0.56328  0.62417  0.75441  1.0000
  C   C1231     1.0  0.57326  0.60781  0.78548  1.0000
  C   C1232     1.0  0.57388  0.63357  0.80536  1.0000
  C   C1233     1.0  0.59040  0.64424  0.79938  1.0000
  C   C1234     1.0  0.56722  0.63751  0.83126  1.0000
  C   C1235     1.0  0.59958  0.65811  0.81789  1.0000
  C   C1236     1.0  0.57663  0.65126  0.84985  1.0000
  C   C1237     1.0  0.59268  0.66163  0.84303  1.0000
  H   H1465     1.0  0.54045  0.59857  0.77842  1.0000
  H   H1466     1.0  0.54706  0.60437  0.81675  1.0000
  H   H1467     1.0  0.53977  0.61697  0.79362  1.0000
  H   H1468     1.0  0.55722  0.63297  0.75351  1.0000
  H   H1469     1.0  0.55580  0.61350  0.73912  1.0000
  H   H1470     1.0  0.57556  0.63002  0.74450  1.0000
  H   H1471     1.0  0.57533  0.60440  0.80862  1.0000
  H   H1472     1.0  0.56611  0.59621  0.77212  1.0000
  H   H1473     1.0  0.58556  0.61341  0.77553  1.0000
  H   H1474     1.0  0.59630  0.64199  0.78018  1.0000
  H   H1475     1.0  0.55468  0.63041  0.83739  1.0000
  H   H1476     1.0  0.61207  0.66627  0.81262  1.0000
  H   H1477     1.0  0.57122  0.65434  0.86909  1.0000
  H   H1478     1.0  0.59963  0.67260  0.85703  1.0000
  C   C1238     1.0  0.63640  0.51289  0.93283  1.0000
  C   C1239     1.0  0.52752  0.69981  0.75132  1.0000
  N   N84       1.0  0.53127  0.49993  0.77812  1.0000
  H   H1479     1.0  0.43556  0.49896  0.68561  1.0000
  H   H1480     1.0  0.63133  0.55564  0.63050  1.0000
  C   C1240     1.0  0.64510  0.73887  0.93125  1.0000
  H   H1481     1.0  0.57476  0.73954  0.85515  1.0000
  H   H1482     1.0  0.64856  0.54133  0.50814  1.0000
  C   C1241     1.0  0.44247  0.49713  0.74380  1.0000
  H   H1483     1.0  0.64664  0.58182  0.51904  1.0000
  H   H1484     1.0  0.62580  0.57384  0.53144  1.0000
  H   H1485     1.0  0.53888  0.49686  0.73374  1.0000
  C   C1242     1.0  0.53999  0.50580  0.80799  1.0000
  C   C1243     1.0  0.65043  0.55367  0.51749  1.0000
  C   C1244     1.0  0.56388  0.64797  0.50656  1.0000
  C   C1245     1.0  0.54120  0.61534  0.50978  1.0000
  H   H1486     1.0  0.57502  0.73765  0.81510  1.0000
  H   H1487     1.0  0.55030  0.49252  0.76403  1.0000
  Fe  Fe169     1.0  0.39000  0.91457  0.19984  1.0000
  S   S334      1.0  0.38206  0.93330  0.17871  1.0000
  S   S335      1.0  0.41189  0.90987  0.18217  1.0000
  Fe  Fe170     1.0  0.36050  0.90315  0.24139  1.0000
  S   S336      1.0  0.35065  0.92084  0.22236  1.0000
  S   S337      1.0  0.35288  0.88839  0.28400  1.0000
  Fe  Fe171     1.0  0.35595  0.91330  0.17680  1.0000
  S   S338      1.0  0.33865  0.91246  0.13598  1.0000
  Fe  Fe172     1.0  0.37730  0.93934  0.22541  1.0000
  S   S339      1.0  0.38250  0.96327  0.25167  1.0000
  S   S340      1.0  0.36408  0.89414  0.19557  1.0000
  S   S341      1.0  0.38699  0.92203  0.24655  1.0000
  C   C1246     1.0  0.33532  0.88445  0.30612  1.0000
  H   H1488     1.0  0.56226  0.93948  0.05064  1.0000
  H   H1489     1.0  0.59205  0.87885  0.08103  1.0000
  C   C1247     1.0  0.55786  0.86914  0.12165  1.0000
  C   C1248     1.0  0.33590  0.87966  0.33582  1.0000
  S   S342      1.0  0.59752  0.86890  0.48336  1.0000
  H   H1490     1.0  0.37792  0.87785  0.04862  1.0000
  H   H1491     1.0  0.34704  0.87869  0.34495  1.0000
  C   C1249     1.0  0.55475  0.92456  0.00968  1.0000
  H   H1492     1.0  0.31997  0.88905  0.27189  1.0000
  H   H1493     1.0  0.57618  0.92182  0.38200  1.0000
  C   C1250     1.0  0.52524  0.90764  0.00228  1.0000
  C   C1251     1.0  0.34944  0.89029  0.01429  1.0000
  C   C1252     1.0  0.39779  0.98275  0.24342  1.0000
  N   N85       1.0  0.55510  0.87963  0.17366  1.0000
  C   C1253     1.0  0.40685  0.98503  0.21782  1.0000
  C   C1254     1.0  0.56055  0.87369  0.20114  1.0000
  H   H1494     1.0  0.40465  0.97468  0.20257  1.0000
  C   C1255     1.0  0.43270  0.91460  0.19625  1.0000
  H   H1495     1.0  0.43976  0.90781  0.15430  1.0000
  C   C1256     1.0  0.58301  0.92928  0.36431  1.0000
  Fe  Fe173     1.0  0.58402  0.85038  0.44585  1.0000
  C   C1257     1.0  0.58470  0.87850  0.10001  1.0000
  S   S343      1.0  0.58868  0.82701  0.45373  1.0000
  Fe  Fe174     1.0  0.57117  0.87473  0.41726  1.0000
  S   S344      1.0  0.58365  0.89432  0.45371  1.0000
  S   S345      1.0  0.55327  0.87934  0.38368  1.0000
  Fe  Fe175     1.0  0.60550  0.88760  0.44793  1.0000
  S   S346      1.0  0.63174  0.90780  0.45061  1.0000
  C   C1258     1.0  0.58256  0.88793  0.15003  1.0000
  S   S347      1.0  0.57943  0.89622  0.02792  1.0000
  S   S348      1.0  0.59359  0.86903  0.40989  1.0000
  S   S349      1.0  0.56062  0.85462  0.45021  1.0000
  Fe  Fe176     1.0  0.54237  0.92009  0.22854  1.0000
  S   S350      1.0  0.55393  0.93301  0.18704  1.0000
  S   S351      1.0  0.55971  0.91123  0.25552  1.0000
  Fe  Fe177     1.0  0.50908  0.92290  0.21225  1.0000
  S   S352      1.0  0.51836  0.93522  0.16940  1.0000
  S   S353      1.0  0.48495  0.92078  0.23333  1.0000
  Fe  Fe178     1.0  0.52982  0.91680  0.16274  1.0000
  S   S354      1.0  0.52728  0.90141  0.11929  1.0000
  Fe  Fe179     1.0  0.54187  0.95034  0.19712  1.0000
  S   S355      1.0  0.55358  0.97782  0.18941  1.0000
  S   S356      1.0  0.51855  0.90309  0.20384  1.0000
  S   S357      1.0  0.53229  0.93892  0.24037  1.0000
  C   C1259     1.0  0.46524  0.91908  0.21784  1.0000
  C   C1260     1.0  0.46001  0.91432  0.18789  1.0000
  C   C1261     1.0  0.44380  0.91194  0.17731  1.0000
  C   C1262     1.0  0.43814  0.91993  0.22594  1.0000
  C   C1263     1.0  0.45423  0.92197  0.23671  1.0000
  H   H1496     1.0  0.46826  0.91201  0.17307  1.0000
  H   H1497     1.0  0.42983  0.92207  0.24078  1.0000
  H   H1498     1.0  0.45806  0.92555  0.25996  1.0000
  H   H1499     1.0  0.57047  0.90499  0.18778  1.0000
  H   H1500     1.0  0.56095  0.97717  0.25378  1.0000
  H   H1501     1.0  0.60544  0.89537  0.12739  1.0000
  C   C1264     1.0  0.56466  0.89711  0.05334  1.0000
  C   C1265     1.0  0.57009  0.90935  0.07657  1.0000
  C   C1266     1.0  0.55897  0.91075  0.09713  1.0000
  C   C1267     1.0  0.54215  0.89991  0.09476  1.0000
  C   C1268     1.0  0.53675  0.88756  0.07176  1.0000
  C   C1269     1.0  0.54790  0.88609  0.05130  1.0000
  H   H1502     1.0  0.58302  0.91789  0.07859  1.0000
  H   H1503     1.0  0.56338  0.92043  0.11445  1.0000
  H   H1504     1.0  0.52381  0.87906  0.06967  1.0000
  H   H1505     1.0  0.54350  0.87634  0.03418  1.0000
  C   C1270     1.0  0.55519  0.88774  0.34758  1.0000
  C   C1271     1.0  0.56894  0.89037  0.33064  1.0000
  C   C1272     1.0  0.57004  0.89747  0.30247  1.0000
  C   C1273     1.0  0.55735  0.90185  0.29072  1.0000
  C   C1274     1.0  0.54343  0.89888  0.30734  1.0000
  C   C1275     1.0  0.54239  0.89188  0.33560  1.0000
  H   H1506     1.0  0.57861  0.88679  0.33908  1.0000
  H   H1507     1.0  0.58083  0.89965  0.28975  1.0000
  H   H1508     1.0  0.53355  0.90212  0.29860  1.0000
  H   H1509     1.0  0.53162  0.88975  0.34838  1.0000
  H   H1510     1.0  0.57436  0.94491  0.30020  1.0000
  H   H1511     1.0  0.63028  0.89231  0.39157  1.0000
  C   C1276     1.0  0.56845  0.77124  0.42939  1.0000
  C   C1277     1.0  0.56156  0.78114  0.41485  1.0000
  C   C1278     1.0  0.56738  0.79815  0.42218  1.0000
  C   C1279     1.0  0.58023  0.80552  0.44416  1.0000
  C   C1280     1.0  0.58695  0.79557  0.45903  1.0000
  C   C1281     1.0  0.58105  0.77854  0.45186  1.0000
  H   H1512     1.0  0.55474  0.90228  0.15872  1.0000
  H   H1513     1.0  0.54466  0.86198  0.11799  1.0000
  H   H1514     1.0  0.57373  0.88137  0.20835  1.0000
  C   C1282     1.0  0.64271  0.90162  0.39638  1.0000
  C   C1283     1.0  0.32076  0.88556  0.29472  1.0000
  C   C1284     1.0  0.53694  0.86980  0.16809  1.0000
  H   H1515     1.0  0.56204  0.80559  0.41055  1.0000
  H   H1516     1.0  0.45862  0.88186  0.24667  1.0000
  H   H1517     1.0  0.55806  0.82527  0.48219  1.0000
  C   C1285     1.0  0.59217  0.88787  0.12604  1.0000
  H   H1518     1.0  0.56188  0.86206  0.07733  1.0000
  C   C1286     1.0  0.55759  0.89695  0.17936  1.0000
  H   H1519     1.0  0.59675  0.80106  0.47636  1.0000
  C   C1287     1.0  0.54144  0.91274  0.99153  1.0000
  H   H1520     1.0  0.55317  0.87421  0.22046  1.0000
  H   H1521     1.0  0.31908  0.89249  0.00216  1.0000
  N   N86       1.0  0.39795  0.87951  0.26950  1.0000
  C   C1288     1.0  0.40059  0.89486  0.28676  1.0000
  C   C1289     1.0  0.38723  0.87862  0.24239  1.0000
  C   C1290     1.0  0.38864  0.86522  0.28760  1.0000
  C   C1291     1.0  0.41425  0.87945  0.26274  1.0000
  C   C1292     1.0  0.42609  0.88068  0.28631  1.0000
  C   C1293     1.0  0.41902  0.87852  0.23306  1.0000
  C   C1294     1.0  0.44185  0.88142  0.28052  1.0000
  C   C1295     1.0  0.43476  0.87911  0.22757  1.0000
  C   C1296     1.0  0.44621  0.88075  0.25119  1.0000
  H   H1522     1.0  0.40700  0.89575  0.30904  1.0000
  H   H1523     1.0  0.40822  0.90589  0.27442  1.0000
  H   H1524     1.0  0.38858  0.89574  0.29095  1.0000
  H   H1525     1.0  0.39324  0.88937  0.22824  1.0000
  H   H1526     1.0  0.37509  0.87872  0.24821  1.0000
  H   H1527     1.0  0.38426  0.86714  0.22861  1.0000
  H   H1528     1.0  0.39514  0.86564  0.30962  1.0000
  H   H1529     1.0  0.37611  0.86474  0.29235  1.0000
  H   H1530     1.0  0.38676  0.85344  0.27566  1.0000
  H   H1531     1.0  0.42335  0.88138  0.30943  1.0000
  H   H1532     1.0  0.41109  0.87791  0.21355  1.0000
  H   H1533     1.0  0.45087  0.88278  0.29880  1.0000
  H   H1534     1.0  0.43834  0.87897  0.20475  1.0000
  C   C1297     1.0  0.33406  0.92506  0.35519  1.0000
  N   N87       1.0  0.34415  0.93922  0.30734  1.0000
  H   H1535     1.0  0.34664  0.92726  0.36268  1.0000
  C   C1298     1.0  0.35319  0.92884  0.30001  1.0000
  C   C1299     1.0  0.33831  0.94375  0.27862  1.0000
  H   H1536     1.0  0.63595  0.84558  0.00435  1.0000
  C   C1300     1.0  0.51436  0.98975  0.26911  1.0000
  C   C1301     1.0  0.52257  0.91389  0.02950  1.0000
  C   C1302     1.0  0.36989  0.88433  0.04551  1.0000
  C   C1303     1.0  0.58163  0.94217  0.31778  1.0000
  H   H1537     1.0  0.60525  0.79639  0.40752  1.0000
  H   H1538     1.0  0.34959  0.96251  0.33002  1.0000
  H   H1539     1.0  0.61612  0.84657  0.99683  1.0000
  H   H1540     1.0  0.36607  0.96202  0.30826  1.0000
  H   H1541     1.0  0.37647  0.89638  0.08931  1.0000
  H   H1542     1.0  0.35858  0.92524  0.32006  1.0000
  H   H1543     1.0  0.33195  0.95213  0.28230  1.0000
  H   H1544     1.0  0.59314  0.77762  0.38767  1.0000
  H   H1545     1.0  0.56737  0.79034  0.99615  1.0000
  H   H1546     1.0  0.60347  0.75933  0.37124  1.0000
  H   H1547     1.0  0.56058  0.92966  0.34379  1.0000
  C   C1304     1.0  0.33050  0.93027  0.32694  1.0000
  C   C1305     1.0  0.57389  0.93360  0.34235  1.0000
  H   H1548     1.0  0.36372  0.93528  0.28567  1.0000
  C   C1306     1.0  0.32213  0.87593  0.35382  1.0000
  N   N88       1.0  0.60964  0.92860  0.38570  1.0000
  C   C1307     1.0  0.62792  0.93578  0.38262  1.0000
  C   C1308     1.0  0.60674  0.93350  0.41609  1.0000
  C   C1309     1.0  0.60368  0.91046  0.38347  1.0000
  C   C1310     1.0  0.60037  0.93381  0.36266  1.0000
  H   H1549     1.0  0.34090  0.90730  0.03736  1.0000
  C   C1311     1.0  0.60793  0.94264  0.33732  1.0000
  H   H1550     1.0  0.53399  0.85647  0.16456  1.0000
  H   H1551     1.0  0.52982  0.87094  0.18732  1.0000
  C   C1312     1.0  0.56506  0.87870  0.14847  1.0000
  H   H1552     1.0  0.63312  0.94946  0.38308  1.0000
  H   H1553     1.0  0.36237  0.95225  0.34314  1.0000
  H   H1554     1.0  0.63131  0.93117  0.36176  1.0000
  H   H1555     1.0  0.61415  0.93030  0.43376  1.0000
  H   H1556     1.0  0.59358  0.92711  0.42192  1.0000
  H   H1557     1.0  0.61017  0.94699  0.41817  1.0000
  H   H1558     1.0  0.60560  0.90623  0.36098  1.0000
  H   H1559     1.0  0.61037  0.90597  0.40025  1.0000
  H   H1560     1.0  0.59020  0.90413  0.38737  1.0000
  H   H1561     1.0  0.50364  0.96212  0.29921  1.0000
  H   H1562     1.0  0.62095  0.94630  0.33370  1.0000
  H   H1563     1.0  0.53192  0.87416  0.14834  1.0000
  C   C1313     1.0  0.56764  0.86902  0.09796  1.0000
  H   H1564     1.0  0.55173  0.77562  0.39757  1.0000
  H   H1565     1.0  0.58888  0.89557  0.16960  1.0000
  H   H1566     1.0  0.34882  0.95037  0.26432  1.0000
  H   H1567     1.0  0.54939  0.89799  0.19667  1.0000
  C   C1314     1.0  0.32460  0.88152  0.10588  1.0000
  C   C1315     1.0  0.60587  0.78772  0.38985  1.0000
  H   H1568     1.0  0.48175  0.96527  0.26607  1.0000
  H   H1569     1.0  0.58613  0.77105  0.46393  1.0000
  H   H1570     1.0  0.32981  0.93265  0.26509  1.0000
  C   C1316     1.0  0.36024  0.88213  0.01877  1.0000
  C   C1317     1.0  0.35876  0.90303  0.06472  1.0000
  H   H1571     1.0  0.61624  0.78338  0.44497  1.0000
  H   H1572     1.0  0.60813  0.79398  0.36822  1.0000
  H   H1573     1.0  0.55920  0.86077  0.19774  1.0000
  C   C1318     1.0  0.35602  0.95464  0.32296  1.0000
  C   C1319     1.0  0.63954  0.81140  0.39960  1.0000
  H   H1574     1.0  0.32276  0.87212  0.37647  1.0000
  H   H1575     1.0  0.65139  0.89829  0.35347  1.0000
  C   C1320     1.0  0.55189  0.93084  0.03671  1.0000
  C   C1321     1.0  0.50975  0.96157  0.27825  1.0000
  N   N89       1.0  0.50751  0.97274  0.25593  1.0000
  C   C1322     1.0  0.48952  0.96631  0.24666  1.0000
  H   H1576     1.0  0.52973  0.97451  0.23443  1.0000
  C   C1323     1.0  0.64658  0.74616  0.41358  1.0000
  C   C1324     1.0  0.61672  0.76815  0.37506  1.0000
  N   N90       1.0  0.61873  0.78138  0.39767  1.0000
  H   H1577     1.0  0.53382  0.92987  0.06823  1.0000
  H   H1578     1.0  0.36121  0.87388  0.00169  1.0000
  H   H1579     1.0  0.35806  0.91099  0.08283  1.0000
  H   H1580     1.0  0.62431  0.76868  0.43438  1.0000
  C   C1325     1.0  0.36913  0.89477  0.06845  1.0000
  C   C1326     1.0  0.59860  0.94671  0.31529  1.0000
  H   H1581     1.0  0.50431  0.94853  0.26966  1.0000
  C   C1327     1.0  0.51646  0.97194  0.22903  1.0000
  H   H1582     1.0  0.52308  0.96461  0.28427  1.0000
  C   C1328     1.0  0.56624  0.98979  0.24708  1.0000
  S   S358      1.0  0.56101  0.74996  0.41839  1.0000
  H   H1583     1.0  0.33125  0.87743  0.12245  1.0000
  H   H1584     1.0  0.32089  0.86503  0.99971  1.0000
  H   H1585     1.0  0.60448  0.95317  0.29585  1.0000
  H   H1586     1.0  0.34476  0.91730  0.28773  1.0000
  C   C1329     1.0  0.53587  0.92546  0.04667  1.0000
  H   H1587     1.0  0.54656  0.76987  0.47867  1.0000
  H   H1588     1.0  0.62990  0.81599  0.39907  1.0000
  C   C1330     1.0  0.34895  0.90082  0.03821  1.0000
  H   H1589     1.0  0.48493  0.95368  0.23612  1.0000
  H   H1590     1.0  0.32432  0.91226  0.39516  1.0000
  H   H1591     1.0  0.62028  0.81509  0.99443  1.0000
  C   C1331     1.0  0.32142  0.91659  0.37410  1.0000
  H   H1592     1.0  0.63456  0.93235  0.40125  1.0000
  C   C1332     1.0  0.61533  0.77402  0.42733  1.0000
  H   H1593     1.0  0.60268  0.76386  0.42727  1.0000
  Fe  Fe180     1.0  0.57461  0.87400  0.48630  1.0000
  H   H1594     1.0  0.64798  0.77716  0.40184  1.0000
  H   H1595     1.0  0.51611  0.98092  0.21234  1.0000
  C   C1333     1.0  0.63593  0.79427  0.39891  1.0000
  C   C1334     1.0  0.64973  0.78987  0.40105  1.0000
  H   H1596     1.0  0.51019  0.90944  0.03781  1.0000
  C   C1335     1.0  0.32593  0.89775  0.10763  1.0000
  H   H1597     1.0  0.51101  0.95946  0.21772  1.0000
  H   H1598     1.0  0.48694  0.97411  0.22973  1.0000
  H   H1599     1.0  0.51456  0.89844  0.99010  1.0000
  H   H1600     1.0  0.62129  0.77335  0.35320  1.0000
  H   H1601     1.0  0.62339  0.76044  0.38221  1.0000
  H   H1602     1.0  0.64253  0.93396  0.01463  1.0000
  C   C1336     1.0  0.64679  0.91045  0.42388  1.0000
  H   H1603     1.0  0.56757  0.92882  0.00402  1.0000
  H   H1604     1.0  0.54645  0.79698  0.48142  1.0000
  H   H1605     1.0  0.65101  0.74265  0.33889  1.0000
  H   H1606     1.0  0.33571  0.91035  0.98822  1.0000
  C   C1337     1.0  0.37037  0.96641  0.60574  1.0000
  Fe  Fe181     1.0  0.57546  0.84698  0.95676  1.0000
  H   H1607     1.0  0.62995  0.90331  0.88879  1.0000
  C   C1338     1.0  0.56151  0.91246  0.95455  1.0000
  Fe  Fe182     1.0  0.56992  0.87334  0.91932  1.0000
  S   S359      1.0  0.59063  0.89428  0.94489  1.0000
  S   S360      1.0  0.55086  0.87789  0.88835  1.0000
  Fe  Fe183     1.0  0.60495  0.87831  0.94159  1.0000
  S   S361      1.0  0.63267  0.88439  0.94021  1.0000
  H   H1608     1.0  0.32729  0.90379  0.62179  1.0000
  S   S362      1.0  0.56297  0.87166  0.53213  1.0000
  S   S363      1.0  0.58504  0.85810  0.91306  1.0000
  S   S364      1.0  0.55856  0.86032  0.96102  1.0000
  Fe  Fe184     1.0  0.53913  0.92117  0.73293  1.0000
  S   S365      1.0  0.55529  0.94068  0.70290  1.0000
  S   S366      1.0  0.55631  0.91398  0.76426  1.0000
  Fe  Fe185     1.0  0.50720  0.91932  0.69916  1.0000
  S   S367      1.0  0.52195  0.93801  0.66681  1.0000
  S   S368      1.0  0.47921  0.91033  0.68661  1.0000
  Fe  Fe186     1.0  0.53889  0.92473  0.66461  1.0000
  S   S369      1.0  0.55179  0.92348  0.62135  1.0000
  Fe  Fe187     1.0  0.53722  0.95232  0.70740  1.0000
  S   S370      1.0  0.54161  0.97949  0.70815  1.0000
  S   S371      1.0  0.52318  0.90480  0.69415  1.0000
  S   S372      1.0  0.52196  0.93417  0.74016  1.0000
  Fe  Fe188     1.0  0.39110  0.91349  0.72134  1.0000
  S   S373      1.0  0.38996  0.92590  0.67867  1.0000
  S   S374      1.0  0.41379  0.91070  0.74358  1.0000
  Fe  Fe189     1.0  0.35545  0.90837  0.73617  1.0000
  S   S375      1.0  0.35203  0.92090  0.69447  1.0000
  S   S376      1.0  0.33259  0.89539  0.76372  1.0000
  Fe  Fe190     1.0  0.36376  0.90644  0.67016  1.0000
  S   S377      1.0  0.35523  0.89345  0.62355  1.0000
  Fe  Fe191     1.0  0.37824  0.93958  0.70556  1.0000
  S   S378      1.0  0.38558  0.96664  0.69601  1.0000
  S   S379      1.0  0.36589  0.89276  0.71108  1.0000
  S   S380      1.0  0.38073  0.92836  0.74902  1.0000
  C   C1339     1.0  0.53913  0.88747  0.96680  1.0000
  C   C1340     1.0  0.46051  0.95528  0.70830  1.0000
  H   H1609     1.0  0.54055  0.88135  0.94585  1.0000
  N   N91       1.0  0.36167  0.94839  0.60897  1.0000
  C   C1341     1.0  0.33877  0.89905  0.82602  1.0000
  H   H1610     1.0  0.35544  0.85381  0.88932  1.0000
  H   H1611     1.0  0.45899  0.94262  0.70870  1.0000
  H   H1612     1.0  0.35159  0.90652  0.82194  1.0000
  C   C1342     1.0  0.33847  0.89049  0.59674  1.0000
  C   C1343     1.0  0.33711  0.88138  0.56990  1.0000
  N   N92       1.0  0.55947  0.82087  0.52912  1.0000
  H   H1613     1.0  0.34609  0.87618  0.56620  1.0000
  C   C1344     1.0  0.33389  0.89556  0.85564  1.0000
  C   C1345     1.0  0.39871  0.98270  0.72134  1.0000
  H   H1614     1.0  0.61859  0.80300  0.88539  1.0000
  C   C1346     1.0  0.40361  0.97947  0.74977  1.0000
  C   C1347     1.0  0.50298  0.97756  0.67668  1.0000
  H   H1615     1.0  0.39952  0.96690  0.75660  1.0000
  C   C1348     1.0  0.46128  0.91063  0.70325  1.0000
  C   C1349     1.0  0.46079  0.91338  0.73400  1.0000
  C   C1350     1.0  0.44619  0.91341  0.74589  1.0000
  C   C1351     1.0  0.43202  0.91102  0.72723  1.0000
  C   C1352     1.0  0.43262  0.90855  0.69645  1.0000
  C   C1353     1.0  0.44707  0.90816  0.68466  1.0000
  H   H1616     1.0  0.47154  0.91520  0.74866  1.0000
  H   H1617     1.0  0.44589  0.91527  0.76975  1.0000
  H   H1618     1.0  0.42183  0.90658  0.68178  1.0000
  H   H1619     1.0  0.44724  0.90593  0.66087  1.0000
  C   C1354     1.0  0.37340  0.86915  0.76999  1.0000
  H   H1620     1.0  0.56416  0.97970  0.75826  1.0000
  C   C1355     1.0  0.62596  0.79585  0.88863  1.0000
  C   C1356     1.0  0.55916  0.88618  0.55560  1.0000
  C   C1357     1.0  0.56562  0.90304  0.55039  1.0000
  C   C1358     1.0  0.56306  0.91413  0.57055  1.0000
  C   C1359     1.0  0.55389  0.90860  0.59612  1.0000
  C   C1360     1.0  0.54718  0.89169  0.60106  1.0000
  C   C1361     1.0  0.54990  0.88062  0.58106  1.0000
  H   H1621     1.0  0.57280  0.90759  0.53105  1.0000
  H   H1622     1.0  0.56829  0.92714  0.56636  1.0000
  H   H1623     1.0  0.53992  0.88711  0.62026  1.0000
  H   H1624     1.0  0.54479  0.86764  0.58541  1.0000
  C   C1362     1.0  0.55277  0.88821  0.85407  1.0000
  C   C1363     1.0  0.56779  0.89494  0.83995  1.0000
  C   C1364     1.0  0.56859  0.90283  0.81262  1.0000
  C   C1365     1.0  0.55446  0.90419  0.79910  1.0000
  C   C1366     1.0  0.53948  0.89758  0.81335  1.0000
  C   C1367     1.0  0.53866  0.88963  0.84063  1.0000
  H   H1625     1.0  0.57876  0.89398  0.84995  1.0000
  H   H1626     1.0  0.58027  0.90792  0.80189  1.0000
  H   H1627     1.0  0.52850  0.89847  0.80325  1.0000
  H   H1628     1.0  0.52695  0.88442  0.85124  1.0000
  C   C1368     1.0  0.32707  0.89271  0.80183  1.0000
  H   H1629     1.0  0.31993  0.86785  0.96021  1.0000
  C   C1369     1.0  0.57241  0.77452  0.92925  1.0000
  C   C1370     1.0  0.57409  0.78806  0.91179  1.0000
  C   C1371     1.0  0.57341  0.80240  0.92462  1.0000
  C   C1372     1.0  0.57082  0.80328  0.95507  1.0000
  C   C1373     1.0  0.53361  0.90761  0.93827  1.0000
  C   C1374     1.0  0.36273  0.86924  0.81907  1.0000
  H   H1630     1.0  0.35669  0.95057  0.65527  1.0000
  H   H1631     1.0  0.52597  0.88093  0.97242  1.0000
  C   C1375     1.0  0.36584  0.86468  0.84825  1.0000
  H   H1632     1.0  0.37822  0.86707  0.85721  1.0000
  S   S381      1.0  0.56970  0.82093  0.97267  1.0000
  H   H1633     1.0  0.57570  0.78739  0.88809  1.0000
  H   H1634     1.0  0.54704  0.88531  0.98484  1.0000
  H   H1635     1.0  0.57449  0.81261  0.91082  1.0000
  C   C1376     1.0  0.35000  0.94536  0.63327  1.0000
  C   C1377     1.0  0.33648  0.85370  0.85745  1.0000
  N   N93       1.0  0.54400  0.90533  0.96332  1.0000
  C   C1378     1.0  0.37441  0.94224  0.61863  1.0000
  N   N94       1.0  0.37617  0.87830  0.79919  1.0000
  C   C1379     1.0  0.34587  0.86537  0.80989  1.0000
  H   H1636     1.0  0.55708  0.75353  0.81477  1.0000
  H   H1637     1.0  0.53745  0.81268  0.55403  1.0000
  H   H1638     1.0  0.49193  0.94740  0.65360  1.0000
  C   C1380     1.0  0.46296  0.98756  0.70866  1.0000
  H   H1639     1.0  0.49959  0.96492  0.73195  1.0000
  C   C1381     1.0  0.64111  0.80030  0.87502  1.0000
  C   C1382     1.0  0.32429  0.87894  0.54772  1.0000
  H   H1640     1.0  0.60960  0.82739  0.91985  1.0000
  C   C1383     1.0  0.32668  0.89704  0.60116  1.0000
  H   H1641     1.0  0.55596  0.75278  0.85431  1.0000
  H   H1642     1.0  0.55965  0.76019  0.51949  1.0000
  H   H1643     1.0  0.34251  0.86876  0.78831  1.0000
  C   C1384     1.0  0.35549  0.92829  0.56409  1.0000
  H   H1644     1.0  0.32645  0.84817  0.87227  1.0000
  C   C1385     1.0  0.33301  0.85772  0.82884  1.0000
  H   H1645     1.0  0.56601  0.92592  0.95128  1.0000
  H   H1646     1.0  0.51266  0.97371  0.66830  1.0000
  H   H1647     1.0  0.38355  0.87558  0.75475  1.0000
  C   C1386     1.0  0.64382  0.82103  0.95130  1.0000
  H   H1648     1.0  0.38645  0.90222  0.78024  1.0000
  C   C1387     1.0  0.44748  0.95890  0.71816  1.0000
  H   H1649     1.0  0.43636  0.94909  0.72565  1.0000
  H   H1650     1.0  0.57752  0.84612  0.53346  1.0000
  H   H1651     1.0  0.62477  0.76187  0.92368  1.0000
  H   H1652     1.0  0.34280  0.93193  0.63565  1.0000
  H   H1653     1.0  0.39413  0.86915  0.81557  1.0000
  C   C1388     1.0  0.37609  0.89468  0.79405  1.0000
  H   H1654     1.0  0.63367  0.85950  0.97783  1.0000
  H   H1655     1.0  0.53592  0.90275  0.91653  1.0000
  N   N95       1.0  0.33942  0.88778  0.98569  1.0000
  N   N96       1.0  0.62340  0.83389  0.96246  1.0000
  C   C1389     1.0  0.57027  0.77557  0.95984  1.0000
  H   H1656     1.0  0.58428  0.83229  0.51403  1.0000
  H   H1657     1.0  0.52009  0.90095  0.94123  1.0000
  H   H1658     1.0  0.53816  0.81679  0.49909  1.0000
  H   H1659     1.0  0.34340  0.89200  0.93884  1.0000
  H   H1660     1.0  0.49914  0.98342  0.65776  1.0000
  H   H1661     1.0  0.60193  0.81817  0.98528  1.0000
  C   C1390     1.0  0.55051  0.82210  0.55568  1.0000
  C   C1391     1.0  0.47610  0.98405  0.69877  1.0000
  H   H1662     1.0  0.64484  0.81103  0.86162  1.0000
  C   C1392     1.0  0.62940  0.77272  0.91027  1.0000
  C   C1393     1.0  0.63893  0.83444  0.95010  1.0000
  H   H1663     1.0  0.64699  0.85959  0.93498  1.0000
  H   H1664     1.0  0.38396  0.94451  0.60187  1.0000
  H   H1665     1.0  0.55654  0.82036  0.57685  1.0000
  H   H1666     1.0  0.40280  0.88767  0.79557  1.0000
  N   N97       1.0  0.48865  0.96335  0.68740  1.0000
  C   C1394     1.0  0.48209  0.95094  0.66220  1.0000
  H   H1667     1.0  0.34840  0.91119  0.52603  1.0000
  C   C1395     1.0  0.49508  0.95626  0.71209  1.0000
  C   C1396     1.0  0.47517  0.96768  0.69804  1.0000
  H   H1668     1.0  0.56294  0.90673  0.93307  1.0000
  C   C1397     1.0  0.61284  0.83680  0.93848  1.0000
  H   H1669     1.0  0.41715  0.98991  0.79175  1.0000
  H   H1670     1.0  0.38124  0.94848  0.63994  1.0000
  C   C1398     1.0  0.55940  0.77227  0.52155  1.0000
  C   C1399     1.0  0.55148  0.82530  0.50285  1.0000
  H   H1671     1.0  0.47682  0.95560  0.64332  1.0000
  H   H1672     1.0  0.32351  0.87194  0.52727  1.0000
  H   H1673     1.0  0.32560  0.91859  0.50748  1.0000
  H   H1674     1.0  0.33625  0.95382  0.58005  1.0000
  H   H1675     1.0  0.31980  0.93999  0.53449  1.0000
  H   H1676     1.0  0.57254  0.77815  0.56458  1.0000
  H   H1677     1.0  0.50571  0.95350  0.70530  1.0000
  H   H1678     1.0  0.48558  0.94444  0.71928  1.0000
  H   H1679     1.0  0.60828  0.77852  0.91641  1.0000
  C   C1400     1.0  0.64447  0.77701  0.89666  1.0000
  H   H1680     1.0  0.63628  0.80947  0.96075  1.0000
  C   C1401     1.0  0.33328  0.92498  0.52721  1.0000
  H   H1681     1.0  0.39654  0.88878  0.83249  1.0000
  H   H1682     1.0  0.34095  0.95100  0.62943  1.0000
  C   C1402     1.0  0.56668  0.78243  0.54685  1.0000
  C   C1403     1.0  0.64703  0.89614  0.91439  1.0000
  H   H1683     1.0  0.58338  0.83207  0.55386  1.0000
  S   S382      1.0  0.59583  0.86661  0.98500  1.0000
  C   C1404     1.0  0.35284  0.85703  0.86704  1.0000
  H   H1684     1.0  0.32030  0.85539  0.82159  1.0000
  H   H1685     1.0  0.61890  0.84912  0.92890  1.0000
  H   H1686     1.0  0.57247  0.80558  0.56919  1.0000
  H   H1687     1.0  0.56890  0.76527  0.97357  1.0000
  C   C1405     1.0  0.56935  0.78981  0.97257  1.0000
  H   H1688     1.0  0.64236  0.91901  0.96735  1.0000
  H   H1689     1.0  0.37784  0.97264  0.62666  1.0000
  H   H1690     1.0  0.36166  0.86787  0.75778  1.0000
  H   H1691     1.0  0.37285  0.85655  0.77297  1.0000
  C   C1406     1.0  0.61330  0.81795  0.97567  1.0000
  H   H1692     1.0  0.65127  0.92074  0.85516  1.0000
  H   H1693     1.0  0.36158  0.97229  0.60103  1.0000
  C   C1407     1.0  0.64261  0.90436  0.89156  1.0000
  H   H1694     1.0  0.36440  0.89379  0.78209  1.0000
  H   H1695     1.0  0.53633  0.92087  0.93583  1.0000
  N   N98       1.0  0.57824  0.90534  0.68528  1.0000
  C   C1408     1.0  0.55985  0.89757  0.68528  1.0000
  C   C1409     1.0  0.58521  0.89937  0.71097  1.0000
  C   C1410     1.0  0.58360  0.92336  0.69051  1.0000
  C   C1411     1.0  0.58351  0.90091  0.65667  1.0000
  C   C1412     1.0  0.58060  0.88430  0.64954  1.0000
  C   C1413     1.0  0.59082  0.91258  0.63459  1.0000
  C   C1414     1.0  0.58493  0.87971  0.62224  1.0000
  C   C1415     1.0  0.59517  0.90785  0.60744  1.0000
  C   C1416     1.0  0.59222  0.89148  0.60125  1.0000
  H   H1696     1.0  0.55479  0.88395  0.68271  1.0000
  H   H1697     1.0  0.55533  0.90051  0.70646  1.0000
  H   H1698     1.0  0.55415  0.90200  0.66666  1.0000
  H   H1699     1.0  0.58017  0.88574  0.71115  1.0000
  H   H1700     1.0  0.58205  0.90335  0.73279  1.0000
  H   H1701     1.0  0.59900  0.90420  0.71083  1.0000
  H   H1702     1.0  0.57763  0.92855  0.67349  1.0000
  H   H1703     1.0  0.57996  0.92632  0.71267  1.0000
  H   H1704     1.0  0.59734  0.93003  0.69021  1.0000
  H   H1705     1.0  0.57452  0.87467  0.66470  1.0000
  H   H1706     1.0  0.59281  0.92535  0.63722  1.0000
  H   H1707     1.0  0.58222  0.86692  0.61690  1.0000
  H   H1708     1.0  0.60025  0.91685  0.59055  1.0000
  H   H1709     1.0  0.59503  0.88782  0.57965  1.0000
  C   C1417     1.0  0.35060  0.89344  0.96065  1.0000
  C   C1418     1.0  0.57689  0.83332  0.53288  1.0000
  C   C1419     1.0  0.39309  0.88101  0.81146  1.0000
  C   C1420     1.0  0.62012  0.78208  0.90619  1.0000
  H   H1710     1.0  0.37744  0.90172  0.81552  1.0000
  H   H1711     1.0  0.55007  0.83446  0.55794  1.0000
  S   S383      1.0  0.57254  0.75648  0.91145  1.0000
  H   H1712     1.0  0.34313  0.90031  0.87405  1.0000
  H   H1713     1.0  0.37899  0.96920  0.58722  1.0000
  C   C1421     1.0  0.65087  0.79094  0.87868  1.0000
  C   C1422     1.0  0.33939  0.94469  0.56880  1.0000
  C   C1423     1.0  0.35233  0.94046  0.58058  1.0000
  H   H1714     1.0  0.60099  0.83633  0.94700  1.0000
  H   H1715     1.0  0.36864  0.92882  0.62272  1.0000
  H   H1716     1.0  0.47217  0.93925  0.66878  1.0000
  C   C1424     1.0  0.56660  0.79812  0.54923  1.0000
  H   H1717     1.0  0.60887  0.80759  0.95859  1.0000
  Fe  Fe192     1.0  0.57970  0.88075  0.98617  1.0000
  H   H1718     1.0  0.36475  0.92388  0.57151  1.0000
  H   H1719     1.0  0.50938  0.98694  0.69502  1.0000
  C   C1425     1.0  0.34613  0.92080  0.53773  1.0000
  C   C1426     1.0  0.55197  0.77773  0.49858  1.0000
  C   C1427     1.0  0.32996  0.93695  0.54263  1.0000
  H   H1720     1.0  0.65092  0.76906  0.89990  1.0000
  H   H1721     1.0  0.35838  0.88636  0.95807  1.0000
  C   C1428     1.0  0.64987  0.84888  0.93670  1.0000
  C   C1429     1.0  0.32861  0.87003  0.98031  1.0000
  C   C1430     1.0  0.55927  0.80415  0.52610  1.0000
  H   H1722     1.0  0.35910  0.90668  0.96411  1.0000
  H   H1723     1.0  0.43846  0.97775  0.72570  1.0000
  C   C1431     1.0  0.44867  0.97501  0.71824  1.0000
  H   H1724     1.0  0.56996  0.91029  0.97156  1.0000
  H   H1725     1.0  0.33578  0.86245  0.97659  1.0000
  H   H1726     1.0  0.32145  0.89496  0.96288  1.0000
  H   H1727     1.0  0.55175  0.83788  0.50588  1.0000
  C   C1432     1.0  0.55008  0.74581  0.83293  1.0000
  C   C1433     1.0  0.32848  0.89684  0.98491  1.0000
  C   C1434     1.0  0.55196  0.79344  0.50056  1.0000
  H   H1728     1.0  0.53707  0.74488  0.83158  1.0000
  C   C1435     1.0  0.62750  0.84693  0.98638  1.0000
  Fe  Fe193     1.0  0.92514  0.20986  0.11883  1.0000
  S   S384      1.0  0.92050  0.19455  0.07657  1.0000
  S   S385      1.0  0.90905  0.22368  0.12806  1.0000
  Fe  Fe194     1.0  0.95333  0.20085  0.14254  1.0000
  S   S386      1.0  0.95028  0.18434  0.10137  1.0000
  H   H1729     1.0  0.66353  0.14258  0.14980  1.0000
  Fe  Fe195     1.0  0.94837  0.20472  0.07465  1.0000
  S   S387      1.0  0.95949  0.21587  0.03065  1.0000
  Fe  Fe196     1.0  0.92239  0.17503  0.10591  1.0000
  S   S388      1.0  0.90455  0.14850  0.09057  1.0000
  S   S389      1.0  0.95276  0.22167  0.11513  1.0000
  S   S390      1.0  0.92560  0.18991  0.14901  1.0000
  Fe  Fe197     1.0  0.70061  0.14064  0.06537  1.0000
  S   S391      1.0  0.70261  0.11905  0.04168  1.0000
  S   S392      1.0  0.68195  0.13925  0.10060  1.0000
  Fe  Fe198     1.0  0.72921  0.16611  0.03091  1.0000
  H   H1730     1.0  0.65521  0.13257  0.00816  1.0000
  S   S393      1.0  0.74412  0.19383  0.02530  1.0000
  H   H1731     1.0  0.74625  0.00900  0.25801  1.0000
  S   S394      1.0  0.69297  0.11689  0.45322  1.0000
  Fe  Fe199     1.0  0.73032  0.13360  0.04832  1.0000
  S   S395      1.0  0.75145  0.12734  0.06646  1.0000
  S   S396      1.0  0.70115  0.15436  0.02303  1.0000
  S   S397      1.0  0.72819  0.15428  0.07502  1.0000
  Fe  Fe200     1.0  0.81268  0.07074  0.12007  1.0000
  S   S398      1.0  0.79140  0.06290  0.15123  1.0000
  S   S399      1.0  0.83459  0.09576  0.13357  1.0000
  Fe  Fe201     1.0  0.79499  0.03857  0.08064  1.0000
  S   S400      1.0  0.77305  0.02874  0.10934  1.0000
  S   S401      1.0  0.79929  0.02503  0.03986  1.0000
  Fe  Fe202     1.0  0.77474  0.05480  0.10918  1.0000
  S   S402      1.0  0.75067  0.05817  0.10166  1.0000
  Fe  Fe203     1.0  0.79125  0.03744  0.14958  1.0000
  S   S403      1.0  0.79278  0.02197  0.19006  1.0000
  S   S404      1.0  0.79568  0.06421  0.07816  1.0000
  S   S405      1.0  0.81343  0.04571  0.12062  1.0000
  C   C1436     1.0  0.78383  0.01035  0.01481  1.0000
  H   H1732     1.0  0.74052  0.99843  0.39529  1.0000
  C   C1437     1.0  0.76593  0.21493  0.44802  1.0000
  S   S406      1.0  0.97674  0.20634  0.17383  1.0000
  H   H1733     1.0  0.88187  0.16828  0.09575  1.0000
  C   C1438     1.0  0.95591  0.22598  0.46283  1.0000
  H   H1734     1.0  0.79149  0.04774  0.99524  1.0000
  C   C1439     1.0  0.77986  0.01153  0.21968  1.0000
  H   H1735     1.0  0.76399  0.22799  0.01573  1.0000
  C   C1440     1.0  0.78789  0.03510  0.41497  1.0000
  H   H1736     1.0  0.66944  0.12297  0.00405  1.0000
  H   H1737     1.0  0.92459  0.23508  0.07183  1.0000
  C   C1441     1.0  0.84222  0.20541  0.05715  1.0000
  C   C1442     1.0  0.67149  0.12526  0.12850  1.0000
  C   C1443     1.0  0.87152  0.21482  0.05187  1.0000
  H   H1738     1.0  0.90893  0.14364  0.01045  1.0000
  C   C1444     1.0  0.95733  0.20125  0.42525  1.0000
  C   C1445     1.0  0.77680  0.99612  0.46540  1.0000
  C   C1446     1.0  0.67816  0.11640  0.42403  1.0000
  C   C1447     1.0  0.67337  0.10392  0.40129  1.0000
  H   H1739     1.0  0.86126  0.22551  0.10040  1.0000
  C   C1448     1.0  0.67092  0.12781  0.42307  1.0000
  H   H1740     1.0  0.67888  0.09504  0.40158  1.0000
  H   H1741     1.0  0.98001  0.19667  0.02514  1.0000
  C   C1449     1.0  0.75111  0.07713  0.08954  1.0000
  C   C1450     1.0  0.73612  0.07837  0.08090  1.0000
  C   C1451     1.0  0.73601  0.09355  0.07273  1.0000
  C   C1452     1.0  0.75089  0.10766  0.07379  1.0000
  C   C1453     1.0  0.76587  0.10637  0.08218  1.0000
  C   C1454     1.0  0.76602  0.09115  0.08976  1.0000
  H   H1742     1.0  0.72456  0.06754  0.08070  1.0000
  H   H1743     1.0  0.72442  0.09431  0.06595  1.0000
  H   H1744     1.0  0.77743  0.11723  0.08300  1.0000
  H   H1745     1.0  0.77762  0.09034  0.09645  1.0000
  C   C1455     1.0  0.74575  0.10465  0.47144  1.0000
  C   C1456     1.0  0.79461  0.20857  0.03927  1.0000
  C   C1457     1.0  0.77736  0.19863  0.03616  1.0000
  C   C1458     1.0  0.76614  0.20555  0.02780  1.0000
  H   H1746     1.0  0.80191  0.00585  0.98946  1.0000
  C   C1459     1.0  0.75679  0.00648  0.25214  1.0000
  H   H1747     1.0  0.77271  0.18565  0.04053  1.0000
  H   H1748     1.0  0.74576  0.07138  0.16252  1.0000
  C   C1460     1.0  0.85713  0.18801  0.07266  1.0000
  H   H1749     1.0  0.67464  0.13772  0.43984  1.0000
  C   C1461     1.0  0.88504  0.13407  0.10291  1.0000
  C   C1462     1.0  0.87795  0.13700  0.12855  1.0000
  C   C1463     1.0  0.86256  0.12519  0.13735  1.0000
  C   C1464     1.0  0.85389  0.11027  0.12070  1.0000
  C   C1465     1.0  0.86096  0.10734  0.09503  1.0000
  C   C1466     1.0  0.87639  0.11913  0.08630  1.0000
  H   H1750     1.0  0.88434  0.14834  0.14173  1.0000
  H   H1751     1.0  0.85730  0.12768  0.15724  1.0000
  H   H1752     1.0  0.85456  0.09597  0.08194  1.0000
  H   H1753     1.0  0.88167  0.11661  0.06646  1.0000
  C   C1467     1.0  0.84262  0.17362  0.06430  1.0000
  H   H1754     1.0  0.71651  0.06285  0.43346  1.0000
  H   H1755     1.0  0.76513  0.10003  0.15521  1.0000
  H   H1756     1.0  0.66861  0.13231  0.03934  1.0000
  H   H1757     1.0  0.87220  0.22754  0.04942  1.0000
  H   H1758     1.0  0.76280  0.01198  0.03489  1.0000
  H   H1759     1.0  0.71638  0.03648  0.44690  1.0000
  H   H1760     1.0  0.80307  0.20304  0.04599  1.0000
  H   H1761     1.0  0.66484  0.09700  0.02651  1.0000
  H   H1762     1.0  0.95581  0.23557  0.47801  1.0000
  C   C1468     1.0  0.66220  0.09862  0.15157  1.0000
  C   C1469     1.0  0.78978  0.23241  0.02514  1.0000
  C   C1470     1.0  0.79510  0.23213  0.45878  1.0000
  N   N99       1.0  0.72830  0.09221  0.46948  1.0000
  C   C1471     1.0  0.65882  0.12648  0.40015  1.0000
  C   C1472     1.0  0.98108  0.23953  0.38234  1.0000
  C   C1473     1.0  0.77462  0.99216  0.26071  1.0000
  C   C1474     1.0  0.77056  0.02562  0.40953  1.0000
  H   H1763     1.0  0.80576  0.23071  0.11199  1.0000
  C   C1475     1.0  0.76091  0.99520  0.26884  1.0000
  H   H1764     1.0  0.83139  0.19900  0.07090  1.0000
  H   H1765     1.0  0.83121  0.17413  0.05560  1.0000
  H   H1766     1.0  0.79663  0.03531  0.39866  1.0000
  C   C1476     1.0  0.76444  0.21792  0.09775  1.0000
  H   H1767     1.0  0.84325  0.21830  0.05546  1.0000
  C   C1477     1.0  0.76325  0.23300  0.09539  1.0000
  H   H1768     1.0  0.85627  0.14376  0.08095  1.0000
  H   H1769     1.0  0.70759  0.08425  0.43666  1.0000
  H   H1770     1.0  0.83119  0.14704  0.06106  1.0000
  H   H1771     1.0  0.88267  0.19590  0.09147  1.0000
  C   C1478     1.0  0.80097  0.22553  0.03390  1.0000
  H   H1772     1.0  0.75519  0.20355  0.45098  1.0000
  H   H1773     1.0  0.86660  0.06681  0.10853  1.0000
  H   H1774     1.0  0.96015  0.21276  0.22559  1.0000
  H   H1775     1.0  0.79467  0.99793  0.23078  1.0000
  H   H1776     1.0  0.83786  0.02070  0.14645  1.0000
  H   H1777     1.0  0.95778  0.19127  0.41174  1.0000
  C   C1479     1.0  0.72156  0.06212  0.45552  1.0000
  N   N100      1.0  0.84466  0.06836  0.20169  1.0000
  C   C1480     1.0  0.85560  0.08624  0.20429  1.0000
  C   C1481     1.0  0.82721  0.06657  0.19864  1.0000
  C   C1482     1.0  0.84712  0.06098  0.23004  1.0000
  C   C1483     1.0  0.84797  0.05981  0.17568  1.0000
  C   C1484     1.0  0.85724  0.06842  0.15154  1.0000
  C   C1485     1.0  0.84097  0.04233  0.17295  1.0000
  C   C1486     1.0  0.85980  0.05999  0.12693  1.0000
  C   C1487     1.0  0.84371  0.03404  0.14834  1.0000
  C   C1488     1.0  0.85313  0.04285  0.12540  1.0000
  H   H1778     1.0  0.85364  0.09220  0.22496  1.0000
  H   H1779     1.0  0.86897  0.08840  0.20458  1.0000
  H   H1780     1.0  0.85292  0.09305  0.18560  1.0000
  H   H1781     1.0  0.82489  0.07194  0.17763  1.0000
  H   H1782     1.0  0.82398  0.07283  0.21751  1.0000
  H   H1783     1.0  0.81827  0.05345  0.19768  1.0000
  H   H1784     1.0  0.85951  0.06037  0.23156  1.0000
  H   H1785     1.0  0.84623  0.06814  0.25002  1.0000
  H   H1786     1.0  0.83744  0.04833  0.23231  1.0000
  H   H1787     1.0  0.86220  0.08167  0.15064  1.0000
  H   H1788     1.0  0.83263  0.03489  0.18905  1.0000
  C   C1489     1.0  0.96417  0.23012  0.43628  1.0000
  H   H1789     1.0  0.95139  0.21615  0.36132  1.0000
  Fe  Fe204     1.0  0.70437  0.13329  0.99959  1.0000
  N   N101      1.0  0.72171  0.11795  0.14620  1.0000
  C   C1490     1.0  0.71254  0.11411  0.11663  1.0000
  C   C1491     1.0  0.71005  0.11763  0.16941  1.0000
  C   C1492     1.0  0.73462  0.13506  0.14594  1.0000
  C   C1493     1.0  0.72862  0.10552  0.15189  1.0000
  C   C1494     1.0  0.74593  0.10925  0.15184  1.0000
  C   C1495     1.0  0.71784  0.08885  0.15598  1.0000
  C   C1496     1.0  0.75196  0.09708  0.15631  1.0000
  C   C1497     1.0  0.72402  0.07676  0.16018  1.0000
  C   C1498     1.0  0.74104  0.08088  0.16039  1.0000
  H   H1790     1.0  0.72101  0.11466  0.09860  1.0000
  H   H1791     1.0  0.70240  0.10156  0.11514  1.0000
  H   H1792     1.0  0.70688  0.12301  0.11156  1.0000
  H   H1793     1.0  0.69869  0.10596  0.16858  1.0000
  H   H1794     1.0  0.70538  0.12749  0.16653  1.0000
  H   H1795     1.0  0.71615  0.11930  0.19226  1.0000
  H   H1796     1.0  0.74286  0.13669  0.12696  1.0000
  H   H1797     1.0  0.72899  0.14416  0.14280  1.0000
  H   H1798     1.0  0.74240  0.13856  0.16727  1.0000
  H   H1799     1.0  0.75506  0.12133  0.14735  1.0000
  H   H1800     1.0  0.70450  0.08490  0.15511  1.0000
  C   C1499     1.0  0.76605  0.01445  0.22767  1.0000
  H   H1801     1.0  0.71557  0.06403  0.16247  1.0000
  C   C1500     1.0  0.78406  0.00036  0.23656  1.0000
  C   C1501     1.0  0.74567  0.00769  0.37793  1.0000
  C   C1502     1.0  0.66085  0.12491  0.01966  1.0000
  H   H1802     1.0  0.98326  0.22320  0.08129  1.0000
  C   C1503     1.0  0.97512  0.21643  0.00612  1.0000
  C   C1504     1.0  0.94931  0.19729  0.45205  1.0000
  H   H1803     1.0  0.80143  0.01301  0.48167  1.0000
  C   C1505     1.0  0.87093  0.16982  0.08683  1.0000
  C   C1506     1.0  0.78381  0.04376  0.46438  1.0000
  C   C1507     1.0  0.77046  0.00272  0.37960  1.0000
  H   H1804     1.0  0.95775  0.19935  0.36372  1.0000
  H   H1805     1.0  0.94402  0.18465  0.45887  1.0000
  C   C1508     1.0  0.76676  0.03458  0.45986  1.0000
  H   H1806     1.0  0.94634  0.15877  0.02856  1.0000
  C   C1509     1.0  0.84242  0.15789  0.06727  1.0000
  C   C1510     1.0  0.72142  0.04682  0.46295  1.0000
  N   N102      1.0  0.85775  0.20488  0.07055  1.0000
  H   H1807     1.0  0.93082  0.16238  0.04800  1.0000
  H   H1808     1.0  0.67661  0.10495  0.11237  1.0000
  C   C1511     1.0  0.86076  0.21279  0.10093  1.0000
  N   N103      1.0  0.76412  0.01580  0.38113  1.0000
  C   C1512     1.0  0.91949  0.17533  0.00519  1.0000
  C   C1513     1.0  0.67078  0.10926  0.12921  1.0000
  H   H1809     1.0  0.88388  0.21632  0.06164  1.0000
  H   H1810     1.0  0.72119  0.10536  0.43523  1.0000
  H   H1811     1.0  0.72786  0.09019  0.42125  1.0000
  H   H1812     1.0  0.78251  0.20756  0.47431  1.0000
  C   C1514     1.0  0.66321  0.13029  0.15016  1.0000
  C   C1515     1.0  0.85653  0.15599  0.07849  1.0000
  N   N104      1.0  0.97391  0.22170  0.38845  1.0000
  C   C1516     1.0  0.94859  0.20962  0.47078  1.0000
  H   H1813     1.0  0.66394  0.10511  0.06251  1.0000
  C   C1517     1.0  0.77251  0.22249  0.02223  1.0000
  C   C1518     1.0  0.96508  0.21782  0.41655  1.0000
  C   C1519     1.0  0.79419  0.23206  0.10822  1.0000
  H   H1814     1.0  0.75871  0.03393  0.47785  1.0000
  H   H1815     1.0  0.76258  0.02297  0.21515  1.0000
  H   H1816     1.0  0.80768  0.05077  0.44606  1.0000
  C   C1520     1.0  0.93926  0.16664  0.02922  1.0000
  H   H1817     1.0  0.76613  0.03695  0.35628  1.0000
  C   C1521     1.0  0.96236  0.21293  0.36260  1.0000
  H   H1818     1.0  0.74003  0.01682  0.37921  1.0000
  H   H1819     1.0  0.66174  0.08627  0.15189  1.0000
  C   C1522     1.0  0.87126  0.18559  0.08411  1.0000
  H   H1820     1.0  0.75347  0.20655  0.09339  1.0000
  H   H1821     1.0  0.92726  0.18832  0.01276  1.0000
  H   H1822     1.0  0.87278  0.21387  0.11186  1.0000
  C   C1523     1.0  0.72794  0.07582  0.47632  1.0000
  H   H1823     1.0  0.83926  0.19985  0.03401  1.0000
  C   C1524     1.0  0.65620  0.09903  0.04184  1.0000
  H   H1824     1.0  0.80657  0.23354  0.47075  1.0000
  S   S407      1.0  0.73248  0.14601  0.00442  1.0000
  H   H1825     1.0  0.65319  0.13528  0.39988  1.0000
  H   H1826     1.0  0.94835  0.17947  0.03497  1.0000
  C   C1525     1.0  0.79436  0.04400  0.44201  1.0000
  H   H1827     1.0  0.78425  0.00773  0.38053  1.0000
  C   C1526     1.0  0.78882  0.00289  0.99138  1.0000
  H   H1828     1.0  0.74693  0.01811  0.43160  1.0000
  H   H1829     1.0  0.86997  0.20903  0.02907  1.0000
  H   H1830     1.0  0.76602  0.99515  0.35838  1.0000
  H   H1831     1.0  0.75342  0.10143  0.45554  1.0000
  H   H1832     1.0  0.78348  0.03127  0.35334  1.0000
  H   H1833     1.0  0.91053  0.17001  0.02291  1.0000
  C   C1527     1.0  0.98318  0.20572  0.00811  1.0000
  H   H1834     1.0  0.74203  0.99232  0.99799  1.0000
  C   C1528     1.0  0.76015  0.02551  0.43300  1.0000
  H   H1835     1.0  0.85476  0.03636  0.10591  1.0000
  H   H1836     1.0  0.78072  0.20565  0.10503  1.0000
  C   C1529     1.0  0.76981  0.02637  0.35510  1.0000
  C   C1530     1.0  0.66137  0.10269  0.37818  1.0000
  C   C1531     1.0  0.76685  0.00636  0.01705  1.0000
  C   C1532     1.0  0.72094  0.09290  0.43928  1.0000
  H   H1837     1.0  0.96858  0.21613  0.34102  1.0000
  H   H1838     1.0  0.76436  0.01935  0.33350  1.0000
  H   H1839     1.0  0.97055  0.22238  0.27803  1.0000
  C   C1533     1.0  0.97303  0.21578  0.23238  1.0000
  S   S408      1.0  0.82287  0.23745  0.03959  1.0000
  C   C1534     1.0  0.97899  0.22124  0.26224  1.0000
  H   H1840     1.0  0.98355  0.20289  0.39302  1.0000
  H   H1841     1.0  0.74650  0.11717  0.46648  1.0000
  H   H1842     1.0  0.85081  0.20556  0.11580  1.0000
  C   C1535     1.0  0.90811  0.23836  0.10288  1.0000
  C   C1536     1.0  0.77984  0.21746  0.10429  1.0000
  C   C1537     1.0  0.65458  0.11963  0.17250  1.0000
  H   H1843     1.0  0.75127  0.23323  0.08950  1.0000
  H   H1844     1.0  0.74124  0.00083  0.35593  1.0000
  C   C1538     1.0  0.78137  0.21720  0.46112  1.0000
  H   H1845     1.0  0.65774  0.09293  0.36107  1.0000
  H   H1846     1.0  0.78893  0.05020  0.48574  1.0000
  H   H1847     1.0  0.71860  0.10913  0.48645  1.0000
  C   C1539     1.0  0.75508  0.99520  0.99597  1.0000
  H   H1848     1.0  0.76620  0.99432  0.39850  1.0000
  H   H1849     1.0  0.66922  0.12484  0.48725  1.0000
  H   H1850     1.0  0.92488  0.14014  0.99266  1.0000
  C   C1540     1.0  0.65405  0.10370  0.17343  1.0000
  C   C1541     1.0  0.65387  0.11390  0.37758  1.0000
  C   C1542     1.0  0.76424  0.22746  0.43189  1.0000
  H   H1851     1.0  0.75213  0.22564  0.42195  1.0000
  C   C1543     1.0  0.98363  0.21391  0.21164  1.0000
  C   C1544     1.0  0.78830  0.00824  0.48551  1.0000
  C   C1545     1.0  0.91836  0.14853  0.99329  1.0000
  N   N105      1.0  0.92987  0.16590  0.00055  1.0000
  H   H1852     1.0  0.98481  0.21216  0.11314  1.0000
  C   C1546     1.0  0.91664  0.24136  0.07654  1.0000
  Fe  Fe205     1.0  0.92987  0.21377  0.61215  1.0000
  S   S409      1.0  0.92446  0.19702  0.57117  1.0000
  H   H1853     1.0  0.66940  0.10331  0.77930  1.0000
  Fe  Fe206     1.0  0.94740  0.19599  0.64763  1.0000
  S   S410      1.0  0.94336  0.17788  0.60894  1.0000
  S   S411      1.0  0.95570  0.19314  0.69585  1.0000
  Fe  Fe207     1.0  0.95097  0.19973  0.57922  1.0000
  S   S412      1.0  0.96701  0.19888  0.54055  1.0000
  Fe  Fe208     1.0  0.91717  0.17622  0.60323  1.0000
  S   S413      1.0  0.89479  0.15183  0.58956  1.0000
  S   S414      1.0  0.95686  0.21794  0.61857  1.0000
  S   S415      1.0  0.92068  0.19292  0.64347  1.0000
  Fe  Fe209     1.0  0.69957  0.13773  0.56294  1.0000
  S   S416      1.0  0.70378  0.11823  0.53610  1.0000
  S   S417      1.0  0.67521  0.12760  0.58793  1.0000
  Fe  Fe210     1.0  0.72760  0.16570  0.53167  1.0000
  H   H1854     1.0  0.75179  0.10584  0.49421  1.0000
  S   S418      1.0  0.74183  0.19369  0.52648  1.0000
  H   H1855     1.0  0.80351  0.03071  0.91365  1.0000
  S   S419      1.0  0.69088  0.11862  0.95624  1.0000
  Fe  Fe211     1.0  0.73103  0.13381  0.54407  1.0000
  S   S420      1.0  0.75251  0.12591  0.54694  1.0000
  S   S421      1.0  0.69961  0.15243  0.52207  1.0000
  S   S422      1.0  0.72720  0.15240  0.57436  1.0000
  Fe  Fe212     1.0  0.81276  0.06818  0.62738  1.0000
  S   S423      1.0  0.79069  0.05898  0.65674  1.0000
  S   S424      1.0  0.83530  0.09153  0.64555  1.0000
  Fe  Fe213     1.0  0.79423  0.04066  0.57921  1.0000
  S   S425      1.0  0.77117  0.03022  0.60485  1.0000
  S   S426      1.0  0.79798  0.02998  0.53449  1.0000
  Fe  Fe214     1.0  0.77543  0.05664  0.61382  1.0000
  S   S427      1.0  0.75333  0.06364  0.61266  1.0000
  Fe  Fe215     1.0  0.78812  0.03318  0.64602  1.0000
  S   S428      1.0  0.78219  0.01023  0.67475  1.0000
  S   S429      1.0  0.79733  0.06710  0.58522  1.0000
  S   S430      1.0  0.81131  0.04239  0.61959  1.0000
  C   C1547     1.0  0.78298  0.01426  0.51047  1.0000
  C   C1548     1.0  0.71585  0.13298  0.86795  1.0000
  C   C1549     1.0  0.65305  0.11230  0.63089  1.0000
  C   C1550     1.0  0.79268  0.21264  0.54267  1.0000
  H   H1856     1.0  0.91158  0.14733  0.97119  1.0000
  C   C1551     1.0  0.87711  0.18637  0.57030  1.0000
  S   S431      1.0  0.92147  0.23421  0.62219  1.0000
  C   C1552     1.0  0.77498  0.00376  0.71124  1.0000
  H   H1857     1.0  0.95127  0.15318  0.97959  1.0000
  H   H1858     1.0  0.77596  0.01949  0.84106  1.0000
  H   H1859     1.0  0.77215  0.18861  0.54341  1.0000
  H   H1860     1.0  0.82601  0.19638  0.53267  1.0000
  C   C1553     1.0  0.95575  0.19297  0.94013  1.0000
  C   C1554     1.0  0.66978  0.12209  0.62546  1.0000
  H   H1861     1.0  0.68521  0.12877  0.69805  1.0000
  C   C1555     1.0  0.68133  0.12777  0.64997  1.0000
  C   C1556     1.0  0.94173  0.17232  0.97673  1.0000
  H   H1862     1.0  0.69421  0.13536  0.64634  1.0000
  C   C1557     1.0  0.67444  0.11718  0.92980  1.0000
  H   H1863     1.0  0.75213  0.02018  0.93177  1.0000
  C   C1558     1.0  0.91034  0.12424  0.63995  1.0000
  H   H1864     1.0  0.71081  0.12204  0.82404  1.0000
  H   H1865     1.0  0.71807  0.14444  0.91167  1.0000
  C   C1559     1.0  0.66693  0.12888  0.80442  1.0000
  C   C1560     1.0  0.75288  0.08054  0.59321  1.0000
  C   C1561     1.0  0.73931  0.08488  0.59578  1.0000
  C   C1562     1.0  0.73888  0.09866  0.58143  1.0000
  C   C1563     1.0  0.75217  0.10829  0.56476  1.0000
  C   C1564     1.0  0.76561  0.10380  0.56180  1.0000
  C   C1565     1.0  0.76587  0.08985  0.57568  1.0000
  H   H1866     1.0  0.72916  0.07763  0.60917  1.0000
  H   H1867     1.0  0.72844  0.10199  0.58374  1.0000
  H   H1868     1.0  0.77585  0.11113  0.54868  1.0000
  H   H1869     1.0  0.77609  0.08629  0.57292  1.0000
  C   C1566     1.0  0.79771  0.22956  0.53765  1.0000
  H   H1870     1.0  0.65963  0.12429  0.78277  1.0000
  H   H1871     1.0  0.97335  0.23643  0.98184  1.0000
  C   C1567     1.0  0.76344  0.20720  0.53162  1.0000
  C   C1568     1.0  0.76846  0.22415  0.52695  1.0000
  C   C1569     1.0  0.78542  0.23524  0.52989  1.0000
  H   H1872     1.0  0.90624  0.14525  0.67818  1.0000
  H   H1873     1.0  0.74905  0.01828  0.87959  1.0000
  C   C1570     1.0  0.76785  0.00875  0.76156  1.0000
  C   C1571     1.0  0.83568  0.20850  0.52700  1.0000
  C   C1572     1.0  0.87792  0.13556  0.60557  1.0000
  C   C1573     1.0  0.87480  0.13559  0.63594  1.0000
  C   C1574     1.0  0.86178  0.12204  0.64766  1.0000
  C   C1575     1.0  0.85145  0.10835  0.62920  1.0000
  C   C1576     1.0  0.85429  0.10852  0.59870  1.0000
  C   C1577     1.0  0.86747  0.12196  0.58708  1.0000
  H   H1874     1.0  0.88240  0.14605  0.65039  1.0000
  H   H1875     1.0  0.85968  0.12215  0.67125  1.0000
  H   H1876     1.0  0.84655  0.09814  0.58412  1.0000
  H   H1877     1.0  0.86969  0.12174  0.56354  1.0000
  C   C1578     1.0  0.71886  0.09702  0.49152  1.0000
  H   H1878     1.0  0.76163  0.01254  0.53406  1.0000
  H   H1879     1.0  0.65856  0.12241  0.82221  1.0000
  C   C1579     1.0  0.65940  0.11432  0.68483  1.0000
  H   H1880     1.0  0.97169  0.16409  0.94177  1.0000
  C   C1580     1.0  0.79916  0.04019  0.95474  1.0000
  H   H1881     1.0  0.93308  0.13046  0.60324  1.0000
  H   H1882     1.0  0.90855  0.12992  0.61883  1.0000
  C   C1581     1.0  0.94291  0.13899  0.61808  1.0000
  H   H1883     1.0  0.81217  0.04531  0.96240  1.0000
  C   C1582     1.0  0.97312  0.20582  0.71995  1.0000
  H   H1884     1.0  0.93729  0.19444  0.96703  1.0000
  H   H1885     1.0  0.96128  0.19474  0.75983  1.0000
  C   C1583     1.0  0.92452  0.12801  0.68827  1.0000
  N   N106      1.0  0.80470  0.11683  0.63419  1.0000
  C   C1584     1.0  0.81154  0.11442  0.60566  1.0000
  C   C1585     1.0  0.81873  0.12662  0.65567  1.0000
  C   C1586     1.0  0.79599  0.10038  0.64671  1.0000
  C   C1587     1.0  0.79382  0.12570  0.62884  1.0000
  C   C1588     1.0  0.80015  0.14132  0.61574  1.0000
  C   C1589     1.0  0.77685  0.11924  0.63609  1.0000
  C   C1590     1.0  0.79003  0.14976  0.60969  1.0000
  C   C1591     1.0  0.76692  0.12789  0.63027  1.0000
  C   C1592     1.0  0.77343  0.14302  0.61685  1.0000
  H   H1886     1.0  0.82049  0.12613  0.59708  1.0000
  H   H1887     1.0  0.81844  0.10639  0.60820  1.0000
  H   H1888     1.0  0.80145  0.10851  0.58802  1.0000
  H   H1889     1.0  0.81410  0.12906  0.67716  1.0000
  H   H1890     1.0  0.82685  0.13866  0.64691  1.0000
  H   H1891     1.0  0.82691  0.12003  0.66083  1.0000
  H   H1892     1.0  0.78562  0.09206  0.63123  1.0000
  H   H1893     1.0  0.80453  0.09413  0.65065  1.0000
  H   H1894     1.0  0.79099  0.10121  0.66876  1.0000
  H   H1895     1.0  0.81292  0.14699  0.60970  1.0000
  H   H1896     1.0  0.77075  0.10731  0.64550  1.0000
  H   H1897     1.0  0.79494  0.16146  0.59895  1.0000
  H   H1898     1.0  0.75389  0.12252  0.63515  1.0000
  H   H1899     1.0  0.76546  0.14934  0.61132  1.0000
  H   H1900     1.0  0.68547  0.13108  0.75922  1.0000
  C   C1593     1.0  0.76596  0.00800  0.51512  1.0000
  C   C1594     1.0  0.95200  0.16417  0.96872  1.0000
  H   H1901     1.0  0.86884  0.23939  0.56165  1.0000
  H   H1902     1.0  0.86066  0.16870  0.53765  1.0000
  H   H1903     1.0  0.70377  0.13189  0.77935  1.0000
  H   H1904     1.0  0.89802  0.11940  0.65009  1.0000
  H   H1905     1.0  0.66410  0.15097  0.66391  1.0000
  C   C1595     1.0  0.95413  0.15486  0.66451  1.0000
  C   C1596     1.0  0.77318  0.01441  0.73290  1.0000
  H   H1906     1.0  0.92026  0.23006  0.55733  1.0000
  H   H1907     1.0  0.66966  0.09846  0.50050  1.0000
  C   C1597     1.0  0.84076  0.21702  0.57897  1.0000
  H   H1908     1.0  0.97637  0.23912  0.73706  1.0000
  C   C1598     1.0  0.85849  0.20540  0.55729  1.0000
  C   C1599     1.0  0.87217  0.21095  0.57876  1.0000
  C   C1600     1.0  0.75363  0.00833  0.88055  1.0000
  C   C1601     1.0  0.96564  0.18470  0.93290  1.0000
  C   C1602     1.0  0.77573  0.20155  0.53961  1.0000
  N   N107      1.0  0.84886  0.21549  0.55144  1.0000
  C   C1603     1.0  0.71117  0.14116  0.89013  1.0000
  H   H1909     1.0  0.86771  0.23166  0.52401  1.0000
  H   H1910     1.0  0.87603  0.22269  0.59077  1.0000
  H   H1911     1.0  0.80192  0.20802  0.54898  1.0000
  H   H1912     1.0  0.82900  0.21663  0.52269  1.0000
  C   C1604     1.0  0.67615  0.12401  0.67938  1.0000
  H   H1913     1.0  0.74665  0.99925  0.89711  1.0000
  C   C1605     1.0  0.77678  0.00095  0.88785  1.0000
  C   C1606     1.0  0.98408  0.23040  0.51898  1.0000
  H   H1914     1.0  0.91315  0.11343  0.63425  1.0000
  H   H1915     1.0  0.83235  0.20473  0.58649  1.0000
  C   C1607     1.0  0.67725  0.10787  0.80050  1.0000
  H   H1916     1.0  0.66998  0.10081  0.81909  1.0000
  C   C1608     1.0  0.70660  0.12826  0.84057  1.0000
  H   H1917     1.0  0.93764  0.23263  0.70907  1.0000
  H   H1918     1.0  0.93275  0.13674  0.70613  1.0000
  H   H1919     1.0  0.75913  0.22872  0.52080  1.0000
  H   H1920     1.0  0.91209  0.12186  0.69768  1.0000
  H   H1921     1.0  0.89177  0.20611  0.60140  1.0000
  C   C1609     1.0  0.97235  0.20388  0.75108  1.0000
  C   C1610     1.0  0.88129  0.20154  0.58509  1.0000
  C   C1611     1.0  0.96375  0.17031  0.94713  1.0000
  H   H1922     1.0  0.66818  0.13562  0.95116  1.0000
  H   H1923     1.0  0.92745  0.15955  0.68307  1.0000
  H   H1924     1.0  0.66522  0.12775  0.52539  1.0000
  H   H1925     1.0  0.91690  0.15606  0.64685  1.0000
  C   C1612     1.0  0.69212  0.13131  0.83484  1.0000
  C   C1613     1.0  0.94401  0.18700  0.96178  1.0000
  H   H1926     1.0  0.66513  0.10167  0.53793  1.0000
  H   H1927     1.0  0.75024  0.00166  0.85828  1.0000
  C   C1614     1.0  0.97945  0.22806  0.98363  1.0000
  C   C1615     1.0  0.78433  0.99812  0.59170  1.0000
  C   C1616     1.0  0.67043  0.10585  0.90521  1.0000
  C   C1617     1.0  0.77069  0.03447  0.96433  1.0000
  H   H1928     1.0  0.97847  0.23488  0.53605  1.0000
  H   H1929     1.0  0.76664  0.01720  0.77799  1.0000
  C   C1618     1.0  0.76538  0.02581  0.93677  1.0000
  C   C1619     1.0  0.77696  0.02421  0.91713  1.0000
  C   C1620     1.0  0.66527  0.12679  0.93258  1.0000
  H   H1930     1.0  0.91206  0.17530  0.98443  1.0000
  C   C1621     1.0  0.69261  0.13464  0.78131  1.0000
  N   N108      1.0  0.68233  0.12582  0.80591  1.0000
  H   H1931     1.0  0.77603  0.02706  0.72768  1.0000
  N   N109      1.0  0.92360  0.13638  0.66034  1.0000
  C   C1622     1.0  0.94015  0.14325  0.64752  1.0000
  C   C1623     1.0  0.68785  0.13993  0.85783  1.0000
  C   C1624     1.0  0.86011  0.23221  0.54290  1.0000
  C   C1625     1.0  0.98073  0.21361  0.51671  1.0000
  H   H1932     1.0  0.85316  0.23974  0.53600  1.0000
  H   H1933     1.0  0.95385  0.22562  0.70416  1.0000
  H   H1934     1.0  0.77327  0.99388  0.86600  1.0000
  C   C1626     1.0  0.91836  0.14988  0.66749  1.0000
  H   H1935     1.0  0.67699  0.14269  0.85591  1.0000
  C   C1627     1.0  0.72757  0.04472  0.49107  1.0000
  C   C1628     1.0  0.79403  0.03169  0.92701  1.0000
  S   S432      1.0  0.73238  0.14759  0.50213  1.0000
  H   H1936     1.0  0.68799  0.10449  0.79825  1.0000
  H   H1937     1.0  0.67741  0.09834  0.90276  1.0000
  C   C1629     1.0  0.69738  0.14484  0.88489  1.0000
  C   C1630     1.0  0.97200  0.15775  0.62361  1.0000
  C   C1631     1.0  0.78013  0.02594  0.86350  1.0000
  H   H1938     1.0  0.98405  0.16362  0.61421  1.0000
  H   H1939     1.0  0.72441  0.09842  0.51471  1.0000
  H   H1940     1.0  0.73865  0.05628  0.53391  1.0000
  H   H1941     1.0  0.92942  0.11844  0.68416  1.0000
  C   C1632     1.0  0.95864  0.14620  0.60646  1.0000
  H   H1942     1.0  0.88430  0.17916  0.57514  1.0000
  H   H1943     1.0  0.84434  0.18449  0.52601  1.0000
  Fe  Fe216     1.0  0.70468  0.13325  0.49578  1.0000
  H   H1944     1.0  0.66971  0.14224  0.80650  1.0000
  C   C1633     1.0  0.65749  0.10411  0.88375  1.0000
  H   H1945     1.0  0.84998  0.22337  0.59777  1.0000
  H   H1946     1.0  0.97511  0.18973  0.91684  1.0000
  H   H1947     1.0  0.95302  0.15891  0.68690  1.0000
  C   C1634     1.0  0.73394  0.05790  0.51189  1.0000
  H   H1948     1.0  0.72659  0.13013  0.87222  1.0000
  N   N110      1.0  0.77184  0.01503  0.88786  1.0000
  H   H1949     1.0  0.69698  0.14821  0.78484  1.0000
  H   H1950     1.0  0.77731  0.03707  0.86350  1.0000
  C   C1635     1.0  0.85449  0.18978  0.54267  1.0000
  H   H1951     1.0  0.83321  0.22439  0.57542  1.0000
  C   C1636     1.0  0.96975  0.16204  0.65261  1.0000
  H   H1952     1.0  0.78730  0.00534  0.61334  1.0000
  H   H1953     1.0  0.95765  0.20445  0.92963  1.0000
  H   H1954     1.0  0.79608  0.99737  0.58559  1.0000
  H   H1955     1.0  0.69370  0.15102  0.90245  1.0000
  C   C1637     1.0  0.86375  0.18050  0.54916  1.0000
  H   H1956     1.0  0.94338  0.22955  0.67229  1.0000
  C   C1638     1.0  0.73414  0.07320  0.50466  1.0000
  H   H1957     1.0  0.79385  0.03009  0.86536  1.0000
  H   H1958     1.0  0.77057  0.99229  0.90549  1.0000
  H   H1959     1.0  0.98006  0.17131  0.66576  1.0000
  H   H1960     1.0  0.94288  0.20656  0.49206  1.0000
  C   C1639     1.0  0.76403  0.99231  0.76911  1.0000
  H   H1961     1.0  0.78120  0.00544  0.57456  1.0000
  H   H1962     1.0  0.73914  0.08298  0.52162  1.0000
  H   H1963     1.0  0.84104  0.20719  0.50557  1.0000
  C   C1640     1.0  0.94840  0.23411  0.69552  1.0000
  H   H1964     1.0  0.96041  0.14314  0.58369  1.0000
  C   C1641     1.0  0.75446  0.99599  0.49491  1.0000
  C   C1642     1.0  0.65926  0.09655  0.51532  1.0000
  H   H1965     1.0  0.76169  0.03519  0.97941  1.0000
  H   H1966     1.0  0.72732  0.03283  0.49685  1.0000
  H   H1967     1.0  0.79038  0.00481  0.89184  1.0000
  C   C1643     1.0  0.91496  0.23874  0.56288  1.0000
  H   H1968     1.0  0.65216  0.12992  0.49580  1.0000
  C   C1644     1.0  0.78752  0.04161  0.97331  1.0000
  C   C1645     1.0  0.65229  0.12502  0.91115  1.0000
  H   H1969     1.0  0.65787  0.15879  0.61378  1.0000
  H   H1970     1.0  0.75201  0.99202  0.59008  1.0000
  C   C1646     1.0  0.65918  0.12256  0.50298  1.0000
  H   H1971     1.0  0.70574  0.08783  0.49145  1.0000
  H   H1972     1.0  0.65449  0.09521  0.86528  1.0000
  S   S433      1.0  0.65353  0.11103  0.72274  1.0000
  H   H1973     1.0  0.65688  0.09693  0.97881  1.0000
  H   H1974     1.0  0.65201  0.08312  0.51758  1.0000
  H   H1975     1.0  0.98483  0.21219  0.79495  1.0000
  Fe  Fe217     1.0  0.93934  0.39761  0.28788  1.0000
  S   S434      1.0  0.92458  0.40004  0.24790  1.0000
  S   S435      1.0  0.96752  0.41045  0.29377  1.0000
  Fe  Fe218     1.0  0.90825  0.37281  0.31748  1.0000
  S   S436      1.0  0.89113  0.37355  0.27861  1.0000
  S   S437      1.0  0.90512  0.35670  0.35882  1.0000
  Fe  Fe219     1.0  0.91047  0.37254  0.24814  1.0000
  S   S438      1.0  0.91018  0.35824  0.20479  1.0000
  Fe  Fe220     1.0  0.90655  0.40127  0.28079  1.0000
  S   S439      1.0  0.89444  0.41939  0.27207  1.0000
  S   S440      1.0  0.92656  0.37022  0.28652  1.0000
  S   S441      1.0  0.92229  0.40056  0.32139  1.0000
  H   H1976     1.0  0.97132  0.24444  0.38041  1.0000
  S   S442      1.0  0.83993  0.28882  0.02872  1.0000
  S   S443      1.0  0.85358  0.30611  0.44544  1.0000
  Fe  Fe221     1.0  0.87969  0.28060  0.03813  1.0000
  S   S444      1.0  0.86046  0.27317  0.07226  1.0000
  H   H1977     1.0  0.95412  0.48501  0.25758  1.0000
  Fe  Fe222     1.0  0.84139  0.26418  0.03350  1.0000
  H   H1978     1.0  0.86538  0.36401  0.47231  1.0000
  Fe  Fe223     1.0  0.86003  0.29804  0.06627  1.0000
  S   S445      1.0  0.85535  0.31122  0.10704  1.0000
  H   H1979     1.0  0.95278  0.45704  0.26585  1.0000
  S   S446      1.0  0.88105  0.30644  0.03496  1.0000
  H   H1980     1.0  0.96100  0.40437  0.22919  1.0000
  H   H1981     1.0  0.77593  0.25904  0.09695  1.0000
  C   C1647     1.0  0.94625  0.34340  0.20668  1.0000
  H   H1982     1.0  0.97677  0.45063  0.25816  1.0000
  C   C1648     1.0  0.90413  0.44126  0.27764  1.0000
  C   C1649     1.0  0.92009  0.44931  0.29137  1.0000
  C   C1650     1.0  0.92724  0.46663  0.29560  1.0000
  C   C1651     1.0  0.91867  0.47623  0.28598  1.0000
  C   C1652     1.0  0.90274  0.46818  0.27206  1.0000
  C   C1653     1.0  0.89553  0.45083  0.26799  1.0000
  H   H1983     1.0  0.92681  0.44217  0.29920  1.0000
  H   H1984     1.0  0.93947  0.47265  0.30673  1.0000
  H   H1985     1.0  0.89595  0.47531  0.26455  1.0000
  H   H1986     1.0  0.88316  0.44478  0.25745  1.0000
  C   C1654     1.0  0.89452  0.34487  0.17854  1.0000
  C   C1655     1.0  0.89943  0.33814  0.15399  1.0000
  C   C1656     1.0  0.88763  0.32779  0.13207  1.0000
  C   C1657     1.0  0.87071  0.32410  0.13430  1.0000
  C   C1658     1.0  0.86579  0.33089  0.15880  1.0000
  C   C1659     1.0  0.87760  0.34119  0.18085  1.0000
  H   H1987     1.0  0.91247  0.34096  0.15181  1.0000
  H   H1988     1.0  0.89163  0.32271  0.11338  1.0000
  H   H1989     1.0  0.85274  0.32812  0.16080  1.0000
  H   H1990     1.0  0.87360  0.34621  0.19960  1.0000
  C   C1660     1.0  0.89038  0.34254  0.38228  1.0000
  C   C1661     1.0  0.87319  0.33791  0.37820  1.0000
  C   C1662     1.0  0.86218  0.32683  0.39769  1.0000
  C   C1663     1.0  0.86812  0.32026  0.42167  1.0000
  C   C1664     1.0  0.88532  0.32497  0.42585  1.0000
  C   C1665     1.0  0.89630  0.33593  0.40624  1.0000
  H   H1991     1.0  0.86837  0.34286  0.36004  1.0000
  H   H1992     1.0  0.84895  0.32335  0.39411  1.0000
  H   H1993     1.0  0.89018  0.32002  0.44396  1.0000
  H   H1994     1.0  0.90953  0.33938  0.40974  1.0000
  C   C1666     1.0  0.94082  0.34199  0.26063  1.0000
  H   H1995     1.0  0.95575  0.34888  0.18996  1.0000
  C   C1667     1.0  0.97431  0.40968  0.23410  1.0000
  C   C1668     1.0  0.90429  0.26047  0.06179  1.0000
  N   N111      1.0  0.89126  0.39562  0.17443  1.0000
  C   C1669     1.0  0.89167  0.38316  0.15223  1.0000
  C   C1670     1.0  0.88503  0.38708  0.20229  1.0000
  C   C1671     1.0  0.87918  0.40205  0.16227  1.0000
  C   C1672     1.0  0.90772  0.40935  0.18123  1.0000
  C   C1673     1.0  0.90910  0.42317  0.19939  1.0000
  C   C1674     1.0  0.92280  0.40923  0.17124  1.0000
  C   C1675     1.0  0.92449  0.43609  0.20681  1.0000
  C   C1676     1.0  0.93815  0.42226  0.17877  1.0000
  C   C1677     1.0  0.93899  0.43567  0.19644  1.0000
  H   H1996     1.0  0.89955  0.37687  0.16080  1.0000
  H   H1997     1.0  0.87911  0.37312  0.14718  1.0000
  H   H1998     1.0  0.89639  0.38880  0.13074  1.0000
  H   H1999     1.0  0.89344  0.38154  0.21149  1.0000
  H   H2000     1.0  0.87246  0.37692  0.19848  1.0000
  H   H2001     1.0  0.88415  0.39556  0.22009  1.0000
  H   H2002     1.0  0.88414  0.40989  0.14291  1.0000
  H   H2003     1.0  0.86709  0.39193  0.15464  1.0000
  H   H2004     1.0  0.87611  0.40952  0.17924  1.0000
  H   H2005     1.0  0.89833  0.42391  0.20883  1.0000
  H   H2006     1.0  0.92313  0.39909  0.15806  1.0000
  H   H2007     1.0  0.92513  0.44632  0.22123  1.0000
  H   H2008     1.0  0.94951  0.42183  0.17124  1.0000
  H   H2009     1.0  0.95090  0.44564  0.20246  1.0000
  C   C1678     1.0  0.91245  0.32586  0.27585  1.0000
  H   H2010     1.0  0.83498  0.27346  0.11907  1.0000
  C   C1679     1.0  0.80550  0.27322  0.42225  1.0000
  H   H2011     1.0  0.96560  0.33414  0.24570  1.0000
  H   H2012     1.0  0.90914  0.32440  0.32321  1.0000
  C   C1680     1.0  0.93468  0.33823  0.31371  1.0000
  H   H2013     1.0  0.93873  0.34104  0.33715  1.0000
  C   C1681     1.0  0.91795  0.32886  0.30589  1.0000
  H   H2014     1.0  0.80228  0.27050  0.48202  1.0000
  H   H2015     1.0  0.82165  0.28410  0.08262  1.0000
  C   C1682     1.0  0.95691  0.36782  0.23865  1.0000
  C   C1683     1.0  0.98521  0.41254  0.21076  1.0000
  H   H2016     1.0  0.96207  0.37370  0.26115  1.0000
  C   C1684     1.0  0.89399  0.37759  0.42029  1.0000
  H   H2017     1.0  0.79600  0.27775  0.12825  1.0000
  C   C1685     1.0  0.92363  0.33232  0.25345  1.0000
  C   C1686     1.0  0.91482  0.25247  0.05617  1.0000
  H   H2018     1.0  0.86930  0.37636  0.42346  1.0000
  H   H2019     1.0  0.89547  0.38266  0.39823  1.0000
  H   H2020     1.0  0.80406  0.26761  0.15496  1.0000
  C   C1687     1.0  0.87924  0.37392  0.43448  1.0000
  C   C1688     1.0  0.97806  0.46307  0.25440  1.0000
  H   H2021     1.0  0.95857  0.35276  0.29890  1.0000
  C   C1689     1.0  0.96489  0.48229  0.25406  1.0000
  H   H2022     1.0  0.89141  0.24452  0.12926  1.0000
  H   H2023     1.0  0.82348  0.25511  0.13810  1.0000
  H   H2024     1.0  0.83382  0.27048  0.42848  1.0000
  C   C1690     1.0  0.98067  0.41373  0.26370  1.0000
  N   N112      1.0  0.95279  0.34992  0.23758  1.0000
  H   H2025     1.0  0.80195  0.26825  0.39878  1.0000
  C   C1691     1.0  0.89582  0.25748  0.08817  1.0000
  H   H2026     1.0  0.82357  0.28103  0.47251  1.0000
  H   H2027     1.0  0.96625  0.37444  0.22229  1.0000
  C   C1692     1.0  0.80642  0.27405  0.13348  1.0000
  H   H2028     1.0  0.89934  0.31894  0.26988  1.0000
  C   C1693     1.0  0.96416  0.46657  0.25869  1.0000
  C   C1694     1.0  0.82402  0.26136  0.11666  1.0000
  S   S447      1.0  0.90200  0.27413  0.03559  1.0000
  H   H2029     1.0  0.79571  0.27683  0.43070  1.0000
  H   H2030     1.0  0.81780  0.28573  0.13722  1.0000
  C   C1695     1.0  0.88975  0.36300  0.47690  1.0000
  N   N113      1.0  0.80837  0.26343  0.10930  1.0000
  H   H2031     1.0  0.97565  0.35432  0.26370  1.0000
  H   H2032     1.0  0.81198  0.26453  0.06221  1.0000
  H   H2033     1.0  0.92148  0.25478  0.03589  1.0000
  N   N114      1.0  0.80842  0.26118  0.44171  1.0000
  C   C1696     1.0  0.90472  0.36704  0.46188  1.0000
  C   C1697     1.0  0.96836  0.34743  0.24327  1.0000
  H   H2034     1.0  0.97694  0.35197  0.22480  1.0000
  H   H2035     1.0  0.98022  0.40936  0.18789  1.0000
  H   H2036     1.0  0.94564  0.37026  0.23336  1.0000
  H   H2037     1.0  0.79973  0.27513  0.07441  1.0000
  H   H2038     1.0  0.88793  0.26378  0.09300  1.0000
  C   C1698     1.0  0.79343  0.24769  0.10599  1.0000
  C   C1699     1.0  0.81292  0.26876  0.47234  1.0000
  C   C1700     1.0  0.81049  0.27217  0.08093  1.0000
  C   C1701     1.0  0.90672  0.37426  0.43404  1.0000
  H   H2039     1.0  0.90482  0.30073  0.99692  1.0000
  H   H2040     1.0  0.91834  0.33004  0.23074  1.0000
  C   C1702     1.0  0.89787  0.24661  0.10874  1.0000
  C   C1703     1.0  0.94597  0.34479  0.29152  1.0000
  H   H2041     1.0  0.91797  0.37673  0.42235  1.0000
  H   H2042     1.0  0.94208  0.32979  0.20482  1.0000
  C   C1704     1.0  0.87712  0.36680  0.46240  1.0000
  Fe  Fe224     1.0  0.86119  0.29562  0.99770  1.0000
  H   H2043     1.0  0.79437  0.24535  0.02065  1.0000
  S   S448      1.0  0.86091  0.27016  0.99968  1.0000
  H   H2044     1.0  0.81692  0.28488  0.42150  1.0000
  H   H2045     1.0  0.93565  0.34651  0.19936  1.0000
  C   C1705     1.0  0.77748  0.24769  0.09955  1.0000
  H   H2046     1.0  0.82675  0.25420  0.09858  1.0000
  H   H2047     1.0  0.77567  0.25164  0.41663  1.0000
  C   C1706     1.0  0.82282  0.25859  0.43043  1.0000
  H   H2048     1.0  0.97018  0.24309  0.43227  1.0000
  H   H2049     1.0  0.81660  0.26108  0.48794  1.0000
  C   C1707     1.0  0.79384  0.24523  0.44266  1.0000
  C   C1708     1.0  0.77794  0.24242  0.42909  1.0000
  H   H2050     1.0  0.82716  0.25118  0.44550  1.0000
  H   H2051     1.0  0.91495  0.36443  0.47072  1.0000
  H   H2052     1.0  0.81966  0.25220  0.40796  1.0000
  H   H2053     1.0  0.87451  0.33071  0.48596  1.0000
  Fe  Fe225     1.0  0.93663  0.38914  0.77905  1.0000
  S   S449      1.0  0.92005  0.39562  0.74679  1.0000
  S   S450      1.0  0.96329  0.39201  0.77444  1.0000
  Fe  Fe226     1.0  0.90905  0.37412  0.82462  1.0000
  S   S451      1.0  0.89062  0.37958  0.79513  1.0000
  S   S452      1.0  0.90678  0.36619  0.87367  1.0000
  Fe  Fe227     1.0  0.90072  0.37030  0.75629  1.0000
  S   S453      1.0  0.88447  0.34837  0.72490  1.0000
  Fe  Fe228     1.0  0.91139  0.40448  0.78794  1.0000
  S   S454      1.0  0.91160  0.42954  0.80295  1.0000
  S   S455      1.0  0.91794  0.36355  0.78660  1.0000
  S   S456      1.0  0.92930  0.39929  0.81925  1.0000
  H   H2054     1.0  0.96529  0.36159  0.60688  1.0000
  S   S457      1.0  0.84292  0.29492  0.52883  1.0000
  S   S458      1.0  0.86123  0.30529  0.95013  1.0000
  Fe  Fe229     1.0  0.87697  0.27803  0.52521  1.0000
  S   S459      1.0  0.86313  0.27670  0.56655  1.0000
  S   S460      1.0  0.89441  0.26557  0.51738  1.0000
  Fe  Fe230     1.0  0.84020  0.26864  0.53474  1.0000
  H   H2055     1.0  0.93428  0.30552  0.96133  1.0000
  Fe  Fe231     1.0  0.86696  0.30294  0.55749  1.0000
  S   S461      1.0  0.87788  0.32735  0.58550  1.0000
  C   C1709     1.0  0.90119  0.26132  0.57680  1.0000
  S   S462      1.0  0.88258  0.30464  0.51790  1.0000
  H   H2056     1.0  0.96008  0.41376  0.72885  1.0000
  C   C1710     1.0  0.87237  0.33891  0.50269  1.0000
  C   C1711     1.0  0.90212  0.25722  0.54685  1.0000
  H   H2057     1.0  0.89593  0.27004  0.58230  1.0000
  C   C1712     1.0  0.90963  0.44739  0.78856  1.0000
  C   C1713     1.0  0.90288  0.44761  0.75975  1.0000
  C   C1714     1.0  0.90079  0.46179  0.75020  1.0000
  C   C1715     1.0  0.90565  0.47605  0.76902  1.0000
  C   C1716     1.0  0.91263  0.47590  0.79765  1.0000
  C   C1717     1.0  0.91446  0.46164  0.80738  1.0000
  H   H2058     1.0  0.89900  0.43679  0.74501  1.0000
  H   H2059     1.0  0.89530  0.46166  0.72807  1.0000
  C   C1718     1.0  0.90904  0.24594  0.54000  1.0000
  H   H2060     1.0  0.91968  0.46168  0.82971  1.0000
  C   C1719     1.0  0.88307  0.34289  0.68602  1.0000
  C   C1720     1.0  0.87446  0.32624  0.67659  1.0000
  C   C1721     1.0  0.87291  0.32120  0.64610  1.0000
  C   C1722     1.0  0.87981  0.33281  0.62448  1.0000
  C   C1723     1.0  0.88848  0.34947  0.63390  1.0000
  C   C1724     1.0  0.89015  0.35450  0.66444  1.0000
  H   H2061     1.0  0.86885  0.31715  0.69302  1.0000
  H   H2062     1.0  0.86615  0.30836  0.63931  1.0000
  H   H2063     1.0  0.89380  0.35861  0.61742  1.0000
  H   H2064     1.0  0.89657  0.36737  0.67119  1.0000
  C   C1725     1.0  0.89382  0.34911  0.89431  1.0000
  C   C1726     1.0  0.87998  0.33592  0.88116  1.0000
  C   C1727     1.0  0.87019  0.32275  0.89862  1.0000
  C   C1728     1.0  0.87406  0.32246  0.92945  1.0000
  C   C1729     1.0  0.88782  0.33574  0.94264  1.0000
  C   C1730     1.0  0.89759  0.34890  0.92519  1.0000
  H   H2065     1.0  0.87680  0.33587  0.85755  1.0000
  H   H2066     1.0  0.85956  0.31264  0.88809  1.0000
  H   H2067     1.0  0.89087  0.33597  0.96633  1.0000
  H   H2068     1.0  0.90819  0.35904  0.93572  1.0000
  H   H2069     1.0  0.88899  0.48755  0.68855  1.0000
  C   C1731     1.0  0.90724  0.25423  0.59970  1.0000
  C   C1732     1.0  0.97298  0.41558  0.73148  1.0000
  C   C1733     1.0  0.89311  0.28240  0.94749  1.0000
  N   N115      1.0  0.93736  0.35661  0.69575  1.0000
  C   C1734     1.0  0.97958  0.37921  0.64171  1.0000
  C   C1735     1.0  0.93112  0.36934  0.70302  1.0000
  C   C1736     1.0  0.92330  0.34228  0.68104  1.0000
  C   C1737     1.0  0.95185  0.36381  0.67707  1.0000
  H   H2070     1.0  0.88198  0.35991  0.55109  1.0000
  H   H2071     1.0  0.90403  0.34320  0.50268  1.0000
  C   C1738     1.0  0.98046  0.25513  0.77505  1.0000
  S   S463      1.0  0.81949  0.24276  0.54064  1.0000
  C   C1739     1.0  0.94234  0.35101  0.72411  1.0000
  C   C1740     1.0  0.96619  0.25728  0.72791  1.0000
  H   H2072     1.0  0.94109  0.26011  0.69056  1.0000
  H   H2073     1.0  0.92784  0.37441  0.68237  1.0000
  H   H2074     1.0  0.91979  0.36429  0.71606  1.0000
  H   H2075     1.0  0.91263  0.36326  0.52207  1.0000
  C   C1741     1.0  0.97793  0.40703  0.75301  1.0000
  C   C1742     1.0  0.96556  0.36591  0.62977  1.0000
  H   H2076     1.0  0.94130  0.34822  0.63624  1.0000
  H   H2077     1.0  0.91267  0.33713  0.69585  1.0000
  C   C1743     1.0  0.91493  0.32793  0.87229  1.0000
  H   H2078     1.0  0.89873  0.34554  0.53985  1.0000
  C   C1744     1.0  0.96641  0.37724  0.68852  1.0000
  N   N116      1.0  0.88353  0.40331  0.87517  1.0000
  C   C1745     1.0  0.88330  0.41353  0.90161  1.0000
  C   C1746     1.0  0.90069  0.40453  0.87254  1.0000
  C   C1747     1.0  0.87907  0.41059  0.84834  1.0000
  C   C1748     1.0  0.87222  0.38587  0.87873  1.0000
  C   C1749     1.0  0.87391  0.37759  0.90464  1.0000
  C   C1750     1.0  0.85973  0.37646  0.85651  1.0000
  C   C1751     1.0  0.86339  0.36115  0.90858  1.0000
  C   C1752     1.0  0.84940  0.35995  0.86055  1.0000
  C   C1753     1.0  0.85118  0.35235  0.88657  1.0000
  H   H2079     1.0  0.88839  0.41026  0.92241  1.0000
  H   H2080     1.0  0.89106  0.42684  0.89876  1.0000
  H   H2081     1.0  0.87039  0.41215  0.90537  1.0000
  H   H2082     1.0  0.90559  0.40067  0.89296  1.0000
  H   H2083     1.0  0.90956  0.41727  0.86793  1.0000
  H   H2084     1.0  0.90114  0.39635  0.85390  1.0000
  H   H2085     1.0  0.86611  0.40971  0.84848  1.0000
  H   H2086     1.0  0.88735  0.42389  0.84690  1.0000
  H   H2087     1.0  0.88059  0.40465  0.82724  1.0000
  H   H2088     1.0  0.88373  0.38359  0.92166  1.0000
  H   H2089     1.0  0.85788  0.38146  0.83557  1.0000
  H   H2090     1.0  0.86513  0.35498  0.92828  1.0000
  H   H2091     1.0  0.96797  0.28641  0.78121  1.0000
  H   H2092     1.0  0.93151  0.34500  0.73812  1.0000
  H   H2093     1.0  0.92704  0.33209  0.67526  1.0000
  H   H2094     1.0  0.91817  0.34578  0.66043  1.0000
  C   C1754     1.0  0.92633  0.33323  0.89682  1.0000
  H   H2095     1.0  0.94044  0.37985  0.71677  1.0000
  H   H2096     1.0  0.88144  0.28445  0.94467  1.0000
  N   N117      1.0  0.96068  0.25149  0.69645  1.0000
  H   H2097     1.0  0.96728  0.38214  0.71104  1.0000
  H   H2098     1.0  0.84014  0.35293  0.84315  1.0000
  H   H2099     1.0  0.89397  0.37788  0.53102  1.0000
  C   C1755     1.0  0.88358  0.36544  0.52865  1.0000
  C   C1756     1.0  0.97819  0.26843  0.78771  1.0000
  C   C1757     1.0  0.97442  0.24954  0.74575  1.0000
  H   H2100     1.0  0.89362  0.27442  0.92850  1.0000
  C   C1758     1.0  0.90125  0.31289  0.87262  1.0000
  C   C1759     1.0  0.92273  0.29433  0.95597  1.0000
  H   H2101     1.0  0.95746  0.27720  0.73009  1.0000
  H   H2102     1.0  0.94923  0.25679  0.65665  1.0000
  H   H2103     1.0  0.92487  0.28772  0.93634  1.0000
  C   C1760     1.0  0.90128  0.35167  0.51804  1.0000
  N   N118      1.0  0.90804  0.29824  0.94998  1.0000
  C   C1761     1.0  0.89879  0.30314  0.89760  1.0000
  H   H2104     1.0  0.89211  0.30911  0.85387  1.0000
  C   C1762     1.0  0.95182  0.35829  0.64703  1.0000
  C   C1763     1.0  0.97999  0.38487  0.67105  1.0000
  H   H2105     1.0  0.93320  0.32826  0.94037  1.0000
  H   H2106     1.0  0.91637  0.33580  0.85344  1.0000
  C   C1764     1.0  0.97521  0.25253  0.67966  1.0000
  H   H2107     1.0  0.93666  0.34519  0.89673  1.0000
  H   H2108     1.0  0.96143  0.27442  0.67986  1.0000
  H   H2109     1.0  0.84339  0.33946  0.88939  1.0000
  H   H2110     1.0  0.94799  0.34209  0.71970  1.0000
  H   H2111     1.0  0.78893  0.24816  0.52610  1.0000
  H   H2112     1.0  0.95149  0.36136  0.73841  1.0000
  H   H2113     1.0  0.98299  0.27276  0.81042  1.0000
  C   C1765     1.0  0.92413  0.32349  0.92176  1.0000
  H   H2114     1.0  0.86074  0.34009  0.49517  1.0000
  H   H2115     1.0  0.88755  0.29199  0.89674  1.0000
  H   H2116     1.0  0.90656  0.25751  0.62282  1.0000
  H   H2117     1.0  0.87306  0.48603  0.66052  1.0000
  C   C1766     1.0  0.91025  0.30814  0.92298  1.0000
  H   H2118     1.0  0.91639  0.48668  0.81248  1.0000
  H   H2119     1.0  0.86984  0.33245  0.52414  1.0000
  Fe  Fe232     1.0  0.85866  0.29573  0.48979  1.0000
  H   H2120     1.0  0.92111  0.28637  0.97561  1.0000
  H   H2121     1.0  0.89520  0.31064  0.97271  1.0000
  N   N119      1.0  0.88694  0.35494  0.50603  1.0000
  C   C1767     1.0  0.95280  0.26122  0.68044  1.0000
  H   H2122     1.0  0.98070  0.24401  0.68786  1.0000
  C   C1768     1.0  0.90631  0.30775  0.97614  1.0000
  C   C1769     1.0  0.96382  0.27069  0.74165  1.0000
  H   H2123     1.0  0.97177  0.24921  0.65546  1.0000
  C   C1770     1.0  0.96978  0.27612  0.77114  1.0000
  H   H2124     1.0  0.89195  0.27522  0.96807  1.0000
  H   H2125     1.0  0.98064  0.43230  0.69544  1.0000
  H   H2126     1.0  0.90979  0.24271  0.51687  1.0000
  H   H2127     1.0  0.91726  0.31958  0.98066  1.0000
  S   S464      1.0  0.85425  0.26913  0.49385  1.0000
  H   H2128     1.0  0.87197  0.36710  0.52285  1.0000
  C   C1771     1.0  0.91415  0.24293  0.59281  1.0000
  H   H2129     1.0  0.89323  0.48807  0.64990  1.0000
  C   C1772     1.0  0.98468  0.42610  0.71258  1.0000
  H   H2130     1.0  0.98523  0.26520  0.68149  1.0000
  H   H2131     1.0  0.94510  0.55422  0.17406  1.0000
  S   S465      1.0  0.85159  0.57075  0.04040  1.0000
  S   S466      1.0  0.88659  0.58391  0.46466  1.0000
  Fe  Fe233     1.0  0.87815  0.61738  0.03142  1.0000
  S   S467      1.0  0.85811  0.60838  0.06408  1.0000
  S   S468      1.0  0.89274  0.64424  0.02144  1.0000
  Fe  Fe234     1.0  0.86867  0.58958  0.07477  1.0000
  S   S469      1.0  0.87358  0.58725  0.12461  1.0000
  Fe  Fe235     1.0  0.84249  0.59031  0.02757  1.0000
  S   S470      1.0  0.81602  0.58582  0.00963  1.0000
  S   S471      1.0  0.88972  0.59984  0.04407  1.0000
  H   H2132     1.0  0.94424  0.56885  0.21772  1.0000
  Fe  Fe236     1.0  0.93805  0.72800  0.11330  1.0000
  S   S472      1.0  0.92886  0.70072  0.12214  1.0000
  Fe  Fe237     1.0  0.90655  0.53821  0.24079  1.0000
  S   S473      1.0  0.91516  0.56069  0.27134  1.0000
  S   S474      1.0  0.89407  0.53564  0.19409  1.0000
  Fe  Fe238     1.0  0.92071  0.51952  0.28365  1.0000
  S   S475      1.0  0.93034  0.54113  0.31738  1.0000
  Fe  Fe239     1.0  0.90577  0.54324  0.30890  1.0000
  S   S476      1.0  0.88689  0.54577  0.34082  1.0000
  Fe  Fe240     1.0  0.93884  0.55681  0.27732  1.0000
  S   S477      1.0  0.96342  0.57909  0.27480  1.0000
  S   S478      1.0  0.89561  0.52057  0.27742  1.0000
  S   S479      1.0  0.93080  0.53539  0.24448  1.0000
  C   C1773     1.0  0.84574  0.56474  0.19790  1.0000
  S   S480      1.0  0.70064  0.55966  0.04243  1.0000
  S   S481      1.0  0.68557  0.57879  0.45964  1.0000
  Fe  Fe241     1.0  0.70959  0.60604  0.04898  1.0000
  S   S482      1.0  0.71311  0.59202  0.08800  1.0000
  S   S483      1.0  0.71109  0.63198  0.05727  1.0000
  Fe  Fe242     1.0  0.72509  0.58111  0.05494  1.0000
  S   S484      1.0  0.74925  0.57900  0.07189  1.0000
  Fe  Fe243     1.0  0.68854  0.57176  0.07242  1.0000
  H   H2133     1.0  0.96830  0.58000  0.18336  1.0000
  H   H2134     1.0  0.66863  0.53690  0.00498  1.0000
  S   S485      1.0  0.68429  0.58659  0.03517  1.0000
  S   S486      1.0  0.79664  0.73140  0.14161  1.0000
  H   H2135     1.0  0.91157  0.66342  0.46073  1.0000
  Fe  Fe244     1.0  0.78218  0.71999  0.09853  1.0000
  S   S487      1.0  0.77917  0.69491  0.07969  1.0000
  C   C1774     1.0  0.71649  0.55675  0.43238  1.0000
  C   C1775     1.0  0.72988  0.64974  0.06225  1.0000
  C   C1776     1.0  0.74404  0.65105  0.04772  1.0000
  C   C1777     1.0  0.75899  0.66512  0.05285  1.0000
  C   C1778     1.0  0.75982  0.67811  0.07214  1.0000
  C   C1779     1.0  0.74545  0.67716  0.08557  1.0000
  C   C1780     1.0  0.73052  0.66302  0.08057  1.0000
  H   H2136     1.0  0.74335  0.64125  0.03235  1.0000
  H   H2137     1.0  0.76999  0.66591  0.04193  1.0000
  H   H2138     1.0  0.74593  0.68710  0.10043  1.0000
  H   H2139     1.0  0.71951  0.66219  0.09148  1.0000
  H   H2140     1.0  0.84372  0.54646  0.28049  1.0000
  H   H2141     1.0  0.94295  0.58821  0.21763  1.0000
  C   C1781     1.0  0.66102  0.54742  0.44419  1.0000
  C   C1782     1.0  0.93861  0.57617  0.20513  1.0000
  H   H2142     1.0  0.76235  0.71037  0.04352  1.0000
  H   H2143     1.0  0.97996  0.50677  0.24137  1.0000
  Fe  Fe245     1.0  0.87204  0.58241  0.00841  1.0000
  C   C1783     1.0  0.66958  0.56368  0.43596  1.0000
  C   C1784     1.0  0.65823  0.53099  0.01997  1.0000
  C   C1785     1.0  0.96149  0.58687  0.17282  1.0000
  H   H2144     1.0  0.76567  0.73005  0.02961  1.0000
  H   H2145     1.0  0.97818  0.56888  0.34853  1.0000
  H   H2146     1.0  0.78368  0.59626  0.48612  1.0000
  H   H2147     1.0  0.93363  0.61204  0.41213  1.0000
  H   H2148     1.0  0.96590  0.55416  0.23407  1.0000
  H   H2149     1.0  0.84550  0.57683  0.19927  1.0000
  H   H2150     1.0  0.84883  0.52267  0.18975  1.0000
  C   C1786     1.0  0.79785  0.58457  0.02772  1.0000
  H   H2151     1.0  0.69457  0.72661  0.27905  1.0000
  C   C1787     1.0  0.76943  0.58344  0.02333  1.0000
  C   C1788     1.0  0.76776  0.58115  0.05403  1.0000
  C   C1789     1.0  0.78134  0.58080  0.07148  1.0000
  C   C1790     1.0  0.79631  0.58264  0.05853  1.0000
  C   C1791     1.0  0.93880  0.56081  0.16091  1.0000
  H   H2152     1.0  0.92518  0.55317  0.16138  1.0000
  H   H2153     1.0  0.78022  0.57896  0.09522  1.0000
  H   H2154     1.0  0.80651  0.58216  0.07229  1.0000
  C   C1792     1.0  0.88030  0.57323  0.14268  1.0000
  C   C1793     1.0  0.87897  0.55855  0.12855  1.0000
  C   C1794     1.0  0.88346  0.54730  0.14453  1.0000
  C   C1795     1.0  0.88951  0.55068  0.17460  1.0000
  C   C1796     1.0  0.89132  0.56560  0.18842  1.0000
  C   C1797     1.0  0.88659  0.57672  0.17260  1.0000
  H   H2155     1.0  0.87412  0.55570  0.10556  1.0000
  H   H2156     1.0  0.88204  0.53581  0.13361  1.0000
  H   H2157     1.0  0.89610  0.56855  0.21137  1.0000
  H   H2158     1.0  0.88772  0.58808  0.18364  1.0000
  C   C1798     1.0  0.88626  0.57295  0.43037  1.0000
  C   C1799     1.0  0.87150  0.56235  0.41492  1.0000
  C   C1800     1.0  0.87200  0.55421  0.38773  1.0000
  C   C1801     1.0  0.88722  0.55647  0.37544  1.0000
  C   C1802     1.0  0.90198  0.56710  0.39088  1.0000
  C   C1803     1.0  0.90148  0.57524  0.41807  1.0000
  H   H2159     1.0  0.85968  0.56038  0.42392  1.0000
  H   H2160     1.0  0.86047  0.54602  0.37619  1.0000
  H   H2161     1.0  0.91380  0.56897  0.38197  1.0000
  H   H2162     1.0  0.91301  0.58325  0.42983  1.0000
  C   C1804     1.0  0.90293  0.65967  0.04982  1.0000
  C   C1805     1.0  0.90212  0.65612  0.08014  1.0000
  C   C1806     1.0  0.91016  0.66881  0.10205  1.0000
  C   C1807     1.0  0.91898  0.68513  0.09388  1.0000
  C   C1808     1.0  0.91977  0.68866  0.06356  1.0000
  C   C1809     1.0  0.91177  0.67598  0.04166  1.0000
  H   H2163     1.0  0.89531  0.64362  0.08671  1.0000
  H   H2164     1.0  0.90951  0.66597  0.12545  1.0000
  H   H2165     1.0  0.92673  0.70111  0.05697  1.0000
  H   H2166     1.0  0.91251  0.67881  0.01825  1.0000
  C   C1810     1.0  0.72509  0.57093  0.48019  1.0000
  C   C1811     1.0  0.86271  0.65596  0.06163  1.0000
  C   C1812     1.0  0.91025  0.65539  0.48004  1.0000
  C   C1813     1.0  0.71640  0.73428  0.23224  1.0000
  H   H2167     1.0  0.94264  0.56096  0.13755  1.0000
  C   C1814     1.0  0.93479  0.58682  0.15720  1.0000
  C   C1815     1.0  0.93731  0.60296  0.16721  1.0000
  C   C1816     1.0  0.92421  0.58025  0.13097  1.0000
  C   C1817     1.0  0.92954  0.61183  0.15221  1.0000
  C   C1818     1.0  0.91670  0.58933  0.11594  1.0000
  C   C1819     1.0  0.91921  0.60500  0.12667  1.0000
  H   H2168     1.0  0.94526  0.60881  0.18685  1.0000
  H   H2169     1.0  0.92125  0.56800  0.12185  1.0000
  H   H2170     1.0  0.69651  0.54296  0.47399  1.0000
  H   H2171     1.0  0.90834  0.58399  0.09639  1.0000
  H   H2172     1.0  0.91286  0.61172  0.11541  1.0000
  H   H2173     1.0  0.73986  0.68585  0.02384  1.0000
  N   N120      1.0  0.77209  0.62884  0.09356  1.0000
  C   C1820     1.0  0.76209  0.63539  0.11135  1.0000
  C   C1821     1.0  0.76203  0.62060  0.06594  1.0000
  C   C1822     1.0  0.77502  0.61637  0.11172  1.0000
  C   C1823     1.0  0.78812  0.64162  0.08513  1.0000
  C   C1824     1.0  0.79257  0.65875  0.09043  1.0000
  C   C1825     1.0  0.79942  0.63709  0.06949  1.0000
  C   C1826     1.0  0.80745  0.67050  0.08079  1.0000
  C   C1827     1.0  0.81431  0.64894  0.06011  1.0000
  C   C1828     1.0  0.81832  0.66561  0.06577  1.0000
  H   H2174     1.0  0.75829  0.64397  0.09847  1.0000
  H   H2175     1.0  0.75027  0.62538  0.11772  1.0000
  H   H2176     1.0  0.76903  0.64188  0.13238  1.0000
  H   H2177     1.0  0.76074  0.62969  0.05055  1.0000
  H   H2178     1.0  0.74933  0.61173  0.07088  1.0000
  H   H2179     1.0  0.76768  0.61347  0.05334  1.0000
  H   H2180     1.0  0.78311  0.62215  0.13215  1.0000
  H   H2181     1.0  0.76313  0.60672  0.11874  1.0000
  H   H2182     1.0  0.78096  0.60953  0.09914  1.0000
  H   H2183     1.0  0.78462  0.66348  0.10137  1.0000
  H   H2184     1.0  0.79665  0.62432  0.06378  1.0000
  H   H2185     1.0  0.70447  0.55823  0.43163  1.0000
  H   H2186     1.0  0.88863  0.61740  0.44793  1.0000
  C   C1829     1.0  0.97951  0.49457  0.24500  1.0000
  N   N121      1.0  0.87814  0.70243  0.07722  1.0000
  C   C1830     1.0  0.86566  0.70970  0.07621  1.0000
  C   C1831     1.0  0.88987  0.70966  0.10359  1.0000
  C   C1832     1.0  0.88784  0.70747  0.05011  1.0000
  C   C1833     1.0  0.86967  0.68437  0.07976  1.0000
  C   C1834     1.0  0.87075  0.67294  0.05822  1.0000
  C   C1835     1.0  0.85997  0.67771  0.10458  1.0000
  Fe  Fe246     1.0  0.69740  0.57553  0.00601  1.0000
  C   C1836     1.0  0.97872  0.57933  0.25023  1.0000
  C   C1837     1.0  0.65294  0.55678  0.38816  1.0000
  H   H2187     1.0  0.85618  0.70409  0.05745  1.0000
  H   H2188     1.0  0.85914  0.70829  0.09731  1.0000
  H   H2189     1.0  0.87160  0.72317  0.07286  1.0000
  H   H2190     1.0  0.88354  0.70807  0.12489  1.0000
  H   H2191     1.0  0.89706  0.72315  0.10181  1.0000
  H   H2192     1.0  0.89900  0.70396  0.10585  1.0000
  H   H2193     1.0  0.89795  0.70301  0.05001  1.0000
  H   H2194     1.0  0.71384  0.57366  0.47873  1.0000
  H   H2195     1.0  0.89407  0.72115  0.04902  1.0000
  H   H2196     1.0  0.87806  0.67672  0.03884  1.0000
  H   H2197     1.0  0.85866  0.68565  0.12190  1.0000
  H   H2198     1.0  0.86402  0.64747  0.04523  1.0000
  H   H2199     1.0  0.94547  0.72414  0.40133  1.0000
  C   C1838     1.0  0.74785  0.55427  0.44092  1.0000
  C   C1839     1.0  0.95042  0.65246  0.43437  1.0000
  C   C1840     1.0  0.67081  0.55258  0.15557  1.0000
  C   C1841     1.0  0.78431  0.58499  0.01029  1.0000
  H   H2200     1.0  0.68373  0.55683  0.15046  1.0000
  S   S488      1.0  0.72273  0.59631  0.01668  1.0000
  H   H2201     1.0  0.93139  0.62403  0.16049  1.0000
  C   C1842     1.0  0.97683  0.56545  0.23265  1.0000
  C   C1843     1.0  0.92162  0.62390  0.43891  1.0000
  N   N122      1.0  0.94320  0.57773  0.17354  1.0000
  C   C1844     1.0  0.84939  0.55779  0.22352  1.0000
  H   H2202     1.0  0.77083  0.55454  0.42540  1.0000
  H   H2203     1.0  0.72398  0.68639  0.99836  1.0000
  H   H2204     1.0  0.95916  0.63741  0.40795  1.0000
  H   H2205     1.0  0.96608  0.59898  0.18521  1.0000
  H   H2206     1.0  0.71480  0.72576  0.24985  1.0000
  H   H2207     1.0  0.88095  0.54788  0.24383  1.0000
  S   S489      1.0  0.66420  0.55789  0.09585  1.0000
  C   C1845     1.0  0.93740  0.65299  0.45055  1.0000
  C   C1846     1.0  0.73784  0.55277  0.46569  1.0000
  H   H2208     1.0  0.85182  0.56490  0.24436  1.0000
  H   H2209     1.0  0.92489  0.56989  0.20650  1.0000
  H   H2210     1.0  0.84764  0.63668  0.08921  1.0000
  H   H2211     1.0  0.84589  0.52868  0.29342  1.0000
  H   H2212     1.0  0.65526  0.51759  0.02037  1.0000
  C   C1847     1.0  0.65517  0.58503  0.18693  1.0000
  H   H2213     1.0  0.84071  0.56212  0.15022  1.0000
  C   C1848     1.0  0.66433  0.58845  0.16133  1.0000
  H   H2214     1.0  0.96926  0.54509  0.31267  1.0000
  C   C1849     1.0  0.85041  0.54226  0.22210  1.0000
  S   S490      1.0  0.93455  0.73854  0.06976  1.0000
  H   H2215     1.0  0.67644  0.58795  0.16178  1.0000
  C   C1850     1.0  0.92246  0.63868  0.45298  1.0000
  C   C1851     1.0  0.84296  0.55644  0.17020  1.0000
  H   H2216     1.0  0.70689  0.52961  0.46650  1.0000
  H   H2217     1.0  0.73544  0.58157  0.47117  1.0000
  C   C1852     1.0  0.65772  0.59179  0.13475  1.0000
  C   C1853     1.0  0.85470  0.51881  0.24447  1.0000
  H   H2218     1.0  0.87977  0.70291  0.02923  1.0000
  H   H2219     1.0  0.85781  0.51395  0.26559  1.0000
  H   H2220     1.0  0.75917  0.58374  0.00951  1.0000
  C   C1854     1.0  0.70247  0.73967  0.28569  1.0000
  C   C1855     1.0  0.73338  0.71250  0.03648  1.0000
  H   H2221     1.0  0.82265  0.64515  0.04796  1.0000
  S   S491      1.0  0.86197  0.60077  0.99362  1.0000
  H   H2222     1.0  0.66318  0.53621  0.04297  1.0000
  C   C1856     1.0  0.66560  0.56819  0.40766  1.0000
  N   N123      1.0  0.85485  0.53545  0.24945  1.0000
  C   C1857     1.0  0.85208  0.66071  0.10785  1.0000
  H   H2223     1.0  0.81033  0.68350  0.08454  1.0000
  C   C1858     1.0  0.84389  0.54120  0.16797  1.0000
  H   H2224     1.0  0.67224  0.58066  0.40081  1.0000
  H   H2225     1.0  0.71444  0.54555  0.41837  1.0000
  C   C1859     1.0  0.84765  0.53417  0.19340  1.0000
  C   C1860     1.0  0.89255  0.63089  0.45185  1.0000
  H   H2226     1.0  0.67517  0.54758  0.20144  1.0000
  C   C1861     1.0  0.65895  0.55200  0.13320  1.0000
  H   H2227     1.0  0.91091  0.61242  0.44057  1.0000
  H   H2228     1.0  0.86423  0.51903  0.22868  1.0000
  H   H2229     1.0  0.93938  0.66469  0.46112  1.0000
  C   C1862     1.0  0.95431  0.73687  0.40092  1.0000
  S   S492      1.0  0.76271  0.72949  0.10726  1.0000
  C   C1863     1.0  0.85352  0.64986  0.08647  1.0000
  H   H2230     1.0  0.96536  0.58915  0.14943  1.0000
  H   H2231     1.0  0.84228  0.50977  0.23568  1.0000
  N   N124      1.0  0.90848  0.63867  0.47018  1.0000
  H   H2232     1.0  0.83003  0.52656  0.26470  1.0000
  C   C1864     1.0  0.94904  0.63779  0.42040  1.0000
  H   H2233     1.0  0.66474  0.59394  0.11479  1.0000
  H   H2234     1.0  0.87578  0.54169  0.28115  1.0000
  H   H2235     1.0  0.73577  0.70704  0.05742  1.0000
  H   H2236     1.0  0.87286  0.55905  0.26752  1.0000
  C   C1865     1.0  0.84307  0.53423  0.27291  1.0000
  C   C1866     1.0  0.70857  0.54168  0.47693  1.0000
  H   H2237     1.0  0.82977  0.67475  0.05811  1.0000
  H   H2238     1.0  0.96173  0.66349  0.43283  1.0000
  C   C1867     1.0  0.87181  0.54654  0.26096  1.0000
  C   C1868     1.0  0.66589  0.54733  0.18454  1.0000
  H   H2239     1.0  0.72587  0.71999  0.48496  1.0000
  C   C1869     1.0  0.93467  0.62353  0.42273  1.0000
  H   H2240     1.0  0.74433  0.55679  0.41881  1.0000
  H   H2241     1.0  0.84233  0.53510  0.14615  1.0000
  C   C1870     1.0  0.76314  0.55295  0.44432  1.0000
  C   C1871     1.0  0.98169  0.55474  0.31230  1.0000
  H   H2242     1.0  0.89347  0.63652  0.42967  1.0000
  H   H2243     1.0  0.66085  0.58193  0.20636  1.0000
  N   N125      1.0  0.74310  0.71035  0.01179  1.0000
  C   C1872     1.0  0.76886  0.55004  0.47219  1.0000
  C   C1873     1.0  0.72414  0.73184  0.20712  1.0000
  N   N126      1.0  0.72226  0.55542  0.46354  1.0000
  C   C1874     1.0  0.76077  0.71670  0.02316  1.0000
  H   H2244     1.0  0.72542  0.56779  0.42170  1.0000
  H   H2245     1.0  0.74492  0.72112  0.47029  1.0000
  H   H2246     1.0  0.96253  0.73355  0.35836  1.0000
  S   S493      1.0  0.92869  0.49812  0.29145  1.0000
  H   H2247     1.0  0.71976  0.70655  0.03118  1.0000
  H   H2248     1.0  0.72844  0.72200  0.20627  1.0000
  H   H2249     1.0  0.66428  0.54354  0.46530  1.0000
  H   H2250     1.0  0.84497  0.65591  0.12723  1.0000
  H   H2251     1.0  0.73669  0.72581  0.04164  1.0000
  C   C1875     1.0  0.73752  0.69249  0.00450  1.0000
  H   H2252     1.0  0.88207  0.63217  0.46305  1.0000
  H   H2253     1.0  0.67878  0.73622  0.24224  1.0000
  H   H2254     1.0  0.76882  0.71474  0.00643  1.0000
  H   H2255     1.0  0.65879  0.55840  0.99739  1.0000
  H   H2256     1.0  0.78098  0.54960  0.47499  1.0000
  S   S494      1.0  0.79736  0.74118  0.07089  1.0000
  H   H2257     1.0  0.65307  0.55737  0.03539  1.0000
  H   H2258     1.0  0.73377  0.74087  0.16474  1.0000
  H   H2259     1.0  0.71507  0.74080  0.29368  1.0000
  C   C1876     1.0  0.96857  0.70358  0.69447  1.0000
  S   S495      1.0  0.84632  0.56789  0.52048  1.0000
  H   H2260     1.0  0.87043  0.50873  0.69039  1.0000
  Fe  Fe247     1.0  0.86903  0.61505  0.53958  1.0000
  S   S496      1.0  0.84686  0.59868  0.56359  1.0000
  S   S497      1.0  0.87634  0.64260  0.54602  1.0000
  Fe  Fe248     1.0  0.85908  0.58073  0.56458  1.0000
  S   S498      1.0  0.85703  0.56686  0.60774  1.0000
  Fe  Fe249     1.0  0.83559  0.58721  0.51867  1.0000
  S   S499      1.0  0.81026  0.58629  0.50105  1.0000
  S   S500      1.0  0.88222  0.59812  0.54405  1.0000
  H   H2261     1.0  0.88753  0.51032  0.71495  1.0000
  Fe  Fe250     1.0  0.94561  0.72955  0.58205  1.0000
  S   S501      1.0  0.94529  0.70421  0.57238  1.0000
  Fe  Fe251     1.0  0.91474  0.55200  0.74124  1.0000
  S   S502      1.0  0.92701  0.56817  0.78204  1.0000
  S   S503      1.0  0.91435  0.56247  0.69515  1.0000
  Fe  Fe252     1.0  0.91135  0.52041  0.77306  1.0000
  S   S504      1.0  0.92316  0.53433  0.81677  1.0000
  Fe  Fe253     1.0  0.90770  0.54910  0.80852  1.0000
  S   S505      1.0  0.89569  0.56105  0.84097  1.0000
  Fe  Fe254     1.0  0.94175  0.55291  0.78816  1.0000
  S   S506      1.0  0.96941  0.56474  0.80226  1.0000
  S   S507      1.0  0.89433  0.53381  0.76670  1.0000
  S   S508      1.0  0.93110  0.53810  0.74560  1.0000
  C   C1877     1.0  0.74085  0.65262  0.64419  1.0000
  S   S509      1.0  0.69589  0.56363  0.54133  1.0000
  S   S510      1.0  0.68796  0.56253  0.95973  1.0000
  Fe  Fe255     1.0  0.70883  0.61058  0.55790  1.0000
  S   S511      1.0  0.71128  0.59382  0.59299  1.0000
  S   S512      1.0  0.71159  0.63672  0.56840  1.0000
  Fe  Fe256     1.0  0.72133  0.58330  0.55593  1.0000
  S   S513      1.0  0.74383  0.57696  0.56615  1.0000
  Fe  Fe257     1.0  0.68586  0.57567  0.57592  1.0000
  H   H2262     1.0  0.75704  0.69109  0.72087  1.0000
  S   S514      1.0  0.72039  0.60136  0.52213  1.0000
  S   S515      1.0  0.68295  0.59316  0.54262  1.0000
  H   H2263     1.0  0.87917  0.53115  0.56114  1.0000
  H   H2264     1.0  0.73758  0.54920  0.51391  1.0000
  Fe  Fe258     1.0  0.78477  0.72545  0.59791  1.0000
  S   S516      1.0  0.78039  0.69941  0.58265  1.0000
  H   H2265     1.0  0.92104  0.66144  0.49645  1.0000
  C   C1878     1.0  0.73082  0.65401  0.57232  1.0000
  C   C1879     1.0  0.74576  0.65280  0.56655  1.0000
  C   C1880     1.0  0.76081  0.66689  0.56954  1.0000
  C   C1881     1.0  0.76109  0.68220  0.57873  1.0000
  C   C1882     1.0  0.74616  0.68343  0.58441  1.0000
  C   C1883     1.0  0.73106  0.66938  0.58114  1.0000
  H   H2266     1.0  0.74567  0.64107  0.55943  1.0000
  H   H2267     1.0  0.77226  0.66596  0.56434  1.0000
  H   H2268     1.0  0.74626  0.69519  0.59109  1.0000
  H   H2269     1.0  0.71951  0.67037  0.58548  1.0000
  H   H2270     1.0  0.83711  0.63888  0.61343  1.0000
  H   H2271     1.0  0.68472  0.54979  0.78880  1.0000
  C   C1884     1.0  0.66699  0.55341  0.65739  1.0000
  C   C1885     1.0  0.98387  0.57589  0.77589  1.0000
  H   H2272     1.0  0.67401  0.59183  0.89066  1.0000
  H   H2273     1.0  0.67942  0.55569  0.65112  1.0000
  H   H2274     1.0  0.75804  0.59340  0.51107  1.0000
  C   C1886     1.0  0.67045  0.55955  0.93491  1.0000
  C   C1887     1.0  0.66687  0.54848  0.91006  1.0000
  H   H2275     1.0  0.85724  0.54131  0.84289  1.0000
  H   H2276     1.0  0.67472  0.54194  0.90661  1.0000
  C   C1888     1.0  0.94222  0.68895  0.66371  1.0000
  C   C1889     1.0  0.70382  0.58140  0.86315  1.0000
  H   H2277     1.0  0.65900  0.56305  0.50308  1.0000
  H   H2278     1.0  0.96571  0.57891  0.74566  1.0000
  H   H2279     1.0  0.72176  0.71725  0.53854  1.0000
  H   H2280     1.0  0.65926  0.57807  0.84409  1.0000
  C   C1890     1.0  0.79263  0.58494  0.52085  1.0000
  C   C1891     1.0  0.78123  0.59062  0.50756  1.0000
  C   C1892     1.0  0.76656  0.58887  0.52153  1.0000
  C   C1893     1.0  0.76285  0.58095  0.54865  1.0000
  C   C1894     1.0  0.77443  0.57561  0.56224  1.0000
  C   C1895     1.0  0.78929  0.57770  0.54862  1.0000
  H   H2281     1.0  0.76811  0.70269  0.64272  1.0000
  H   H2282     1.0  0.74704  0.64618  0.63232  1.0000
  H   H2283     1.0  0.77179  0.56955  0.58330  1.0000
  H   H2284     1.0  0.79787  0.57321  0.55914  1.0000
  C   C1896     1.0  0.87336  0.56688  0.63262  1.0000
  C   C1897     1.0  0.88985  0.57278  0.62453  1.0000
  C   C1898     1.0  0.90221  0.57145  0.64411  1.0000
  C   C1899     1.0  0.89830  0.56437  0.67210  1.0000
  C   C1900     1.0  0.88185  0.55871  0.68045  1.0000
  C   C1901     1.0  0.86945  0.55986  0.66069  1.0000
  H   H2285     1.0  0.89303  0.57806  0.60293  1.0000
  H   H2286     1.0  0.91488  0.57584  0.63741  1.0000
  H   H2287     1.0  0.87866  0.55333  0.70196  1.0000
  H   H2288     1.0  0.85671  0.55521  0.66712  1.0000
  C   C1902     1.0  0.88467  0.56485  0.94060  1.0000
  C   C1903     1.0  0.88220  0.57518  0.91949  1.0000
  C   C1904     1.0  0.88586  0.57394  0.88935  1.0000
  C   C1905     1.0  0.89202  0.56239  0.87974  1.0000
  C   C1906     1.0  0.89457  0.55212  0.90087  1.0000
  C   C1907     1.0  0.89087  0.55332  0.93099  1.0000
  H   H2289     1.0  0.87753  0.58416  0.92634  1.0000
  H   H2290     1.0  0.88378  0.58194  0.87328  1.0000
  H   H2291     1.0  0.89914  0.54307  0.89396  1.0000
  H   H2292     1.0  0.89283  0.54525  0.94703  1.0000
  C   C1908     1.0  0.89570  0.65930  0.55452  1.0000
  C   C1909     1.0  0.91053  0.65721  0.55925  1.0000
  C   C1910     1.0  0.92570  0.67108  0.56447  1.0000
  C   C1911     1.0  0.92609  0.68706  0.56568  1.0000
  C   C1912     1.0  0.91122  0.68908  0.56152  1.0000
  C   C1913     1.0  0.89614  0.67527  0.55578  1.0000
  H   H2293     1.0  0.91032  0.64497  0.55905  1.0000
  H   H2294     1.0  0.93715  0.66942  0.56809  1.0000
  H   H2295     1.0  0.91136  0.70131  0.56250  1.0000
  C   C1914     1.0  0.82434  0.57272  0.92875  1.0000
  C   C1915     1.0  0.71584  0.65275  0.66364  1.0000
  H   H2296     1.0  0.83843  0.62916  0.53153  1.0000
  S   S517      1.0  0.66165  0.56365  0.60054  1.0000
  C   C1916     1.0  0.83912  0.56156  0.96109  1.0000
  H   H2297     1.0  0.73944  0.70291  0.63805  1.0000
  H   H2298     1.0  0.71719  0.63184  0.64082  1.0000
  C   C1917     1.0  0.84564  0.55710  0.85748  1.0000
  H   H2299     1.0  0.65295  0.57537  0.79558  1.0000
  H   H2300     1.0  0.81516  0.57068  0.90958  1.0000
  C   C1918     1.0  0.73518  0.72018  0.54300  1.0000
  C   C1919     1.0  0.89237  0.51887  0.58501  1.0000
  C   C1920     1.0  0.91557  0.67335  0.63572  1.0000
  C   C1921     1.0  0.68021  0.55876  0.77906  1.0000
  H   H2301     1.0  0.84408  0.66318  0.58243  1.0000
  H   H2302     1.0  0.87109  0.52647  0.65393  1.0000
  H   H2303     1.0  0.93991  0.70650  0.71012  1.0000
  H   H2304     1.0  0.72846  0.70166  0.67134  1.0000
  H   H2305     1.0  0.70270  0.64636  0.66719  1.0000
  H   H2306     1.0  0.96892  0.70838  0.63512  1.0000
  C   C1922     1.0  0.72130  0.66318  0.50164  1.0000
  C   C1923     1.0  0.74099  0.70506  0.66272  1.0000
  H   H2307     1.0  0.84816  0.63241  0.58677  1.0000
  C   C1924     1.0  0.93956  0.58066  0.93223  1.0000
  S   S518      1.0  0.80122  0.73713  0.63910  1.0000
  H   H2308     1.0  0.81957  0.61446  0.54356  1.0000
  C   C1925     1.0  0.84864  0.53607  0.88727  1.0000
  C   C1926     1.0  0.88422  0.51462  0.69340  1.0000
  H   H2309     1.0  0.91527  0.53168  0.67613  1.0000
  C   C1927     1.0  0.72400  0.64449  0.64901  1.0000
  C   C1928     1.0  0.65251  0.73811  0.87978  1.0000
  H   H2310     1.0  0.90501  0.67323  0.62215  1.0000
  C   C1929     1.0  0.74403  0.54973  0.49372  1.0000
  H   H2311     1.0  0.66293  0.57681  0.95744  1.0000
  H   H2312     1.0  0.95344  0.67282  0.68230  1.0000
  S   S519      1.0  0.93359  0.73435  0.62191  1.0000
  H   H2313     1.0  0.84778  0.56372  0.83692  1.0000
  H   H2314     1.0  0.75912  0.69441  0.51233  1.0000
  H   H2315     1.0  0.65431  0.51705  0.96853  1.0000
  H   H2316     1.0  0.95702  0.72560  0.70362  1.0000
  H   H2317     1.0  0.95112  0.58793  0.83156  1.0000
  C   C1930     1.0  0.92967  0.59730  0.90137  1.0000
  H   H2318     1.0  0.97794  0.71591  0.70271  1.0000
  H   H2319     1.0  0.85165  0.57104  0.95692  1.0000
  C   C1931     1.0  0.91048  0.51798  0.67530  1.0000
  C   C1932     1.0  0.67194  0.57932  0.84803  1.0000
  H   H2320     1.0  0.91372  0.51417  0.69741  1.0000
  H   H2321     1.0  0.67000  0.54401  0.70034  1.0000
  C   C1933     1.0  0.94314  0.67364  0.66952  1.0000
  H   H2322     1.0  0.69099  0.56980  0.77236  1.0000
  C   C1934     1.0  0.74042  0.71875  0.98508  1.0000
  H   H2323     1.0  0.74631  0.66487  0.50398  1.0000
  C   C1935     1.0  0.84105  0.54042  0.91071  1.0000
  H   H2324     1.0  0.85320  0.52650  0.88995  1.0000
  N   N127      1.0  0.82832  0.63814  0.56760  1.0000
  C   C1936     1.0  0.82624  0.62782  0.53997  1.0000
  C   C1937     1.0  0.84043  0.65507  0.56179  1.0000
  H   H2325     1.0  0.89705  0.62880  0.51094  1.0000
  C   C1938     1.0  0.81201  0.63746  0.57626  1.0000
  C   C1939     1.0  0.80933  0.65182  0.58360  1.0000
  C   C1940     1.0  0.79837  0.62207  0.57881  1.0000
  C   C1941     1.0  0.79383  0.65072  0.59209  1.0000
  C   C1942     1.0  0.78288  0.62113  0.58705  1.0000
  C   C1943     1.0  0.78059  0.63543  0.59350  1.0000
  C   C1944     1.0  0.74572  0.68877  0.50933  1.0000
  N   N128      1.0  0.89227  0.51037  0.66807  1.0000
  H   H2326     1.0  0.97289  0.72718  0.65659  1.0000
  H   H2327     1.0  0.66141  0.54033  0.82200  1.0000
  H   H2328     1.0  0.85224  0.65513  0.55383  1.0000
  C   C1945     1.0  0.72444  0.66927  0.67310  1.0000
  S   S520      1.0  0.90204  0.49333  0.75601  1.0000
  H   H2329     1.0  0.77355  0.71674  0.67441  1.0000
  H   H2330     1.0  0.81886  0.57599  0.94854  1.0000
  H   H2331     1.0  0.81898  0.66408  0.58302  1.0000
  H   H2332     1.0  0.79956  0.61061  0.57457  1.0000
  H   H2333     1.0  0.79211  0.66185  0.59764  1.0000
  H   H2334     1.0  0.77259  0.60922  0.58855  1.0000
  H   H2335     1.0  0.76854  0.63462  0.59976  1.0000
  C   C1946     1.0  0.73851  0.67167  0.50446  1.0000
  H   H2336     1.0  0.70209  0.59335  0.90431  1.0000
  Fe  Fe259     1.0  0.69439  0.58232  0.50944  1.0000
  N   N129      1.0  0.82792  0.55796  0.93375  1.0000
  H   H2337     1.0  0.83420  0.56614  0.98010  1.0000
  C   C1947     1.0  0.67948  0.57249  0.82748  1.0000
  C   C1948     1.0  0.72412  0.71440  0.97204  1.0000
  H   H2338     1.0  0.97556  0.69766  0.68220  1.0000
  C   C1949     1.0  0.74149  0.67811  0.66763  1.0000
  H   H2339     1.0  0.83458  0.57174  0.87691  1.0000
  H   H2340     1.0  0.74108  0.73359  0.54920  1.0000
  C   C1950     1.0  0.96317  0.71487  0.64920  1.0000
  H   H2341     1.0  0.74768  0.71858  0.66738  1.0000
  H   H2342     1.0  0.94608  0.56222  0.85305  1.0000
  H   H2343     1.0  0.67233  0.58546  0.77809  1.0000
  C   C1951     1.0  0.73574  0.69793  0.51129  1.0000
  N   N130      1.0  0.67001  0.56334  0.80000  1.0000
  C   C1952     1.0  0.65644  0.54797  0.80873  1.0000
  H   H2344     1.0  0.73647  0.71347  0.56299  1.0000
  H   H2345     1.0  0.76603  0.73673  0.52899  1.0000
  H   H2346     1.0  0.67283  0.55254  0.75807  1.0000
  H   H2347     1.0  0.88831  0.52820  0.69632  1.0000
  C   C1953     1.0  0.83565  0.63174  0.59204  1.0000
  C   C1954     1.0  0.69576  0.57380  0.83584  1.0000
  C   C1955     1.0  0.85091  0.54438  0.86070  1.0000
  H   H2348     1.0  0.95413  0.71726  0.63417  1.0000
  C   C1956     1.0  0.88159  0.52678  0.58252  1.0000
  H   H2349     1.0  0.84095  0.55063  0.96913  1.0000
  H   H2350     1.0  0.76391  0.54640  0.51856  1.0000
  C   C1957     1.0  0.97875  0.58163  0.75015  1.0000
  N   N131      1.0  0.94698  0.58343  0.87839  1.0000
  C   C1958     1.0  0.96511  0.58946  0.88581  1.0000
  C   C1959     1.0  0.94017  0.56539  0.87230  1.0000
  H   H2351     1.0  0.72834  0.57048  0.50436  1.0000
  C   C1960     1.0  0.93871  0.58720  0.90381  1.0000
  H   H2352     1.0  0.93133  0.58646  0.84262  1.0000
  N   N132      1.0  0.75007  0.69581  0.67656  1.0000
  C   C1961     1.0  0.73444  0.73451  0.93403  1.0000
  C   C1962     1.0  0.74953  0.66919  0.65316  1.0000
  H   H2353     1.0  0.81387  0.53285  0.94564  1.0000
  H   H2354     1.0  0.96797  0.58319  0.90510  1.0000
  H   H2355     1.0  0.97174  0.58719  0.86670  1.0000
  H   H2356     1.0  0.97064  0.60292  0.89145  1.0000
  C   C1963     1.0  0.65611  0.55656  0.63723  1.0000
  S   S521      1.0  0.85729  0.60454  0.49428  1.0000
  C   C1964     1.0  0.88837  0.51601  0.63893  1.0000
  H   H2357     1.0  0.71606  0.58193  0.86951  1.0000
  H   H2358     1.0  0.93154  0.64717  0.66307  1.0000
  C   C1965     1.0  0.83812  0.56163  0.88085  1.0000
  C   C1966     1.0  0.75364  0.73128  0.97117  1.0000
  H   H2359     1.0  0.71756  0.67515  0.68431  1.0000
  H   H2360     1.0  0.80331  0.54075  0.91918  1.0000
  H   H2361     1.0  0.94230  0.55864  0.89149  1.0000
  H   H2362     1.0  0.92788  0.60247  0.88057  1.0000
  C   C1967     1.0  0.87397  0.52918  0.60762  1.0000
  C   C1968     1.0  0.72122  0.72226  0.94700  1.0000
  C   C1969     1.0  0.75050  0.69800  0.70954  1.0000
  C   C1970     1.0  0.92213  0.60066  0.92596  1.0000
  C   C1971     1.0  0.76749  0.70345  0.66745  1.0000
  C   C1972     1.0  0.69603  0.58795  0.88275  1.0000
  H   H2363     1.0  0.90722  0.64703  0.63301  1.0000
  H   H2364     1.0  0.84011  0.74030  0.58819  1.0000
  H   H2365     1.0  0.88474  0.67703  0.55222  1.0000
  C   C1973     1.0  0.66262  0.57326  0.78324  1.0000
  H   H2366     1.0  0.89827  0.51703  0.56537  1.0000
  H   H2367     1.0  0.76240  0.67482  0.64764  1.0000
  C   C1974     1.0  0.66017  0.56793  0.93897  1.0000
  C   C1975     1.0  0.91684  0.65858  0.64173  1.0000
  H   H2368     1.0  0.73785  0.69371  0.71809  1.0000
  H   H2369     1.0  0.75713  0.71124  0.71696  1.0000
  C   C1976     1.0  0.94474  0.59102  0.85019  1.0000
  H   H2370     1.0  0.94606  0.57277  0.93578  1.0000
  C   C1977     1.0  0.66158  0.54679  0.68538  1.0000
  C   C1978     1.0  0.68021  0.58708  0.87503  1.0000
  H   H2371     1.0  0.70241  0.56874  0.82201  1.0000
  H   H2372     1.0  0.86564  0.53542  0.60557  1.0000
  H   H2373     1.0  0.92651  0.56035  0.86688  1.0000
  H   H2374     1.0  0.74422  0.69038  0.98546  1.0000
  H   H2375     1.0  0.91499  0.60809  0.92350  1.0000
  C   C1979     1.0  0.83568  0.55345  0.90836  1.0000
  H   H2376     1.0  0.82781  0.61860  0.59606  1.0000
  H   H2377     1.0  0.90409  0.50738  0.61351  1.0000
  N   N133      1.0  0.95519  0.70501  0.67488  1.0000
  S   S522      1.0  0.88028  0.56571  0.97908  1.0000
  H   H2378     1.0  0.83975  0.53370  0.93095  1.0000
  H   H2379     1.0  0.95004  0.60468  0.85266  1.0000
  H   H2380     1.0  0.77536  0.69769  0.67812  1.0000
  Fe  Fe260     1.0  0.86897  0.58635  0.49946  1.0000
  C   C1980     1.0  0.92810  0.68832  0.64627  1.0000
  C   C1981     1.0  0.93175  0.58391  0.95652  1.0000
  C   C1982     1.0  0.93059  0.65873  0.65859  1.0000
  N   N134      1.0  0.74286  0.71600  0.51703  1.0000
  C   C1983     1.0  0.94750  0.71416  0.69245  1.0000
  C   C1984     1.0  0.92308  0.59391  0.95340  1.0000
  H   H2381     1.0  0.80573  0.54717  0.95814  1.0000
  C   C1985     1.0  0.87726  0.52392  0.63546  1.0000
  C   C1986     1.0  0.81202  0.54406  0.93938  1.0000
  H   H2382     1.0  0.83592  0.58374  0.92500  1.0000
  H   H2383     1.0  0.93937  0.71832  0.67828  1.0000
  C   C1987     1.0  0.75923  0.54824  0.49674  1.0000
  H   H2384     1.0  0.96347  0.69648  0.71456  1.0000
  C   C1988     1.0  0.76114  0.72325  0.52377  1.0000
  H   H2385     1.0  0.81922  0.63103  0.52173  1.0000
  H   H2386     1.0  0.91759  0.51444  0.65883  1.0000
  H   H2387     1.0  0.92675  0.69944  0.64019  1.0000
  H   H2388     1.0  0.83538  0.66074  0.54419  1.0000
  C   C1989     1.0  0.89567  0.51347  0.61271  1.0000
  H   H2389     1.0  0.76457  0.71763  0.54357  1.0000
  H   H2390     1.0  0.65701  0.55531  0.53985  1.0000
  C   C1990     1.0  0.65314  0.54563  0.88978  1.0000
  S   S523      1.0  0.76591  0.73527  0.60935  1.0000
  H   H2391     1.0  0.86182  0.73004  0.57775  1.0000
  H   H2392     1.0  0.76797  0.72175  0.50443  1.0000
  H   H2393     1.0  0.91912  0.63437  0.51162  1.0000
  H   H2394     1.0  0.70864  0.71891  0.93767  1.0000
  H   H2395     1.0  0.65619  0.56694  0.76163  1.0000
  H   H2396     1.0  0.76644  0.73567  0.97960  1.0000
  C   C1991     1.0  0.71825  0.68893  0.50723  1.0000
  H   H2397     1.0  0.71075  0.54119  0.50146  1.0000
  H   H2398     1.0  0.90506  0.61604  0.49164  1.0000
  H   H2399     1.0  0.71578  0.64985  0.49914  1.0000
  H   H2400     1.0  0.74471  0.73764  0.49373  1.0000
  C   C1992     1.0  0.90739  0.62906  0.49725  1.0000
  H   H2401     1.0  0.89920  0.65496  0.49182  1.0000
  C   C1993     1.0  0.71118  0.67180  0.50282  1.0000
  H   H2402     1.0  0.70987  0.69505  0.50776  1.0000
  H   H2403     1.0  0.91667  0.59606  0.97207  1.0000
  H   H2404     1.0  0.93213  0.57843  0.97780  1.0000
  H   H2405     1.0  0.69778  0.66510  0.50073  1.0000
  C   C1994     1.0  0.75060  0.73891  0.94595  1.0000
  C   C1995     1.0  0.73941  0.72400  0.49036  1.0000
  H   H2406     1.0  0.71346  0.70495  0.98125  1.0000
  H   H2407     1.0  0.78528  0.58645  0.98645  1.0000
  H   H2408     1.0  0.73218  0.74074  0.91483  1.0000
  C   C1996     1.0  0.88664  0.49222  0.66659  1.0000
  Fe  Fe261     1.0  0.95435  0.76195  0.14615  1.0000
  S   S524      1.0  0.95096  0.77471  0.10468  1.0000
  S   S525      1.0  0.96698  0.77823  0.18841  1.0000
  H   H2409     1.0  0.84381  0.78020  0.24182  1.0000
  Fe  Fe262     1.0  0.96043  0.75826  0.07968  1.0000
  H   H2410     1.0  0.98352  0.76535  0.30130  1.0000
  Fe  Fe263     1.0  0.92526  0.75412  0.09817  1.0000
  H   H2411     1.0  0.86834  0.74917  0.05330  1.0000
  C   C1997     1.0  0.68699  0.88925  0.30778  1.0000
  H   H2412     1.0  0.76849  0.79789  0.21577  1.0000
  C   C1998     1.0  0.81443  0.77999  0.18996  1.0000
  H   H2413     1.0  0.98385  0.80064  0.23802  1.0000
  H   H2414     1.0  0.69252  0.90277  0.30433  1.0000
  H   H2415     1.0  0.66669  0.76020  0.44543  1.0000
  C   C1999     1.0  0.80477  0.79536  0.27525  1.0000
  H   H2416     1.0  0.66658  0.85950  0.31255  1.0000
  S   S526      1.0  0.79338  0.76564  0.12307  1.0000
  Fe  Fe264     1.0  0.74509  0.79572  0.32022  1.0000
  S   S527      1.0  0.75960  0.81101  0.36097  1.0000
  S   S528      1.0  0.75645  0.79739  0.27454  1.0000
  Fe  Fe265     1.0  0.71317  0.78047  0.35402  1.0000
  S   S529      1.0  0.72541  0.79398  0.39732  1.0000
  S   S530      1.0  0.68607  0.76316  0.34321  1.0000
  Fe  Fe266     1.0  0.73713  0.81630  0.36924  1.0000
  S   S531      1.0  0.73625  0.83968  0.39045  1.0000
  Fe  Fe267     1.0  0.74702  0.78789  0.38616  1.0000
  S   S532      1.0  0.76415  0.77974  0.41497  1.0000
  S   S533      1.0  0.72355  0.80298  0.32651  1.0000
  S   S534      1.0  0.73381  0.77242  0.34490  1.0000
  Fe  Fe268     1.0  0.74588  0.93360  0.36044  1.0000
  S   S535      1.0  0.72963  0.93747  0.32363  1.0000
  S   S536      1.0  0.75512  0.91351  0.34875  1.0000
  Fe  Fe269     1.0  0.74276  0.96031  0.40144  1.0000
  S   S537      1.0  0.72573  0.96477  0.36715  1.0000
  H   H2417     1.0  0.67637  0.79797  0.40456  1.0000
  Fe  Fe270     1.0  0.71313  0.93739  0.36063  1.0000
  S   S538      1.0  0.68548  0.92121  0.35253  1.0000
  Fe  Fe271     1.0  0.74388  0.96474  0.33304  1.0000
  H   H2418     1.0  0.78882  0.78434  0.31084  1.0000
  S   S539      1.0  0.72879  0.93257  0.39692  1.0000
  S   S540      1.0  0.76149  0.96115  0.36782  1.0000
  C   C2000     1.0  0.67096  0.91707  0.38068  1.0000
  C   C2001     1.0  0.67510  0.92570  0.40833  1.0000
  C   C2002     1.0  0.66302  0.92249  0.42970  1.0000
  H   H2419     1.0  0.77338  0.77720  0.18406  1.0000
  Fe  Fe272     1.0  0.77852  0.75146  0.08168  1.0000
  H   H2420     1.0  0.68754  0.93503  0.41310  1.0000
  H   H2421     1.0  0.66627  0.92943  0.45085  1.0000
  C   C2003     1.0  0.97582  0.75898  0.37523  1.0000
  S   S541      1.0  0.83853  0.76492  0.13081  1.0000
  C   C2004     1.0  0.97728  0.76958  0.40042  1.0000
  H   H2422     1.0  0.68817  0.76943  0.40788  1.0000
  H   H2423     1.0  0.82000  0.80325  0.23834  1.0000
  C   C2005     1.0  0.72229  0.75554  0.18483  1.0000
  C   C2006     1.0  0.81310  0.79274  0.25118  1.0000
  C   C2007     1.0  0.74851  0.76776  0.00126  1.0000
  C   C2008     1.0  0.74182  0.86018  0.37842  1.0000
  C   C2009     1.0  0.73838  0.87142  0.39655  1.0000
  C   C2010     1.0  0.74237  0.88774  0.38795  1.0000
  C   C2011     1.0  0.74998  0.89312  0.36111  1.0000
  C   C2012     1.0  0.75361  0.88193  0.34317  1.0000
  C   C2013     1.0  0.74944  0.86554  0.35158  1.0000
  H   H2424     1.0  0.73253  0.86746  0.41740  1.0000
  H   H2425     1.0  0.73965  0.89619  0.40222  1.0000
  H   H2426     1.0  0.75957  0.88594  0.32243  1.0000
  H   H2427     1.0  0.75220  0.85711  0.33736  1.0000
  C   C2014     1.0  0.67111  0.75675  0.37075  1.0000
  C   C2015     1.0  0.96743  0.76390  0.42483  1.0000
  S   S542      1.0  0.90056  0.75429  0.07916  1.0000
  C   C2016     1.0  0.76279  0.76723  0.01576  1.0000
  H   H2428     1.0  0.80508  0.80749  0.28009  1.0000
  C   C2017     1.0  0.67017  0.83811  0.32399  1.0000
  C   C2018     1.0  0.76366  0.77553  0.45352  1.0000
  H   H2429     1.0  0.78385  0.80897  0.45289  1.0000
  H   H2430     1.0  0.84540  0.78194  0.20196  1.0000
  H   H2431     1.0  0.72492  0.76393  0.16663  1.0000
  H   H2432     1.0  0.78426  0.88709  0.00611  1.0000
  H   H2433     1.0  0.74193  0.78001  0.46164  1.0000
  H   H2434     1.0  0.68611  0.75777  0.23518  1.0000
  C   C2019     1.0  0.76557  0.75842  0.21652  1.0000
  C   C2020     1.0  0.76878  0.77409  0.20607  1.0000
  C   C2021     1.0  0.76590  0.78580  0.22409  1.0000
  C   C2022     1.0  0.75967  0.78201  0.25268  1.0000
  C   C2023     1.0  0.75633  0.76628  0.26302  1.0000
  S   S543      1.0  0.98417  0.76843  0.05317  1.0000
  C   C2024     1.0  0.75977  0.98994  0.46997  1.0000
  N   N135      1.0  0.77636  0.82924  0.45650  1.0000
  H   H2435     1.0  0.75167  0.76316  0.28499  1.0000
  C   C2025     1.0  0.69279  0.86581  0.32622  1.0000
  C   C2026     1.0  0.88331  0.75678  0.09473  1.0000
  C   C2027     1.0  0.85526  0.76088  0.11674  1.0000
  S   S544      1.0  0.96458  0.74626  0.12158  1.0000
  H   H2436     1.0  0.84214  0.79733  0.22357  1.0000
  C   C2028     1.0  0.67542  0.76163  0.40089  1.0000
  H   H2437     1.0  0.68857  0.97279  0.99569  1.0000
  H   H2438     1.0  0.65718  0.83012  0.31914  1.0000
  H   H2439     1.0  0.84379  0.75235  0.07276  1.0000
  C   C2029     1.0  0.65259  0.93924  0.99978  1.0000
  H   H2440     1.0  0.68193  0.82762  0.40510  1.0000
  H   H2441     1.0  0.79830  0.82671  0.47471  1.0000
  C   C2030     1.0  0.75872  0.81816  0.44936  1.0000
  S   S545      1.0  0.74452  0.97449  0.44583  1.0000
  C   C2031     1.0  0.65472  0.90501  0.37482  1.0000
  C   C2032     1.0  0.77717  0.84139  0.48040  1.0000
  C   C2033     1.0  0.77793  0.84918  0.41639  1.0000
  C   C2034     1.0  0.71144  0.74763  0.23441  1.0000
  H   H2442     1.0  0.77948  0.86558  0.38076  1.0000
  H   H2443     1.0  0.70757  0.77052  0.29323  1.0000
  H   H2444     1.0  0.80095  0.85975  0.35524  1.0000
  H   H2445     1.0  0.98475  0.75670  0.19843  1.0000
  H   H2446     1.0  0.87048  0.76917  0.15781  1.0000
  H   H2447     1.0  0.71091  0.76835  0.20956  1.0000
  C   C2035     1.0  0.71441  0.75803  0.20968  1.0000
  C   C2036     1.0  0.79560  0.78233  0.29266  1.0000
  S   S546      1.0  0.92789  0.74272  0.14138  1.0000
  H   H2448     1.0  0.79011  0.85083  0.48458  1.0000
  H   H2449     1.0  0.72483  0.88784  0.31510  1.0000
  S   S547      1.0  0.74895  0.98600  0.30031  1.0000
  H   H2450     1.0  0.71335  0.77739  0.25685  1.0000
  C   C2037     1.0  0.71400  0.88925  0.30392  1.0000
  C   C2038     1.0  0.75170  0.77694  0.47149  1.0000
  C   C2039     1.0  0.66323  0.75632  0.42216  1.0000
  H   H2451     1.0  0.66581  0.96076  0.02824  1.0000
  C   C2040     1.0  0.80210  0.84256  0.38756  1.0000
  H   H2452     1.0  0.75777  0.95128  0.48430  1.0000
  C   C2041     1.0  0.79630  0.85378  0.37580  1.0000
  H   H2453     1.0  0.71418  0.88963  0.36414  1.0000
  H   H2454     1.0  0.80067  0.77346  0.18666  1.0000
  H   H2455     1.0  0.81751  0.79339  0.19109  1.0000
  N   N136      1.0  0.70346  0.75082  0.26082  1.0000
  H   H2456     1.0  0.73682  0.76281  0.01198  1.0000
  C   C2042     1.0  0.95600  0.74760  0.42514  1.0000
  C   C2043     1.0  0.86983  0.76449  0.13513  1.0000
  H   H2457     1.0  0.89476  0.76514  0.13879  1.0000
  C   C2044     1.0  0.68630  0.74881  0.25201  1.0000
  H   H2458     1.0  0.77808  0.98362  0.27317  1.0000
  H   H2459     1.0  0.78721  0.75644  0.29923  1.0000
  C   C2045     1.0  0.79590  0.83460  0.41380  1.0000
  H   H2460     1.0  0.78548  0.77023  0.45292  1.0000
  Fe  Fe273     1.0  0.81092  0.75317  0.11476  1.0000
  H   H2461     1.0  0.69361  0.88894  0.36679  1.0000
  C   C2046     1.0  0.81759  0.75680  0.21076  1.0000
  H   H2462     1.0  0.69681  0.74269  0.30548  1.0000
  C   C2047     1.0  0.80270  0.76377  0.26163  1.0000
  H   H2463     1.0  0.81127  0.83980  0.37597  1.0000
  H   H2464     1.0  0.96887  0.77217  0.44391  1.0000
  H   H2465     1.0  0.96683  0.76654  0.32143  1.0000
  C   C2048     1.0  0.88367  0.76224  0.12438  1.0000
  H   H2466     1.0  0.76904  0.84790  0.47479  1.0000
  C   C2049     1.0  0.68120  0.83139  0.33403  1.0000
  C   C2050     1.0  0.70434  0.89239  0.35224  1.0000
  H   H2467     1.0  0.76818  0.85178  0.42603  1.0000
  H   H2468     1.0  0.68238  0.88302  0.28542  1.0000
  C   C2051     1.0  0.83875  0.78388  0.22135  1.0000
  C   C2052     1.0  0.77613  0.77129  0.46665  1.0000
  C   C2053     1.0  0.97587  0.76070  0.32099  1.0000
  C   C2054     1.0  0.75933  0.75463  0.24510  1.0000
  C   C2055     1.0  0.97631  0.77314  0.99380  1.0000
  C   C2056     1.0  0.66609  0.80176  0.40294  1.0000
  C   C2057     1.0  0.69784  0.84162  0.34080  1.0000
  C   C2058     1.0  0.85476  0.75499  0.08736  1.0000
  C   C2059     1.0  0.78363  0.83777  0.42918  1.0000
  C   C2060     1.0  0.86875  0.75321  0.07637  1.0000
  H   H2469     1.0  0.70944  0.90596  0.35042  1.0000
  C   C2061     1.0  0.78490  0.81911  0.46889  1.0000
  H   H2470     1.0  0.71862  0.90258  0.29929  1.0000
  S   S548      1.0  0.76114  0.75880  0.05168  1.0000
  H   H2471     1.0  0.67627  0.88716  0.32190  1.0000
  H   H2472     1.0  0.82255  0.75177  0.22953  1.0000
  H   H2473     1.0  0.75771  0.80870  0.43188  1.0000
  H   H2474     1.0  0.71107  0.88221  0.28210  1.0000
  C   C2062     1.0  0.67578  0.85508  0.32018  1.0000
  N   N137      1.0  0.82054  0.77428  0.21696  1.0000
  C   C2063     1.0  0.78424  0.85708  0.39021  1.0000
  H   H2475     1.0  0.72609  0.77002  0.27891  1.0000
  H   H2476     1.0  0.80068  0.82579  0.42122  1.0000
  C   C2064     1.0  0.81215  0.77681  0.24334  1.0000
  H   H2477     1.0  0.78890  0.77333  0.01254  1.0000
  H   H2478     1.0  0.67685  0.81824  0.33687  1.0000
  N   N138      1.0  0.69928  0.88381  0.32246  1.0000
  H   H2479     1.0  0.75127  0.82489  0.44069  1.0000
  H   H2480     1.0  0.82006  0.77773  0.16948  1.0000
  C   C2065     1.0  0.70354  0.85856  0.33709  1.0000
  H   H2481     1.0  0.71649  0.86598  0.34296  1.0000
  H   H2482     1.0  0.78114  0.99152  0.44657  1.0000
  H   H2483     1.0  0.70642  0.83645  0.34905  1.0000
  H   H2484     1.0  0.75260  0.81154  0.46927  1.0000
  C   C2066     1.0  0.71300  0.76790  0.27286  1.0000
  C   C2067     1.0  0.65447  0.74654  0.36214  1.0000
  C   C2068     1.0  0.77781  0.77360  0.00163  1.0000
  H   H2485     1.0  0.96350  0.76882  0.99974  1.0000
  S   S549      1.0  0.76891  0.74303  0.19491  1.0000
  H   H2486     1.0  0.75679  0.74256  0.25346  1.0000
  C   C2069     1.0  0.79470  0.76661  0.28603  1.0000
  C   C2070     1.0  0.66921  0.81842  0.40329  1.0000
  Fe  Fe274     1.0  0.77861  0.74322  0.14801  1.0000
  C   C2071     1.0  0.66570  0.95434  0.00735  1.0000
  C   C2072     1.0  0.98275  0.77859  0.21535  1.0000
  H   H2487     1.0  0.67984  0.75081  0.27162  1.0000
  H   H2488     1.0  0.96879  0.74730  0.31616  1.0000
  H   H2489     1.0  0.82384  0.75533  0.19046  1.0000
  H   H2490     1.0  0.77429  0.83145  0.99826  1.0000
  H   H2491     1.0  0.78517  0.86036  0.99872  1.0000
  H   H2492     1.0  0.80409  0.74894  0.20635  1.0000
  H   H2493     1.0  0.80090  0.75117  0.25712  1.0000
  C   C2073     1.0  0.72719  0.74250  0.18360  1.0000
  C   C2074     1.0  0.96408  0.74241  0.37635  1.0000
  H   H2494     1.0  0.94859  0.74326  0.44437  1.0000
  H   H2495     1.0  0.65846  0.83623  0.40232  1.0000
  C   C2075     1.0  0.65597  0.82323  0.40162  1.0000
  C   C2076     1.0  0.67874  0.96117  0.98828  1.0000
  Fe  Fe275     1.0  0.95775  0.75663  0.63182  1.0000
  S   S550      1.0  0.94841  0.77295  0.60530  1.0000
  S   S551      1.0  0.96795  0.75724  0.68035  1.0000
  Fe  Fe276     1.0  0.81414  0.75844  0.61026  1.0000
  Fe  Fe277     1.0  0.95948  0.76571  0.56545  1.0000
  S   S552      1.0  0.79866  0.74619  0.56824  1.0000
  H   H2496     1.0  0.74550  0.97279  0.60930  1.0000
  H   H2497     1.0  0.69941  0.98541  0.95118  1.0000
  H   H2498     1.0  0.92015  0.78060  0.57938  1.0000
  H   H2499     1.0  0.77252  0.97892  0.70245  1.0000
  C   C2077     1.0  0.66928  0.74804  0.88781  1.0000
  S   S553      1.0  0.84257  0.77217  0.61250  1.0000
  C   C2078     1.0  0.86540  0.74206  0.58856  1.0000
  S   S554      1.0  0.76504  0.76700  0.55444  1.0000
  N   N139      1.0  0.76777  0.83615  0.95339  1.0000
  H   H2500     1.0  0.74926  0.85008  0.92288  1.0000
  S   S555      1.0  0.79743  0.77123  0.62264  1.0000
  Fe  Fe278     1.0  0.73931  0.79032  0.82289  1.0000
  S   S556      1.0  0.75275  0.81036  0.85823  1.0000
  S   S557      1.0  0.74934  0.79311  0.77584  1.0000
  Fe  Fe279     1.0  0.71006  0.77381  0.86335  1.0000
  S   S558      1.0  0.72159  0.79238  0.90137  1.0000
  C   C2079     1.0  0.76567  0.98162  0.74735  1.0000
  Fe  Fe280     1.0  0.72820  0.81146  0.86610  1.0000
  S   S559      1.0  0.72007  0.83280  0.87143  1.0000
  Fe  Fe281     1.0  0.74523  0.78980  0.89082  1.0000
  S   S560      1.0  0.76598  0.79038  0.92381  1.0000
  S   S561      1.0  0.71518  0.79292  0.82870  1.0000
  S   S562      1.0  0.73326  0.76973  0.85491  1.0000
  Fe  Fe282     1.0  0.74523  0.93088  0.86421  1.0000
  S   S563      1.0  0.73116  0.93577  0.82464  1.0000
  S   S564      1.0  0.75599  0.91122  0.86230  1.0000
  Fe  Fe283     1.0  0.74361  0.95906  0.90344  1.0000
  S   S565      1.0  0.72916  0.96498  0.86645  1.0000
  H   H2501     1.0  0.68171  0.80452  0.90435  1.0000
  Fe  Fe284     1.0  0.71439  0.93783  0.85978  1.0000
  S   S566      1.0  0.68633  0.92957  0.85319  1.0000
  Fe  Fe285     1.0  0.74725  0.96284  0.83447  1.0000
  C   C2080     1.0  0.77909  0.97009  0.54932  1.0000
  S   S567      1.0  0.72760  0.93172  0.89856  1.0000
  S   S568      1.0  0.76250  0.95795  0.87212  1.0000
  C   C2081     1.0  0.67132  0.91598  0.87614  1.0000
  C   C2082     1.0  0.76724  0.85234  0.95980  1.0000
  C   C2083     1.0  0.77675  0.76860  0.49750  1.0000
  H   H2502     1.0  0.97811  0.75360  0.74065  1.0000
  C   C2084     1.0  0.67562  0.90744  0.89855  1.0000
  C   C2085     1.0  0.70124  0.94853  0.93831  1.0000
  H   H2503     1.0  0.76595  0.83773  0.90533  1.0000
  H   H2504     1.0  0.68831  0.90859  0.90144  1.0000
  C   C2086     1.0  0.76090  0.75515  0.74609  1.0000
  C   C2087     1.0  0.67260  0.81065  0.84840  1.0000
  H   H2505     1.0  0.68108  0.83760  0.91906  1.0000
  S   S569      1.0  0.93592  0.74380  0.55166  1.0000
  C   C2088     1.0  0.77420  0.83616  0.92336  1.0000
  S   S570      1.0  0.97021  0.75093  0.59290  1.0000
  C   C2089     1.0  0.76652  0.97290  0.56423  1.0000
  C   C2090     1.0  0.73045  0.85459  0.86889  1.0000
  C   C2091     1.0  0.74753  0.86252  0.86504  1.0000
  C   C2092     1.0  0.75515  0.87983  0.86355  1.0000
  C   C2093     1.0  0.74582  0.88947  0.86558  1.0000
  C   C2094     1.0  0.72876  0.88152  0.86951  1.0000
  C   C2095     1.0  0.72117  0.86422  0.87123  1.0000
  H   H2506     1.0  0.75490  0.85537  0.86339  1.0000
  H   H2507     1.0  0.76835  0.88584  0.86043  1.0000
  H   H2508     1.0  0.72141  0.88871  0.87109  1.0000
  H   H2509     1.0  0.70797  0.85828  0.87429  1.0000
  C   C2096     1.0  0.65473  0.91423  0.87253  1.0000
  C   C2097     1.0  0.76661  0.75990  0.71742  1.0000
  Fe  Fe286     1.0  0.78094  0.75706  0.58266  1.0000
  C   C2098     1.0  0.76492  0.77023  0.51555  1.0000
  H   H2510     1.0  0.68476  0.81337  0.83836  1.0000
  H   H2511     1.0  0.76066  0.74373  0.75443  1.0000
  C   C2099     1.0  0.76424  0.78112  0.95896  1.0000
  H   H2512     1.0  0.77292  0.83539  0.50189  1.0000
  C   C2100     1.0  0.77117  0.98733  0.71879  1.0000
  H   H2513     1.0  0.71137  0.95296  0.92255  1.0000
  N   N140      1.0  0.77041  0.98177  0.59381  1.0000
  H   H2514     1.0  0.74911  0.87718  0.93122  1.0000
  H   H2515     1.0  0.79025  0.78567  0.96283  1.0000
  H   H2516     1.0  0.76649  0.89584  0.97261  1.0000
  N   N141      1.0  0.69250  0.95966  0.94004  1.0000
  C   C2101     1.0  0.75556  0.76508  0.76423  1.0000
  C   C2102     1.0  0.75586  0.77997  0.75394  1.0000
  C   C2103     1.0  0.76155  0.78471  0.72525  1.0000
  C   C2104     1.0  0.76688  0.77478  0.70711  1.0000
  H   H2517     1.0  0.92590  0.80218  0.57554  1.0000
  H   H2518     1.0  0.76287  0.96899  0.75261  1.0000
  H   H2519     1.0  0.76186  0.79616  0.71694  1.0000
  H   H2520     1.0  0.77123  0.77865  0.68519  1.0000
  C   C2105     1.0  0.68004  0.79552  0.88561  1.0000
  C   C2106     1.0  0.88673  0.76725  0.61012  1.0000
  C   C2107     1.0  0.87437  0.77314  0.61562  1.0000
  C   C2108     1.0  0.85746  0.76354  0.60769  1.0000
  H   H2521     1.0  0.87679  0.80523  0.55988  1.0000
  H   H2522     1.0  0.90572  0.80949  0.55464  1.0000
  H   H2523     1.0  0.89961  0.77481  0.61644  1.0000
  H   H2524     1.0  0.87795  0.78529  0.62588  1.0000
  C   C2109     1.0  0.77703  0.86335  0.98349  1.0000
  S   S571      1.0  0.68364  0.75418  0.85933  1.0000
  C   C2110     1.0  0.77545  0.97228  0.61606  1.0000
  S   S572      1.0  0.75775  0.98612  0.80619  1.0000
  C   C2111     1.0  0.87020  0.76755  0.53065  1.0000
  H   H2525     1.0  0.77846  0.81960  0.96969  1.0000
  C   C2112     1.0  0.66482  0.84992  0.92551  1.0000
  C   C2113     1.0  0.88667  0.76958  0.52790  1.0000
  N   N142      1.0  0.75226  0.84160  0.77828  1.0000
  C   C2114     1.0  0.76528  0.83976  0.79821  1.0000
  C   C2115     1.0  0.73593  0.82910  0.78646  1.0000
  C   C2116     1.0  0.75473  0.83767  0.74702  1.0000
  C   C2117     1.0  0.75352  0.85871  0.78099  1.0000
  C   C2118     1.0  0.76858  0.87214  0.77504  1.0000
  C   C2119     1.0  0.74016  0.86262  0.78977  1.0000
  C   C2120     1.0  0.77031  0.88844  0.77855  1.0000
  C   C2121     1.0  0.74198  0.87897  0.79282  1.0000
  C   C2122     1.0  0.75707  0.89184  0.78763  1.0000
  H   H2526     1.0  0.76429  0.84322  0.82180  1.0000
  H   H2527     1.0  0.76427  0.82685  0.79758  1.0000
  H   H2528     1.0  0.77806  0.84744  0.79173  1.0000
  H   H2529     1.0  0.73351  0.83095  0.81015  1.0000
  H   H2530     1.0  0.73539  0.81639  0.78414  1.0000
  H   H2531     1.0  0.72555  0.82925  0.77157  1.0000
  H   H2532     1.0  0.75344  0.82469  0.74413  1.0000
  H   H2533     1.0  0.74543  0.83925  0.73116  1.0000
  H   H2534     1.0  0.76731  0.84557  0.73987  1.0000
  H   H2535     1.0  0.77921  0.87014  0.76801  1.0000
  H   H2536     1.0  0.72829  0.85337  0.79522  1.0000
  H   H2537     1.0  0.78203  0.89854  0.77462  1.0000
  H   H2538     1.0  0.73184  0.88176  0.80042  1.0000
  H   H2539     1.0  0.75855  0.90448  0.79123  1.0000
  C   C2123     1.0  0.65248  0.93086  0.97316  1.0000
  H   H2540     1.0  0.68685  0.76081  0.92427  1.0000
  C   C2124     1.0  0.67890  0.95299  0.96076  1.0000
  C   C2125     1.0  0.66192  0.74863  0.93938  1.0000
  H   H2541     1.0  0.67830  0.96840  0.91010  1.0000
  H   H2542     1.0  0.66237  0.81187  0.94164  1.0000
  C   C2126     1.0  0.75681  0.87324  0.94598  1.0000
  H   H2543     1.0  0.67298  0.86118  0.91560  1.0000
  H   H2544     1.0  0.78697  0.97089  0.61028  1.0000
  S   S573      1.0  0.74449  0.97412  0.94627  1.0000
  H   H2545     1.0  0.91445  0.76196  0.53547  1.0000
  H   H2546     1.0  0.78650  0.76549  0.50734  1.0000
  H   H2547     1.0  0.76548  0.95974  0.61787  1.0000
  H   H2548     1.0  0.73525  0.95517  0.50935  1.0000
  H   H2549     1.0  0.93959  0.80315  0.51220  1.0000
  C   C2127     1.0  0.98055  0.77791  0.96436  1.0000
  S   S574      1.0  0.97150  0.78510  0.53066  1.0000
  C   C2128     1.0  0.66542  0.93759  0.95396  1.0000
  C   C2129     1.0  0.75239  0.77438  0.50238  1.0000
  H   H2550     1.0  0.69284  0.93591  0.93023  1.0000
  H   H2551     1.0  0.70696  0.94763  0.96052  1.0000
  H   H2552     1.0  0.74522  0.82306  0.97550  1.0000
  C   C2130     1.0  0.98361  0.77133  0.70614  1.0000
  H   H2553     1.0  0.66711  0.89140  0.93537  1.0000
  H   H2554     1.0  0.66562  0.75265  0.96253  1.0000
  H   H2555     1.0  0.85393  0.77852  0.54539  1.0000
  H   H2556     1.0  0.75084  0.81049  0.95028  1.0000
  H   H2557     1.0  0.75127  0.76122  0.78618  1.0000
  H   H2558     1.0  0.67562  0.78344  0.82950  1.0000
  C   C2131     1.0  0.88234  0.75174  0.59607  1.0000
  H   H2559     1.0  0.65423  0.78067  0.82332  1.0000
  H   H2560     1.0  0.69557  0.96602  0.89365  1.0000
  H   H2561     1.0  0.69219  0.79927  0.87513  1.0000
  C   C2132     1.0  0.75619  0.98458  0.60548  1.0000
  H   H2562     1.0  0.78675  0.84629  0.92197  1.0000
  C   C2133     1.0  0.66355  0.89765  0.91767  1.0000
  H   H2563     1.0  0.77808  0.97852  0.63876  1.0000
  H   H2564     1.0  0.66484  0.93052  0.93377  1.0000
  N   N143      1.0  0.91783  0.78735  0.53422  1.0000
  C   C2134     1.0  0.76012  0.95688  0.50671  1.0000
  C   C2135     1.0  0.75704  0.85774  0.94134  1.0000
  H   H2565     1.0  0.71187  0.97625  0.97087  1.0000
  C   C2136     1.0  0.65886  0.82223  0.94019  1.0000
  H   H2566     1.0  0.77535  0.82440  0.91789  1.0000
  C   C2137     1.0  0.90020  0.78480  0.53615  1.0000
  C   C2138     1.0  0.91999  0.77285  0.52141  1.0000
  C   C2139     1.0  0.87963  0.79547  0.55019  1.0000
  H   H2567     1.0  0.97088  0.77718  0.94788  1.0000
  C   C2140     1.0  0.66397  0.78152  0.84075  1.0000
  H   H2568     1.0  0.92717  0.81327  0.52501  1.0000
  H   H2569     1.0  0.74312  0.77555  0.51618  1.0000
  S   S575      1.0  0.89736  0.74414  0.58557  1.0000
  H   H2570     1.0  0.93959  0.79319  0.56390  1.0000
  H   H2571     1.0  0.77924  0.81292  0.48951  1.0000
  H   H2572     1.0  0.66383  0.81057  0.82967  1.0000
  C   C2141     1.0  0.92623  0.79103  0.56454  1.0000
  C   C2142     1.0  0.66935  0.83664  0.92739  1.0000
  H   H2573     1.0  0.67733  0.94847  0.89950  1.0000
  C   C2143     1.0  0.76662  0.88377  0.96924  1.0000
  C   C2144     1.0  0.76007  0.98781  0.97245  1.0000
  C   C2145     1.0  0.67397  0.75327  0.91775  1.0000
  C   C2146     1.0  0.74741  0.95909  0.52095  1.0000
  H   H2574     1.0  0.67466  0.82111  0.86441  1.0000
  C   C2147     1.0  0.89614  0.79770  0.54728  1.0000
  H   H2575     1.0  0.78113  0.98592  0.95282  1.0000
  Fe  Fe287     1.0  0.78332  0.74888  0.64861  1.0000
  C   C2148     1.0  0.86669  0.78042  0.54189  1.0000
  H   H2576     1.0  0.73807  0.77482  0.96203  1.0000
  C   C2149     1.0  0.68560  0.96072  0.90966  1.0000
  H   H2577     1.0  0.91424  0.76950  0.49830  1.0000
  H   H2578     1.0  0.86009  0.75566  0.52543  1.0000
  C   C2150     1.0  0.75046  0.96698  0.54927  1.0000
  N   N144      1.0  0.66658  0.79474  0.86361  1.0000
  C   C2151     1.0  0.85303  0.74783  0.59450  1.0000
  H   H2579     1.0  0.93339  0.77517  0.52034  1.0000
  C   C2152     1.0  0.77592  0.96230  0.52090  1.0000
  H   H2580     1.0  0.67777  0.78343  0.89516  1.0000
  C   C2153     1.0  0.92648  0.80143  0.51518  1.0000
  H   H2581     1.0  0.74221  0.82400  0.93576  1.0000
  H   H2582     1.0  0.88844  0.75882  0.52040  1.0000
  H   H2583     1.0  0.74009  0.96857  0.55858  1.0000
  S   S576      1.0  0.77310  0.74672  0.69558  1.0000
  Fe  Fe288     1.0  0.92525  0.75011  0.59257  1.0000
  H   H2584     1.0  0.71492  0.98106  0.93279  1.0000
  C   C2154     1.0  0.77854  0.78063  0.97348  1.0000
  H   H2585     1.0  0.79157  0.97416  0.55931  1.0000
  H   H2586     1.0  0.74134  0.99126  0.49873  1.0000
  H   H2587     1.0  0.92002  0.79950  0.49260  1.0000
  H   H2588     1.0  0.65989  0.76921  0.85062  1.0000
  C   C2155     1.0  0.74918  0.77459  0.97294  1.0000
  H   H2589     1.0  0.79181  0.84086  0.97500  1.0000
  H   H2590     1.0  0.78582  0.96072  0.50955  1.0000
  C   C2156     1.0  0.77858  0.83196  0.97516  1.0000
  C   C2157     1.0  0.75078  0.82292  0.95372  1.0000
  C   C2158     1.0  0.70512  0.97635  0.94927  1.0000
  H   H2591     1.0  0.76083  0.74861  0.93595  1.0000
  C   C2159     1.0  0.77704  0.99165  0.97039  1.0000
  H   H2592     1.0  0.75959  0.99154  0.62746  1.0000
  C   C2160     1.0  0.77664  0.87881  0.98803  1.0000
