data_image0
_chemical_formula_structural       FeS2HC3H2CFeS2FeSCFeSFeS4HC6H5C6H8C6NHCH2C2HC3H2CHNCHCHC2FeCHC2H2C2HCHCH5CH4C3H5C4SH3NHS2C2SHSH2C2H7CH2NHCNFeCHC3SC2H4C2HCH3C2HC2H3CHC2FeS2FeSHFeSFeS4FeS2HC3H3C3H2C6H4C6H5NC9H14CH2C2H2SCH2CH2CHCH2N2CHC2H3CH2C3H4CHCH3CHC4H2CH3C2H2C2H4CH2C2FeS2CH3SFeS2FeS2Fe2HS2H3C2SH2C6H4C2H2NC9H10FeH3CH2C2H5FeCFeS2FeSFeSFeS3FeS2HCHCHCH3C7H4C3H5C2H3CHCH2NH2C3HSHCH7CNC2HSCHCHCHC2HC3H3C2SHFeS2FeSFeS3FeS2HCH3C3SHC6H6NC9H8FeH3SC3FeS2FeS2FeSFeS2FeS2C6H5C2H3SHC3NH2C2H4CHCH2C2H5C6HCHCHCH2CH4CNH4FeH2FeH2CH4C2H3CHCHFeS2FeS2FeSFeS4CFeS2CH3CH2CNCHNC2H2C7H4C6H4CHSHSC2SC2H2CHCH4FeC2HCHC2H3C3HCH2C3H2CHC3H7C2HCHC4H2CNFeH4NC2H9C4HCHNC2HC2H3CHCH4CHCFeS2FeS2FeSFeS3FeS2HCHC7H4C6H4C2H4CH2C3NCH4CH3CHC2H2N2HCHNCHCHCSH3C4HNH3CHC2HCHCHC3SHCHCH4CH3CH2CH2CH4CHCH2CH3C2H3CHCS
_chemical_formula_sum              "Fe48 S96 H432 C360 N24"
_cell_length_a       44.8371
_cell_length_b       36.2899
_cell_length_c       35.2119
_cell_angle_alpha    89.8943
_cell_angle_beta     89.7222
_cell_angle_gamma    90.807

_space_group_name_H-M_alt    "P 1"
_space_group_IT_number       1

loop_
  _space_group_symop_operation_xyz
  'x, y, z'

loop_
  _atom_site_type_symbol
  _atom_site_label
  _atom_site_symmetry_multiplicity
  _atom_site_fract_x
  _atom_site_fract_y
  _atom_site_fract_z
  _atom_site_occupancy
  Fe  Fe1       1.0  0.08524  0.43945  0.17503  1.0000
  S   S1        1.0  0.09325  0.44048  0.11181  1.0000
  S   S2        1.0  0.09798  0.39252  0.21559  1.0000
  H   H1        1.0  0.02071  0.16937  0.41992  1.0000
  C   C1        1.0  0.07368  0.35674  0.34954  1.0000
  C   C2        1.0  0.27457  0.38071  0.29009  1.0000
  C   C3        1.0  0.25681  0.09816  0.32397  1.0000
  H   H2        1.0  0.15376  0.34684  0.21013  1.0000
  H   H3        1.0  0.26663  0.12545  0.32631  1.0000
  C   C4        1.0  0.32546  0.41462  0.22090  1.0000
  Fe  Fe2       1.0  0.14781  0.19633  0.34752  1.0000
  S   S3        1.0  0.12537  0.16896  0.29819  1.0000
  S   S4        1.0  0.19273  0.22160  0.33170  1.0000
  Fe  Fe3       1.0  0.09283  0.18316  0.39866  1.0000
  S   S5        1.0  0.06696  0.15489  0.35229  1.0000
  C   C5        1.0  0.01511  0.17648  0.44884  1.0000
  Fe  Fe4       1.0  0.11011  0.12550  0.33993  1.0000
  S   S6        1.0  0.12250  0.06672  0.32337  1.0000
  Fe  Fe5       1.0  0.08515  0.20102  0.31498  1.0000
  S   S7        1.0  0.05736  0.23107  0.27092  1.0000
  S   S8        1.0  0.13513  0.15128  0.38859  1.0000
  S   S9        1.0  0.10822  0.23104  0.36218  1.0000
  S   S10       1.0  0.31235  0.16848  0.40826  1.0000
  H   H4        1.0  0.27624  0.49596  0.08974  1.0000
  C   C6        1.0  0.22562  0.20485  0.35229  1.0000
  C   C7        1.0  0.25322  0.21373  0.33537  1.0000
  C   C8        1.0  0.28000  0.20236  0.35205  1.0000
  C   C9        1.0  0.27924  0.18216  0.38590  1.0000
  C   C10       1.0  0.25165  0.17268  0.40245  1.0000
  C   C11       1.0  0.22487  0.18387  0.38563  1.0000
  H   H5        1.0  0.25385  0.22952  0.30931  1.0000
  H   H6        1.0  0.30119  0.20964  0.33902  1.0000
  H   H7        1.0  0.25094  0.15689  0.42854  1.0000
  H   H8        1.0  0.20369  0.17696  0.39888  1.0000
  H   H9        1.0  0.03305  0.10664  0.27171  1.0000
  C   C12       1.0  0.08614  0.34725  0.22913  1.0000
  C   C13       1.0  0.10289  0.32855  0.25662  1.0000
  C   C14       1.0  0.09446  0.29303  0.26925  1.0000
  C   C15       1.0  0.06893  0.27564  0.25476  1.0000
  C   C16       1.0  0.05214  0.29420  0.22713  1.0000
  C   C17       1.0  0.06071  0.32979  0.21427  1.0000
  H   H10       1.0  0.12231  0.34189  0.26883  1.0000
  H   H11       1.0  0.10762  0.27928  0.29051  1.0000
  H   H12       1.0  0.03236  0.28104  0.21567  1.0000
  H   H13       1.0  0.04753  0.34377  0.19317  1.0000
  H   H14       1.0  0.30064  0.08889  0.25060  1.0000
  H   H15       1.0  0.02163  0.35948  0.28018  1.0000
  H   H16       1.0  0.22555  0.49703  0.06129  1.0000
  H   H17       1.0  0.10146  0.13437  0.22117  1.0000
  C   C18       1.0  0.22796  0.49834  0.09182  1.0000
  C   C19       1.0  0.32135  0.08649  0.34314  1.0000
  C   C20       1.0  0.08718  0.02692  0.23450  1.0000
  C   C21       1.0  0.10285  0.02445  0.33073  1.0000
  C   C22       1.0  0.29457  0.45083  0.26153  1.0000
  C   C23       1.0  0.07235  0.02308  0.33923  1.0000
  N   N1        1.0  0.06745  0.09247  0.23103  1.0000
  H   H18       1.0  0.32082  0.01624  0.32208  1.0000
  C   C24       1.0  0.31241  0.09797  0.27679  1.0000
  H   H19       1.0  0.04375  0.23835  0.35436  1.0000
  H   H20       1.0  0.21805  0.37951  0.11411  1.0000
  C   C25       1.0  0.22806  0.35233  0.18844  1.0000
  C   C26       1.0  0.02070  0.24574  0.36286  1.0000
  H   H21       1.0  0.25865  0.40272  0.28902  1.0000
  C   C27       1.0  0.31266  0.32048  0.29445  1.0000
  C   C28       1.0  0.27449  0.06708  0.31519  1.0000
  C   C29       1.0  0.03664  0.27347  0.42130  1.0000
  H   H22       1.0  0.05332  0.13652  0.19424  1.0000
  H   H23       1.0  0.22683  0.41809  0.14510  1.0000
  C   C30       1.0  0.06178  0.32802  0.37172  1.0000
  H   H24       1.0  0.14015  0.36795  0.15424  1.0000
  N   N2        1.0  0.18576  0.38861  0.15865  1.0000
  C   C31       1.0  0.22859  0.02931  0.31929  1.0000
  H   H25       1.0  0.02534  0.10235  0.20311  1.0000
  C   C32       1.0  0.19721  0.36050  0.18525  1.0000
  H   H26       1.0  0.06031  0.04837  0.34337  1.0000
  C   C33       1.0  0.05728  0.11084  0.26624  1.0000
  C   C34       1.0  0.99831  0.47666  0.02053  1.0000
  Fe  Fe6       1.0  0.05406  0.47910  0.10774  1.0000
  C   C35       1.0  0.05886  0.36855  0.31715  1.0000
  H   H27       1.0  0.09482  0.36953  0.35709  1.0000
  C   C36       1.0  0.17736  0.34123  0.21005  1.0000
  C   C37       1.0  0.28348  0.31723  0.30792  1.0000
  H   H28       1.0  0.11344  0.09625  0.24870  1.0000
  H   H29       1.0  0.27495  0.44472  0.24321  1.0000
  C   C38       1.0  0.18749  0.31453  0.23540  1.0000
  C   C39       1.0  0.20847  0.40241  0.13096  1.0000
  H   H30       1.0  0.30461  0.47690  0.25002  1.0000
  C   C40       1.0  0.30443  0.38516  0.27679  1.0000
  H   H31       1.0  0.27564  0.29146  0.32030  1.0000
  C   C41       1.0  0.03406  0.03684  0.24072  1.0000
  H   H32       1.0  0.05587  0.09202  0.17185  1.0000
  H   H33       1.0  0.24492  0.36613  0.17141  1.0000
  H   H34       1.0  0.06928  0.09979  0.29133  1.0000
  H   H35       1.0  0.06846  0.39032  0.29957  1.0000
  H   H36       1.0  0.17178  0.29985  0.25375  1.0000
  C   C42       1.0  0.17514  0.42055  0.18073  1.0000
  H   H37       1.0  0.11017  0.03582  0.23191  1.0000
  H   H38       1.0  0.19870  0.42213  0.11026  1.0000
  H   H39       1.0  0.16536  0.44174  0.16177  1.0000
  H   H40       1.0  0.05949  0.26275  0.41634  1.0000
  C   C43       1.0  0.03429  0.31043  0.36206  1.0000
  C   C44       1.0  0.25944  0.03233  0.31330  1.0000
  C   C45       1.0  0.32225  0.03677  0.29855  1.0000
  H   H41       1.0  0.22539  0.28568  0.25691  1.0000
  H   H42       1.0  0.06129  0.14124  0.26517  1.0000
  H   H43       1.0  0.02499  0.25229  0.43900  1.0000
  H   H44       1.0  0.31303  0.02428  0.27219  1.0000
  H   H45       1.0  0.31267  0.11390  0.35113  1.0000
  C   C46       1.0  0.26446  0.34720  0.30560  1.0000
  C   C47       1.0  0.09901  0.10390  0.22432  1.0000
  C   C48       1.0  0.32301  0.35386  0.27915  1.0000
  C   C49       1.0  0.23800  0.32561  0.21403  1.0000
  S   S11       1.0  0.16652  0.49761  0.09340  1.0000
  H   H46       1.0  0.15749  0.41265  0.20157  1.0000
  H   H47       1.0  0.16643  0.34712  0.12224  1.0000
  H   H48       1.0  0.26158  0.31954  0.21592  1.0000
  N   N3        1.0  0.30700  0.07162  0.30847  1.0000
  H   H49       1.0  0.19361  0.43379  0.19695  1.0000
  S   S12       1.0  0.07520  0.19364  0.45846  1.0000
  S   S13       1.0  0.04441  0.47485  0.17119  1.0000
  C   C50       1.0  0.21773  0.30657  0.23725  1.0000
  C   C51       1.0  0.16033  0.37333  0.13643  1.0000
  S   S14       1.0  0.01392  0.46895  0.06702  1.0000
  H   H50       1.0  0.30638  0.40484  0.20334  1.0000
  S   S15       1.0  0.11534  0.48862  0.18548  1.0000
  H   H51       1.0  0.31777  0.06779  0.36787  1.0000
  H   H52       1.0  0.24170  0.34437  0.31597  1.0000
  C   C52       1.0  0.21193  0.06045  0.32757  1.0000
  C   C53       1.0  0.26016  0.49856  0.14731  1.0000
  H   H53       1.0  0.03817  0.29872  0.43907  1.0000
  H   H54       1.0  0.15287  0.39295  0.11410  1.0000
  H   H55       1.0  0.10814  0.09132  0.19801  1.0000
  H   H56       1.0  0.07475  0.31981  0.39598  1.0000
  H   H57       1.0  0.01110  0.22220  0.37937  1.0000
  H   H58       1.0  0.21300  0.11902  0.33649  1.0000
  H   H59       1.0  0.18801  0.05807  0.33209  1.0000
  C   C54       1.0  0.06312  0.05207  0.23502  1.0000
  H   H60       1.0  0.01476  0.05424  0.24233  1.0000
  H   H61       1.0  0.30488  0.12626  0.28369  1.0000
  N   N4        1.0  0.31632  0.42029  0.26096  1.0000
  H   H62       1.0  0.28693  0.45705  0.29089  1.0000
  C   C55       1.0  0.04972  0.10633  0.19866  1.0000
  N   N5        1.0  0.02069  0.28035  0.38512  1.0000
  Fe  Fe7       1.0  0.12110  0.49161  0.12263  1.0000
  C   C56       1.0  0.22604  0.09479  0.32999  1.0000
  H   H63       1.0  0.27095  0.00709  0.30710  1.0000
  C   C57       1.0  0.03237  0.35120  0.30632  1.0000
  C   C58       1.0  0.01159  0.50023  0.99350  1.0000
  C   C59       1.0  0.02029  0.32242  0.32820  1.0000
  S   S16       1.0  0.29537  0.49402  0.16965  1.0000
  C   C60       1.0  0.25676  0.49775  0.10787  1.0000
  C   C61       1.0  0.20231  0.50006  0.11493  1.0000
  H   H64       1.0  0.00771  0.24791  0.33616  1.0000
  H   H65       1.0  0.32751  0.29709  0.29605  1.0000
  H   H66       1.0  0.00019  0.30913  0.31795  1.0000
  H   H67       1.0  0.23690  0.50169  0.20092  1.0000
  C   C62       1.0  0.23452  0.50078  0.17038  1.0000
  C   C63       1.0  0.20580  0.50203  0.15432  1.0000
  H   H68       1.0  0.21744  0.00266  0.31732  1.0000
  C   C64       1.0  0.03001  0.19571  0.51168  1.0000
  H   H69       1.0  0.04730  0.20413  0.53130  1.0000
  H   H70       1.0  0.31237  0.18806  0.48492  1.0000
  H   H71       1.0  0.02810  0.37964  0.85666  1.0000
  C   C65       1.0  0.01788  0.40314  0.84133  1.0000
  C   C66       1.0  0.00006  0.19385  0.52420  1.0000
  H   H72       1.0  0.31124  0.21360  0.62301  1.0000
  C   C67       1.0  0.28618  0.19158  0.53510  1.0000
  C   C68       1.0  0.28555  0.19869  0.57394  1.0000
  H   H73       1.0  0.02364  0.42890  0.85706  1.0000
  H   H74       1.0  0.26464  0.19683  0.58947  1.0000
  H   H75       1.0  0.26574  0.18419  0.52038  1.0000
  C   C69       1.0  0.31183  0.20816  0.59274  1.0000
  H   H76       1.0  0.02888  0.40529  0.81302  1.0000
  C   C70       1.0  0.31306  0.19394  0.51495  1.0000
  C   C71       1.0  0.03768  0.18730  0.47391  1.0000
  Fe  Fe8       1.0  0.12474  0.80491  0.34755  1.0000
  S   S17       1.0  0.09901  0.82427  0.29667  1.0000
  S   S18       1.0  0.17360  0.80500  0.33034  1.0000
  Fe  Fe9       1.0  0.06692  0.79119  0.39253  1.0000
  S   S19       1.0  0.03833  0.80869  0.34392  1.0000
  H   H77       1.0  0.31209  0.87407  0.39135  1.0000
  Fe  Fe10      1.0  0.06931  0.77489  0.30759  1.0000
  S   S20       1.0  0.05590  0.73885  0.25692  1.0000
  Fe  Fe11      1.0  0.07126  0.85597  0.33818  1.0000
  S   S21       1.0  0.05161  0.91354  0.33397  1.0000
  S   S22       1.0  0.09602  0.75419  0.35658  1.0000
  S   S23       1.0  0.09871  0.83990  0.38854  1.0000
  S   S24       1.0  0.29539  0.78224  0.41849  1.0000
  Fe  Fe12      1.0  0.07522  0.52423  0.17763  1.0000
  S   S25       1.0  0.08270  0.53071  0.11443  1.0000
  S   S26       1.0  0.06849  0.56583  0.22603  1.0000
  H   H78       1.0  0.25315  0.97569  0.41770  1.0000
  C   C72       1.0  0.02942  0.99893  0.24559  1.0000
  C   C73       1.0  0.29001  0.88512  0.38316  1.0000
  C   C74       1.0  0.05716  0.98881  0.34116  1.0000
  H   H79       1.0  0.29386  0.90482  0.35931  1.0000
  H   H80       1.0  0.02918  0.54690  0.06004  1.0000
  H   H81       1.0  0.09823  0.65883  0.42365  1.0000
  C   C75       1.0  0.07233  0.95560  0.33526  1.0000
  C   C76       1.0  0.10303  0.95693  0.32798  1.0000
  C   C77       1.0  0.11811  0.99121  0.32536  1.0000
  H   H82       1.0  0.11490  0.93163  0.32304  1.0000
  H   H83       1.0  0.20395  0.99586  0.39883  1.0000
  C   C78       1.0  0.06094  0.69090  0.24865  1.0000
  C   C79       1.0  0.06789  0.66633  0.27786  1.0000
  C   C80       1.0  0.07040  0.62833  0.27010  1.0000
  C   C81       1.0  0.06643  0.61436  0.23316  1.0000
  C   C82       1.0  0.06025  0.63905  0.20376  1.0000
  C   C83       1.0  0.05727  0.67701  0.21159  1.0000
  H   H84       1.0  0.07095  0.67645  0.30648  1.0000
  H   H85       1.0  0.07568  0.60952  0.29282  1.0000
  H   H86       1.0  0.05725  0.62885  0.17519  1.0000
  H   H87       1.0  0.05198  0.69579  0.18877  1.0000
  C   C84       1.0  0.20656  0.79529  0.35555  1.0000
  C   C85       1.0  0.20673  0.78802  0.39457  1.0000
  C   C86       1.0  0.23405  0.78274  0.41342  1.0000
  C   C87       1.0  0.26129  0.78481  0.39343  1.0000
  C   C88       1.0  0.26087  0.79084  0.35424  1.0000
  C   C89       1.0  0.23371  0.79631  0.33550  1.0000
  H   H88       1.0  0.10091  0.97041  0.23987  1.0000
  H   H89       1.0  0.18595  0.78716  0.41032  1.0000
  H   H90       1.0  0.28153  0.79177  0.33836  1.0000
  H   H91       1.0  0.23384  0.80191  0.30531  1.0000
  H   H92       1.0  0.17549  0.58280  0.17772  1.0000
  N   N6        1.0  0.16776  0.71147  0.25442  1.0000
  C   C90       1.0  0.15792  0.70328  0.29385  1.0000
  C   C91       1.0  0.19621  0.73292  0.25649  1.0000
  C   C92       1.0  0.14531  0.73553  0.23637  1.0000
  C   C93       1.0  0.17042  0.67653  0.23297  1.0000
  C   C94       1.0  0.19809  0.66347  0.21864  1.0000
  C   C95       1.0  0.14488  0.65384  0.22667  1.0000
  C   C96       1.0  0.19971  0.63008  0.19889  1.0000
  C   C97       1.0  0.14677  0.62047  0.20703  1.0000
  C   C98       1.0  0.17412  0.60866  0.19305  1.0000
  H   H93       1.0  0.17366  0.68435  0.30818  1.0000
  H   H94       1.0  0.15673  0.72883  0.31131  1.0000
  H   H95       1.0  0.13532  0.69024  0.29489  1.0000
  H   H96       1.0  0.21356  0.71791  0.27263  1.0000
  H   H97       1.0  0.19330  0.75957  0.27156  1.0000
  H   H98       1.0  0.20494  0.73996  0.22770  1.0000
  H   H99       1.0  0.14382  0.76270  0.25102  1.0000
  H   H100      1.0  0.15094  0.74086  0.20602  1.0000
  H   H101      1.0  0.12237  0.72352  0.23749  1.0000
  H   H102      1.0  0.21887  0.67840  0.22233  1.0000
  H   H103      1.0  0.12323  0.66168  0.23709  1.0000
  H   H104      1.0  0.22099  0.62063  0.18808  1.0000
  H   H105      1.0  0.12692  0.60355  0.20275  1.0000
  H   H106      1.0  0.04004  0.88235  0.41443  1.0000
  C   C99       1.0  0.23794  0.95497  0.40688  1.0000
  H   H107      1.0  0.03266  0.51363  0.99979  1.0000
  H   H108      1.0  0.27710  0.86129  0.37201  1.0000
  C   C100      1.0  0.27096  0.87539  0.44650  1.0000
  C   C101      1.0  0.00900  0.78019  0.46291  1.0000
  H   H109      1.0  0.22812  0.86369  0.38598  1.0000
  H   H110      1.0  0.00718  0.98794  0.25095  1.0000
  S   S27       1.0  0.04664  0.77265  0.44914  1.0000
  C   C102      1.0  0.20967  0.96703  0.39599  1.0000
  H   H111      1.0  0.02318  0.59161  0.04030  1.0000
  H   H112      1.0  0.04292  0.58748  0.08377  1.0000
  C   C103      1.0  0.29596  0.93204  0.43015  1.0000
  H   H113      1.0  0.17938  0.88557  0.36687  1.0000
  H   H114      1.0  0.14163  0.99202  0.31842  1.0000
  C   C104      1.0  0.24579  0.91721  0.40391  1.0000
  H   H115      1.0  0.05516  0.69845  0.41776  1.0000
  C   C105      1.0  0.22379  0.89273  0.38909  1.0000
  H   H116      1.0  0.23415  0.77782  0.44373  1.0000
  H   H117      1.0  0.31790  0.92026  0.43827  1.0000
  N   N7        1.0  0.27516  0.90307  0.41580  1.0000
  N   N8        1.0  0.00338  0.68579  0.37798  1.0000
  C   C106      1.0  0.18861  0.94213  0.38168  1.0000
  H   H118      1.0  0.30116  0.95302  0.40787  1.0000
  C   C107      1.0  0.02263  0.88934  0.43456  1.0000
  C   C108      1.0  0.07975  0.61529  0.38932  1.0000
  H   H119      1.0  0.02923  0.73635  0.37945  1.0000
  H   H120      1.0  0.25746  0.85122  0.43718  1.0000
  H   H121      1.0  0.18638  0.50418  0.17247  1.0000
  C   C109      1.0  0.05443  0.67213  0.40337  1.0000
  H   H122      1.0  0.04992  0.94582  0.24988  1.0000
  H   H123      1.0  0.16668  0.95151  0.37351  1.0000
  C   C110      1.0  0.02383  0.57592  0.06734  1.0000
  C   C111      1.0  0.19572  0.90506  0.37810  1.0000
  C   C112      1.0  0.05345  0.97508  0.24478  1.0000
  H   H124      1.0  0.02442  0.71707  0.33293  1.0000
  H   H125      1.0  0.28697  0.94582  0.45586  1.0000
  H   H126      1.0  0.03340  0.98807  0.34666  1.0000
  H   H127      1.0  0.00676  0.70670  0.43544  1.0000
  C   C113      1.0  0.01327  0.72130  0.36094  1.0000
  H   H128      1.0  0.29265  0.86390  0.45599  1.0000
  C   C114      1.0  0.07927  0.64957  0.40700  1.0000
  H   H129      1.0  0.01925  0.56979  0.14199  1.0000
  H   H130      1.0  0.05596  0.57688  0.35390  1.0000
  H   H131      1.0  0.09907  0.59789  0.39210  1.0000
  C   C115      1.0  0.05539  0.60347  0.36794  1.0000
  H   H132      1.0  0.00540  0.52836  0.12086  1.0000
  C   C116      1.0  0.02927  0.66112  0.38157  1.0000
  C   C117      1.0  0.03052  0.62598  0.36378  1.0000
  C   C118      1.0  0.08221  0.98902  0.23912  1.0000
  C   C119      1.0  0.00171  0.91575  0.42508  1.0000
  H   H133      1.0  0.01277  0.61530  0.34618  1.0000
  H   H134      1.0  0.00678  0.62897  0.11676  1.0000
  C   C120      1.0  0.00015  0.55792  0.12568  1.0000
  H   H135      1.0  0.00324  0.92916  0.39752  1.0000
  H   H136      1.0  0.02301  0.80626  0.57496  1.0000
  H   H137      1.0  0.01620  0.76141  0.52017  1.0000
  C   C121      1.0  0.00005  0.77196  0.50034  1.0000
  C   C122      1.0  0.01335  0.81113  0.60275  1.0000
  H   H138      1.0  0.00302  0.75392  0.61283  1.0000
  H   H139      1.0  0.01698  0.82712  0.74087  1.0000
  C   C123      1.0  0.01185  0.84683  0.61701  1.0000
  C   C124      1.0  0.00228  0.78167  0.62422  1.0000
  H   H140      1.0  0.02062  0.86968  0.60034  1.0000
  H   H141      1.0  0.00809  0.52517  0.93783  1.0000
  H   H142      1.0  0.00736  0.87322  0.72758  1.0000
  H   H143      1.0  0.25956  0.88746  0.47158  1.0000
  C   C125      1.0  0.02106  0.87188  0.46976  1.0000
  H   H144      1.0  0.03731  0.85110  0.47679  1.0000
  H   H145      1.0  0.99820  0.88144  0.66235  1.0000
  C   C126      1.0  0.99907  0.85322  0.65268  1.0000
  C   C127      1.0  0.99838  0.88050  0.49553  1.0000
  Fe  Fe13      1.0  0.39970  0.46542  0.18816  1.0000
  S   S28       1.0  0.37498  0.45647  0.13371  1.0000
  S   S29       1.0  0.41542  0.42408  0.23269  1.0000
  C   C128      1.0  0.46009  0.49765  0.02150  1.0000
  H   H146      1.0  0.34829  0.22435  0.45811  1.0000
  H   H147      1.0  0.33703  0.43595  0.31371  1.0000
  H   H148      1.0  0.35196  0.45941  0.27259  1.0000
  S   S30       1.0  0.42932  0.48571  0.05272  1.0000
  Fe  Fe14      1.0  0.39405  0.21736  0.31667  1.0000
  S   S31       1.0  0.38218  0.23133  0.37707  1.0000
  S   S32       1.0  0.38762  0.25347  0.26389  1.0000
  Fe  Fe15      1.0  0.40440  0.13570  0.33694  1.0000
  S   S33       1.0  0.39379  0.14409  0.39840  1.0000
  S   S34       1.0  0.41432  0.07961  0.31130  1.0000
  Fe  Fe16      1.0  0.35600  0.17832  0.37754  1.0000
  Fe  Fe17      1.0  0.42131  0.19609  0.39367  1.0000
  H   H149      1.0  0.42146  0.00531  0.28511  1.0000
  S   S35       1.0  0.36455  0.16644  0.31627  1.0000
  S   S36       1.0  0.43519  0.18560  0.33285  1.0000
  H   H150      1.0  0.36146  0.41304  0.28131  1.0000
  H   H151      1.0  0.43145  0.38863  0.10583  1.0000
  H   H152      1.0  0.49204  0.16589  0.41828  1.0000
  C   C129      1.0  0.40799  0.00409  0.31068  1.0000
  C   C130      1.0  0.38452  0.03481  0.36355  1.0000
  S   S37       1.0  0.44625  0.21655  0.44612  1.0000
  H   H153      1.0  0.54014  0.14653  0.44648  1.0000
  H   H154      1.0  0.33666  0.10070  0.26981  1.0000
  C   C131      1.0  0.40724  0.37660  0.24056  1.0000
  C   C132      1.0  0.41428  0.36104  0.27598  1.0000
  C   C133      1.0  0.40828  0.32352  0.28377  1.0000
  C   C134      1.0  0.39535  0.30101  0.25601  1.0000
  C   C135      1.0  0.38831  0.31656  0.22054  1.0000
  C   C136      1.0  0.39425  0.35412  0.21278  1.0000
  H   H155      1.0  0.42449  0.37813  0.29762  1.0000
  H   H156      1.0  0.41388  0.31194  0.31113  1.0000
  H   H157      1.0  0.37847  0.29930  0.19880  1.0000
  H   H158      1.0  0.38902  0.36547  0.18524  1.0000
  C   C137      1.0  0.52573  0.16474  0.46220  1.0000
  C   C138      1.0  0.40183  0.03680  0.33044  1.0000
  H   H159      1.0  0.44186  0.43571  0.11221  1.0000
  H   H160      1.0  0.38024  0.05955  0.37961  1.0000
  N   N9        1.0  0.47134  0.39738  0.13929  1.0000
  C   C139      1.0  0.49085  0.39319  0.10542  1.0000
  C   C140      1.0  0.44132  0.40832  0.12653  1.0000
  C   C141      1.0  0.48385  0.42820  0.16228  1.0000
  C   C142      1.0  0.46878  0.36208  0.16037  1.0000
  C   C143      1.0  0.47499  0.35899  0.19984  1.0000
  C   C144      1.0  0.45829  0.32972  0.14179  1.0000
  C   C145      1.0  0.47098  0.32553  0.21915  1.0000
  C   C146      1.0  0.45425  0.29646  0.16145  1.0000
  C   C147      1.0  0.46052  0.29441  0.20008  1.0000
  H   H161      1.0  0.51335  0.38344  0.11366  1.0000
  H   H162      1.0  0.42573  0.41003  0.15111  1.0000
  H   H163      1.0  0.50646  0.42174  0.17309  1.0000
  H   H164      1.0  0.48599  0.45413  0.14537  1.0000
  H   H165      1.0  0.46908  0.43489  0.18679  1.0000
  H   H166      1.0  0.48195  0.38226  0.21685  1.0000
  H   H167      1.0  0.45240  0.33012  0.11208  1.0000
  H   H168      1.0  0.47495  0.32402  0.24948  1.0000
  H   H169      1.0  0.44562  0.27228  0.14692  1.0000
  H   H170      1.0  0.45645  0.26891  0.21556  1.0000
  Fe  Fe18      1.0  0.34458  0.50209  0.15243  1.0000
  H   H171      1.0  0.38633  0.23754  0.46354  1.0000
  H   H172      1.0  0.48151  0.37345  0.08441  1.0000
  H   H173      1.0  0.49378  0.41979  0.08975  1.0000
  C   C148      1.0  0.49845  0.17566  0.44613  1.0000
  H   H174      1.0  0.34655  0.04146  0.29313  1.0000
  H   H175      1.0  0.34584  0.09031  0.33906  1.0000
  C   C149      1.0  0.34271  0.43261  0.28313  1.0000
  C   C150      1.0  0.46662  0.47446  0.99046  1.0000
  H   H176      1.0  0.34586  0.35501  0.26936  1.0000
  H   H177      1.0  0.34364  0.39444  0.21812  1.0000
  H   H178      1.0  0.45309  0.44994  0.98606  1.0000
  H   H179      1.0  0.33399  0.44057  0.20771  1.0000
  H   H180      1.0  0.64063  0.12492  0.46582  1.0000
  Fe  Fe19      1.0  0.40546  0.50163  0.10927  1.0000
  C   C151      1.0  0.47999  0.19998  0.46571  1.0000
  Fe  Fe20      1.0  0.58347  0.17326  0.57812  1.0000
  S   S38       1.0  0.55486  0.18233  0.62975  1.0000
  S   S39       1.0  0.56978  0.16445  0.51654  1.0000
  Fe  Fe21      1.0  0.63987  0.16214  0.62656  1.0000
  S   S40       1.0  0.61507  0.16989  0.68138  1.0000
  Fe  Fe22      1.0  0.57964  0.13373  0.65449  1.0000
  S   S41       1.0  0.55767  0.08212  0.67988  1.0000
  Fe  Fe23      1.0  0.59324  0.21783  0.65193  1.0000
  S   S42       1.0  0.59621  0.27912  0.66948  1.0000
  S   S43       1.0  0.60591  0.12353  0.60189  1.0000
  S   S44       1.0  0.62035  0.21126  0.59795  1.0000
  Fe  Fe24      1.0  0.58601  0.45012  0.82502  1.0000
  S   S45       1.0  0.60210  0.46359  0.88453  1.0000
  S   S46       1.0  0.57598  0.38957  0.80921  1.0000
  H   H181      1.0  0.51203  0.45335  0.76142  1.0000
  C   C152      1.0  0.53460  0.17752  0.49819  1.0000
  H   H182      1.0  0.35780  0.16075  0.47311  1.0000
  C   C153      1.0  0.52715  0.39350  0.71793  1.0000
  H   H183      1.0  0.35834  0.21809  0.58915  1.0000
  C   C154      1.0  0.57418  0.03800  0.67496  1.0000
  H   H184      1.0  0.39945  0.19754  0.55650  1.0000
  H   H185      1.0  0.41528  0.21960  0.51592  1.0000
  H   H186      1.0  0.53769  0.43649  0.63215  1.0000
  C   C155      1.0  0.53388  0.41550  0.65343  1.0000
  C   C156      1.0  0.59213  0.30846  0.70986  1.0000
  C   C157      1.0  0.57911  0.29644  0.74396  1.0000
  C   C158      1.0  0.57502  0.32147  0.77424  1.0000
  C   C159      1.0  0.58431  0.35865  0.77122  1.0000
  C   C160      1.0  0.59844  0.37025  0.73764  1.0000
  C   C161      1.0  0.60196  0.34545  0.70708  1.0000
  H   H187      1.0  0.57139  0.26818  0.74670  1.0000
  H   H188      1.0  0.56411  0.31207  0.80005  1.0000
  H   H189      1.0  0.60609  0.39848  0.73488  1.0000
  H   H190      1.0  0.61206  0.35514  0.68089  1.0000
  C   C162      1.0  0.48878  0.21254  0.50181  1.0000
  C   C163      1.0  0.51580  0.20116  0.51812  1.0000
  C   C164      1.0  0.39463  0.21777  0.53362  1.0000
  H   H191      1.0  0.63436  0.16288  0.52470  1.0000
  H   H192      1.0  0.47481  0.23155  0.51710  1.0000
  H   H193      1.0  0.52239  0.21134  0.54573  1.0000
  H   H194      1.0  0.56503  0.44461  0.75285  1.0000
  H   H195      1.0  0.49481  0.46434  0.94130  1.0000
  C   C165      1.0  0.53156  0.42379  0.69282  1.0000
  C   C166      1.0  0.65730  0.23785  0.73782  1.0000
  H   H196      1.0  0.65642  0.30233  0.69730  1.0000
  H   H197      1.0  0.53572  0.00864  0.69711  1.0000
  H   H198      1.0  0.63617  0.09742  0.52683  1.0000
  C   C167      1.0  0.54800  0.04129  0.57222  1.0000
  H   H199      1.0  0.56897  0.49194  0.73925  1.0000
  C   C168      1.0  0.53199  0.37912  0.64036  1.0000
  H   H200      1.0  0.65795  0.24920  0.76710  1.0000
  H   H201      1.0  0.39671  0.17013  0.47858  1.0000
  N   N10       1.0  0.53562  0.46158  0.70800  1.0000
  H   H202      1.0  0.37612  0.14804  0.51637  1.0000
  H   H203      1.0  0.53991  0.08415  0.53135  1.0000
  C   C169      1.0  0.52765  0.35012  0.66584  1.0000
  C   C170      1.0  0.52490  0.35736  0.70448  1.0000
  C   C171      1.0  0.53782  0.05490  0.53770  1.0000
  H   H204      1.0  0.53442  0.37320  0.61033  1.0000
  S   S47       1.0  0.54866  0.49146  0.82789  1.0000
  H   H205      1.0  0.35817  0.26063  0.49061  1.0000
  C   C172      1.0  0.60310  0.03416  0.66056  1.0000
  H   H206      1.0  0.52225  0.33465  0.72435  1.0000
  H   H207      1.0  0.48904  0.46631  0.72200  1.0000
  H   H208      1.0  0.52665  0.39719  0.74840  1.0000
  H   H209      1.0  0.61601  0.05841  0.65273  1.0000
  H   H210      1.0  0.52712  0.32187  0.65578  1.0000
  H   H211      1.0  0.65414  0.24819  0.66257  1.0000
  H   H212      1.0  0.55779  0.06006  0.59285  1.0000
  C   C173      1.0  0.37494  0.16970  0.49405  1.0000
  N   N11       1.0  0.36833  0.20619  0.51078  1.0000
  C   C174      1.0  0.66089  0.09943  0.53007  1.0000
  C   C175      1.0  0.51133  0.47045  0.73521  1.0000
  H   H213      1.0  0.39160  0.24558  0.54617  1.0000
  S   S48       1.0  0.61801  0.48965  0.79594  1.0000
  C   C176      1.0  0.65916  0.16515  0.52582  1.0000
  H   H214      1.0  0.65941  0.20735  0.74003  1.0000
  C   C177      1.0  0.55804  0.00601  0.68568  1.0000
  H   H215      1.0  0.58333  0.45639  0.70911  1.0000
  C   C178      1.0  0.52478  0.03091  0.51152  1.0000
  H   H216      1.0  0.63461  0.24356  0.72659  1.0000
  C   C179      1.0  0.36504  0.23333  0.47953  1.0000
  C   C180      1.0  0.56447  0.46374  0.72817  1.0000
  H   H217      1.0  0.51677  0.04168  0.48472  1.0000
  C   C181      1.0  0.49039  0.48260  0.96483  1.0000
  C   C182      1.0  0.34025  0.20371  0.53305  1.0000
  C   C183      1.0  0.33888  0.21067  0.57279  1.0000
  H   H218      1.0  0.51302  0.49954  0.74525  1.0000
  H   H219      1.0  0.51510  0.48983  0.66117  1.0000
  H   H220      1.0  0.55553  0.48827  0.65892  1.0000
  C   C184      1.0  0.53594  0.49070  0.67822  1.0000
  C   C185      1.0  0.54526  0.00372  0.58072  1.0000
  S   S49       1.0  0.43144  0.50786  0.16361  1.0000
  H   H221      1.0  0.45231  0.72825  0.25250  1.0000
  Fe  Fe25      1.0  0.40816  0.80288  0.39605  1.0000
  S   S50       1.0  0.41168  0.83435  0.34075  1.0000
  S   S51       1.0  0.45237  0.78546  0.42281  1.0000
  Fe  Fe26      1.0  0.37211  0.86652  0.36159  1.0000
  S   S52       1.0  0.35964  0.92695  0.37010  1.0000
  Fe  Fe27      1.0  0.37858  0.79175  0.31874  1.0000
  S   S53       1.0  0.38170  0.76411  0.26028  1.0000
  S   S54       1.0  0.37061  0.83724  0.41806  1.0000
  S   S55       1.0  0.37674  0.75914  0.37287  1.0000
  Fe  Fe28      1.0  0.39761  0.55076  0.18022  1.0000
  S   S56       1.0  0.37270  0.54724  0.12447  1.0000
  S   S57       1.0  0.41090  0.59639  0.22220  1.0000
  H   H222      1.0  0.49649  0.60602  0.27610  1.0000
  C   C186      1.0  0.47798  0.52930  0.02635  1.0000
  H   H223      1.0  0.51492  0.56231  0.00475  1.0000
  H   H224      1.0  0.50956  0.70340  0.35663  1.0000
  H   H225      1.0  0.49232  0.64893  0.32925  1.0000
  C   C187      1.0  0.37818  0.96814  0.35565  1.0000
  C   C188      1.0  0.50155  0.53763  0.00051  1.0000
  C   C189      1.0  0.39642  0.96984  0.32336  1.0000
  S   S58       1.0  0.33943  0.82739  0.33381  1.0000
  H   H226      1.0  0.40092  0.94499  0.30753  1.0000
  C   C190      1.0  0.38519  0.71608  0.25037  1.0000
  C   C191      1.0  0.38602  0.70406  0.21238  1.0000
  C   C192      1.0  0.39144  0.66680  0.20329  1.0000
  C   C193      1.0  0.39682  0.64115  0.23214  1.0000
  C   C194      1.0  0.39535  0.65306  0.27016  1.0000
  C   C195      1.0  0.38892  0.69002  0.27923  1.0000
  H   H227      1.0  0.38312  0.72388  0.18975  1.0000
  H   H228      1.0  0.39302  0.65837  0.17391  1.0000
  H   H229      1.0  0.39974  0.63365  0.29273  1.0000
  H   H230      1.0  0.38752  0.69859  0.30851  1.0000
  H   H231      1.0  0.47904  0.62343  0.21219  1.0000
  H   H232      1.0  0.45777  0.68480  0.20121  1.0000
  N   N12       1.0  0.46813  0.71801  0.32954  1.0000
  C   C196      1.0  0.45311  0.75292  0.31973  1.0000
  C   C197      1.0  0.44983  0.69918  0.35924  1.0000
  C   C198      1.0  0.49763  0.72785  0.34582  1.0000
  C   C199      1.0  0.47207  0.69316  0.29663  1.0000
  C   C200      1.0  0.46298  0.70254  0.25920  1.0000
  C   C201      1.0  0.48493  0.65795  0.30167  1.0000
  C   C202      1.0  0.46608  0.67776  0.22914  1.0000
  C   C203      1.0  0.48766  0.63329  0.27142  1.0000
  C   C204      1.0  0.47810  0.64312  0.23528  1.0000
  H   H233      1.0  0.43022  0.74769  0.30882  1.0000
  H   H234      1.0  0.45066  0.77103  0.34491  1.0000
  H   H235      1.0  0.46593  0.76927  0.29830  1.0000
  H   H236      1.0  0.42840  0.68875  0.34737  1.0000
  H   H237      1.0  0.44427  0.71804  0.38310  1.0000
  H   H238      1.0  0.46135  0.67542  0.37218  1.0000
  H   H239      1.0  0.51218  0.74161  0.32420  1.0000
  H   H240      1.0  0.49534  0.74711  0.37034  1.0000
  Fe  Fe29      1.0  0.33939  0.79715  0.38921  1.0000
  H   H241      1.0  0.47349  0.54760  0.04984  1.0000
  H   H242      1.0  0.50939  0.76944  0.45502  1.0000
  H   H243      1.0  0.35841  0.99969  0.40081  1.0000
  S   S59       1.0  0.36827  0.50845  0.20816  1.0000
  C   C205      1.0  0.46862  0.79814  0.46700  1.0000
  C   C206      1.0  0.50809  0.51443  0.96948  1.0000
  C   C207      1.0  0.37235  0.00077  0.37568  1.0000
  Fe  Fe30      1.0  0.58840  0.78261  0.67811  1.0000
  S   S60       1.0  0.58449  0.76449  0.61717  1.0000
  S   S61       1.0  0.59076  0.74378  0.72999  1.0000
  Fe  Fe31      1.0  0.59958  0.86540  0.65444  1.0000
  S   S62       1.0  0.59662  0.85120  0.59265  1.0000
  S   S63       1.0  0.61783  0.92370  0.66513  1.0000
  Fe  Fe32      1.0  0.55702  0.81580  0.60882  1.0000
  S   S64       1.0  0.51129  0.82620  0.58270  1.0000
  Fe  Fe33      1.0  0.62444  0.80212  0.60711  1.0000
  S   S65       1.0  0.55869  0.83217  0.67084  1.0000
  S   S66       1.0  0.62954  0.81784  0.66798  1.0000
  Fe  Fe34      1.0  0.58218  0.53223  0.80328  1.0000
  S   S67       1.0  0.59779  0.55013  0.86068  1.0000
  S   S68       1.0  0.56880  0.56987  0.75377  1.0000
  C   C208      1.0  0.58603  0.69497  0.73480  1.0000
  C   C209      1.0  0.59591  0.67760  0.76822  1.0000
  C   C210      1.0  0.59126  0.63941  0.77431  1.0000
  C   C211      1.0  0.57660  0.61794  0.74697  1.0000
  C   C212      1.0  0.56735  0.63515  0.71318  1.0000
  C   C213      1.0  0.57213  0.67331  0.70702  1.0000
  H   H244      1.0  0.60674  0.69397  0.78993  1.0000
  H   H245      1.0  0.59860  0.62676  0.80042  1.0000
  H   H246      1.0  0.55601  0.61896  0.69175  1.0000
  H   H247      1.0  0.56431  0.68611  0.68121  1.0000
  H   H248      1.0  0.48225  0.94680  0.58250  1.0000
  C   C214      1.0  0.59970  0.96700  0.66783  1.0000
  C   C215      1.0  0.57062  0.97067  0.68191  1.0000
  H   H249      1.0  0.64733  0.69149  0.63049  1.0000
  H   H250      1.0  0.55814  0.94643  0.69089  1.0000
  H   H251      1.0  0.48439  0.63633  0.81216  1.0000
  S   S69       1.0  0.53800  0.52723  0.93726  1.0000
  H   H252      1.0  0.55073  0.60135  0.91498  1.0000
  C   C216      1.0  0.65028  0.71218  0.65349  1.0000
  C   C217      1.0  0.49579  0.81519  0.53764  1.0000
  C   C218      1.0  0.46701  0.82768  0.52898  1.0000
  N   N13       1.0  0.52447  0.62451  0.86961  1.0000
  H   H253      1.0  0.53320  0.78463  0.51680  1.0000
  H   H254      1.0  0.47657  0.61837  0.87536  1.0000
  C   C219      1.0  0.52684  0.58993  0.84745  1.0000
  C   C220      1.0  0.52163  0.71511  0.78989  1.0000
  H   H255      1.0  0.64428  0.66445  0.70928  1.0000
  H   H256      1.0  0.49087  0.89993  0.57096  1.0000
  H   H257      1.0  0.56322  0.93302  0.60405  1.0000
  H   H258      1.0  0.51118  0.97588  0.49884  1.0000
  C   C221      1.0  0.53170  0.97853  0.55493  1.0000
  H   H259      1.0  0.65160  0.73227  0.72414  1.0000
  C   C222      1.0  0.52335  0.65640  0.84331  1.0000
  H   H260      1.0  0.62824  0.71400  0.66809  1.0000
  H   H261      1.0  0.49737  0.59912  0.91352  1.0000
  C   C223      1.0  0.53874  0.92794  0.60158  1.0000
  C   C224      1.0  0.54316  0.91629  0.53488  1.0000
  H   H262      1.0  0.55964  0.73735  0.81899  1.0000
  H   H263      1.0  0.56740  0.92333  0.53407  1.0000
  H   H264      1.0  0.57182  0.62668  0.88042  1.0000
  H   H265      1.0  0.52943  0.56550  0.86629  1.0000
  H   H266      1.0  0.52164  0.73698  0.76882  1.0000
  C   C225      1.0  0.55019  0.62604  0.89609  1.0000
  C   C226      1.0  0.54415  0.68638  0.84468  1.0000
  C   C227      1.0  0.52170  0.99330  0.51990  1.0000
  C   C228      1.0  0.51110  0.79447  0.51057  1.0000
  C   C229      1.0  0.49685  0.62259  0.89292  1.0000
  C   C230      1.0  0.50056  0.68663  0.78825  1.0000
  H   H267      1.0  0.54634  0.59122  0.82781  1.0000
  C   C231      1.0  0.49512  0.92919  0.56262  1.0000
  H   H268      1.0  0.50680  0.58406  0.82999  1.0000
  C   C232      1.0  0.50117  0.65783  0.81469  1.0000
  H   H269      1.0  0.53503  0.89799  0.60731  1.0000
  C   C233      1.0  0.54310  0.71522  0.81830  1.0000
  H   H270      1.0  0.56179  0.68796  0.86536  1.0000
  H   H271      1.0  0.43127  0.82882  0.48777  1.0000
  C   C234      1.0  0.61579  0.99900  0.65731  1.0000
  H   H272      1.0  0.48390  0.68669  0.76603  1.0000
  H   H273      1.0  0.49387  0.64836  0.90953  1.0000
  H   H274      1.0  0.45486  0.84352  0.54977  1.0000
  H   H275      1.0  0.54096  0.88624  0.54120  1.0000
  C   C235      1.0  0.45352  0.81934  0.49385  1.0000
  N   N14       1.0  0.52740  0.93879  0.56361  1.0000
  H   H276      1.0  0.54906  0.65029  0.91530  1.0000
  H   H277      1.0  0.48543  0.93229  0.53383  1.0000
  H   H278      1.0  0.52713  0.94286  0.62482  1.0000
  H   H279      1.0  0.53413  0.92005  0.50583  1.0000
  Fe  Fe35      1.0  0.56628  0.50697  0.88577  1.0000
  H   H280      1.0  0.53785  0.51885  0.69083  1.0000
  H   H281      1.0  0.63835  0.99674  0.64682  1.0000
  Fe  Fe36      1.0  0.63199  0.50543  0.85505  1.0000
  H   H282      1.0  0.55375  0.99525  0.60787  1.0000
  H   H283      1.0  0.65475  0.73961  0.64025  1.0000
  C   C236      1.0  0.49751  0.78589  0.47554  1.0000
  H   H284      1.0  0.97913  0.26798  0.41420  1.0000
  H   H285      1.0  0.67134  0.15379  0.45257  1.0000
  H   H286      1.0  0.96054  0.44064  0.03112  1.0000
  H   H287      1.0  0.67639  0.10487  0.45575  1.0000
  C   C237      1.0  0.97114  0.45904  0.01079  1.0000
  C   C238      1.0  0.98514  0.17540  0.46111  1.0000
  H   H288      1.0  0.96778  0.16766  0.44132  1.0000
  H   H289      1.0  0.91579  0.49492  0.06627  1.0000
  H   H290      1.0  0.98828  0.31625  0.41010  1.0000
  C   C239      1.0  0.95721  0.46527  0.97528  1.0000
  H   H291      1.0  0.97473  0.29066  0.36987  1.0000
  C   C240      1.0  0.98940  0.28930  0.39513  1.0000
  H   H292      1.0  0.93624  0.45167  0.96879  1.0000
  Fe  Fe37      1.0  0.91452  0.18367  0.56887  1.0000
  S   S70       1.0  0.92642  0.15866  0.62579  1.0000
  S   S71       1.0  0.93901  0.18468  0.51158  1.0000
  Fe  Fe38      1.0  0.84994  0.19811  0.59431  1.0000
  S   S72       1.0  0.85748  0.17372  0.65162  1.0000
  S   S73       1.0  0.80616  0.22483  0.57901  1.0000
  Fe  Fe39      1.0  0.90045  0.20667  0.65089  1.0000
  S   S74       1.0  0.90712  0.24027  0.70577  1.0000
  Fe  Fe40      1.0  0.88206  0.12830  0.62151  1.0000
  S   S75       1.0  0.86508  0.06882  0.63094  1.0000
  S   S76       1.0  0.89166  0.23307  0.59437  1.0000
  S   S77       1.0  0.87140  0.15133  0.56398  1.0000
  S   S78       1.0  0.68720  0.14163  0.62943  1.0000
  C   C241      1.0  0.70642  0.13592  0.51336  1.0000
  Fe  Fe41      1.0  0.90122  0.45149  0.78477  1.0000
  S   S79       1.0  0.89152  0.43632  0.84557  1.0000
  S   S80       1.0  0.91956  0.41366  0.73812  1.0000
  C   C242      1.0  0.72392  0.11111  0.53495  1.0000
  H   H293      1.0  0.69456  0.45151  0.83901  1.0000
  H   H294      1.0  0.85504  0.40938  0.72638  1.0000
  H   H295      1.0  0.78756  0.28367  0.62391  1.0000
  C   C243      1.0  0.76929  0.46517  0.85536  1.0000
  H   H296      1.0  0.76401  0.19390  0.48591  1.0000
  H   H297      1.0  0.92723  0.04415  0.63775  1.0000
  C   C244      1.0  0.95848  0.29970  0.81494  1.0000
  N   N15       1.0  0.68100  0.25391  0.71308  1.0000
  C   C245      1.0  0.75800  0.21128  0.72588  1.0000
  H   H298      1.0  0.78703  0.34659  0.78375  1.0000
  N   N16       1.0  0.81921  0.30218  0.66599  1.0000
  C   C246      1.0  0.88225  0.02482  0.62896  1.0000
  C   C247      1.0  0.73059  0.22039  0.70986  1.0000
  H   H299      1.0  0.71424  0.08835  0.55070  1.0000
  H   H300      1.0  0.78579  0.30195  0.73161  1.0000
  C   C248      1.0  0.80159  0.35038  0.75933  1.0000
  C   C249      1.0  0.90773  0.28905  0.71264  1.0000
  C   C250      1.0  0.89817  0.30354  0.74769  1.0000
  C   C251      1.0  0.90090  0.34161  0.75572  1.0000
  C   C252      1.0  0.91358  0.36573  0.72887  1.0000
  C   C253      1.0  0.92264  0.35132  0.69359  1.0000
  C   C254      1.0  0.91956  0.31335  0.68539  1.0000
  H   H301      1.0  0.88921  0.28507  0.76915  1.0000
  H   H302      1.0  0.89387  0.35211  0.78300  1.0000
  H   H303      1.0  0.93256  0.36960  0.67261  1.0000
  H   H304      1.0  0.92739  0.30269  0.65851  1.0000
  C   C255      1.0  0.77312  0.20278  0.59486  1.0000
  C   C256      1.0  0.74538  0.21842  0.58672  1.0000
  C   C257      1.0  0.71869  0.20035  0.59757  1.0000
  C   C258      1.0  0.71973  0.16648  0.61653  1.0000
  C   C259      1.0  0.74746  0.15142  0.62548  1.0000
  C   C260      1.0  0.77408  0.16951  0.61477  1.0000
  H   H305      1.0  0.74455  0.24413  0.57118  1.0000
  H   H306      1.0  0.69744  0.21228  0.59067  1.0000
  H   H307      1.0  0.74842  0.12526  0.64022  1.0000
  H   H308      1.0  0.79531  0.15708  0.62096  1.0000
  C   C261      1.0  0.97740  0.18410  0.49881  1.0000
  H   H309      1.0  0.80868  0.25494  0.70160  1.0000
  S   S81       1.0  0.85828  0.48143  0.77654  1.0000
  H   H310      1.0  0.77155  0.29219  0.66928  1.0000
  S   S82       1.0  0.95335  0.49937  0.90337  1.0000
  C   C262      1.0  0.80121  0.32498  0.72947  1.0000
  C   C263      1.0  0.67747  0.29454  0.71179  1.0000
  S   S83       1.0  0.80374  0.44250  0.84842  1.0000
  C   C264      1.0  0.83985  0.36050  0.69719  1.0000
  C   C265      1.0  0.75484  0.11592  0.53793  1.0000
  H   H311      1.0  0.82547  0.24397  0.65729  1.0000
  H   H312      1.0  0.82136  0.40026  0.78142  1.0000
  C   C266      1.0  0.91292  0.02019  0.63398  1.0000
  H   H313      1.0  0.77261  0.19231  0.71118  1.0000
  C   C267      1.0  0.83975  0.38593  0.72699  1.0000
  H   H314      1.0  0.67604  0.20914  0.67313  1.0000
  H   H315      1.0  0.70543  0.27634  0.78080  1.0000
  H   H316      1.0  0.83961  0.28905  0.61195  1.0000
  H   H317      1.0  0.86443  0.30918  0.64568  1.0000
  Fe  Fe42      1.0  0.84945  0.46946  0.83808  1.0000
  C   C268      1.0  0.97283  0.42951  0.81689  1.0000
  C   C269      1.0  0.96403  0.33225  0.83516  1.0000
  H   H318      1.0  0.85577  0.36580  0.67465  1.0000
  C   C270      1.0  0.82086  0.38078  0.75808  1.0000
  H   H319      1.0  0.96214  0.27183  0.76121  1.0000
  C   C271      1.0  0.82541  0.26471  0.68057  1.0000
  C   C272      1.0  0.82045  0.32916  0.69750  1.0000
  H   H320      1.0  0.67020  0.07332  0.51895  1.0000
  H   H321      1.0  0.84762  0.26388  0.69451  1.0000
  H   H322      1.0  0.79303  0.14986  0.52366  1.0000
  C   C273      1.0  0.98724  0.35898  0.77906  1.0000
  C   C274      1.0  0.72184  0.16571  0.49540  1.0000
  C   C275      1.0  0.84108  0.31001  0.63505  1.0000
  H   H323      1.0  0.83720  0.33719  0.62146  1.0000
  C   C276      1.0  0.78897  0.30215  0.64906  1.0000
  H   H324      1.0  0.78292  0.33029  0.63944  1.0000
  H   H325      1.0  0.76774  0.09730  0.55530  1.0000
  C   C277      1.0  0.71488  0.46521  0.84810  1.0000
  C   C278      1.0  0.75273  0.17042  0.49893  1.0000
  C   C279      1.0  0.74261  0.44764  0.84393  1.0000
  H   H326      1.0  0.74340  0.42042  0.83155  1.0000
  H   H327      1.0  0.94688  0.27673  0.82844  1.0000
  C   C280      1.0  0.71978  0.25865  0.76438  1.0000
  H   H328      1.0  0.69624  0.30804  0.69608  1.0000
  C   C281      1.0  0.97015  0.48949  0.94866  1.0000
  C   C282      1.0  0.67614  0.23981  0.67398  1.0000
  C   C283      1.0  0.76637  0.22579  0.76091  1.0000
  H   H329      1.0  0.95639  0.33268  0.86425  1.0000
  H   H330      1.0  0.72541  0.20753  0.68305  1.0000
  H   H331      1.0  0.98195  0.37744  0.89583  1.0000
  H   H332      1.0  0.75372  0.26035  0.80762  1.0000
  H   H333      1.0  0.78751  0.21827  0.77340  1.0000
  H   H334      1.0  0.94761  0.39571  0.87673  1.0000
  H   H335      1.0  0.99444  0.20076  0.55322  1.0000
  C   C284      1.0  0.71059  0.24452  0.72865  1.0000
  C   C285      1.0  0.74733  0.24949  0.78009  1.0000
  H   H336      1.0  0.94887  0.42464  0.81053  1.0000
  C   C286      1.0  0.98144  0.32639  0.75913  1.0000
  H   H337      1.0  0.69340  0.25058  0.65390  1.0000
  C   C287      1.0  0.76919  0.14554  0.52010  1.0000
  C   C288      1.0  0.96719  0.29677  0.77706  1.0000
  C   C289      1.0  0.97860  0.36304  0.81769  1.0000
  C   C290      1.0  0.97234  0.39896  0.87718  1.0000
  H   H338      1.0  0.97710  0.42580  0.89145  1.0000
  H   H339      1.0  0.97481  0.45579  0.83311  1.0000
  C   C291      1.0  0.66522  0.12876  0.46924  1.0000
  N   N17       1.0  0.98515  0.39788  0.83816  1.0000
  Fe  Fe43      1.0  0.91398  0.49049  0.86120  1.0000
  H   H340      1.0  0.71006  0.18601  0.47903  1.0000
  H   H341      1.0  0.67605  0.30707  0.74050  1.0000
  H   H342      1.0  0.98418  0.43449  0.78922  1.0000
  H   H343      1.0  0.98735  0.32433  0.72931  1.0000
  N   N18       1.0  0.67358  0.13208  0.50983  1.0000
  C   C292      1.0  0.71353  0.50037  0.86422  1.0000
  C   C293      1.0  0.76788  0.50008  0.87193  1.0000
  H   H344      1.0  0.99811  0.38123  0.76369  1.0000
  H   H345      1.0  0.78339  0.00531  0.66641  1.0000
  H   H346      1.0  0.66512  0.10104  0.56121  1.0000
  H   H347      1.0  0.66537  0.19083  0.51035  1.0000
  H   H348      1.0  0.66555  0.16894  0.55603  1.0000
  H   H349      1.0  0.98835  0.63411  0.07223  1.0000
  H   H350      1.0  0.94158  0.80715  0.42896  1.0000
  H   H351      1.0  0.98712  0.66596  0.32411  1.0000
  H   H352      1.0  0.96745  0.61913  0.11317  1.0000
  C   C294      1.0  0.94101  0.56277  0.00764  1.0000
  C   C295      1.0  0.95788  0.79741  0.44905  1.0000
  C   C296      1.0  0.98925  0.61664  0.09815  1.0000
  C   C297      1.0  0.96412  0.57708  0.02996  1.0000
  H   H353      1.0  0.96988  0.64435  0.36548  1.0000
  C   C298      1.0  0.97908  0.92492  0.45078  1.0000
  H   H354      1.0  0.99431  0.74030  0.35647  1.0000
  N   N19       1.0  0.99548  0.57758  0.08913  1.0000
  C   C299      1.0  0.97072  0.56197  0.06618  1.0000
  C   C300      1.0  0.97913  0.67064  0.35373  1.0000
  H   H355      1.0  0.97100  0.71163  0.41473  1.0000
  C   C301      1.0  0.99051  0.69298  0.41615  1.0000
  C   C302      1.0  0.92342  0.53357  0.02096  1.0000
  H   H356      1.0  0.99425  0.79989  0.40855  1.0000
  H   H357      1.0  0.96011  0.68998  0.35172  1.0000
  H   H358      1.0  0.98023  0.55945  0.14454  1.0000
  C   C303      1.0  0.95236  0.53206  0.07886  1.0000
  H   H359      1.0  0.98312  0.66691  0.43024  1.0000
  C   C304      1.0  0.98776  0.79318  0.43736  1.0000
  H   H360      1.0  0.93709  0.57376  0.97944  1.0000
  H   H361      1.0  0.97707  0.59973  0.01826  1.0000
  H   H362      1.0  0.96375  0.94573  0.44155  1.0000
  H   H363      1.0  0.90598  0.52202  0.00316  1.0000
  C   C305      1.0  0.92899  0.51837  0.05652  1.0000
  H   H364      1.0  0.95608  0.51797  0.10540  1.0000
  C   C306      1.0  0.98964  0.78770  0.66005  1.0000
  Fe  Fe44      1.0  0.89456  0.79705  0.56088  1.0000
  S   S84       1.0  0.92848  0.80698  0.60588  1.0000
  S   S85       1.0  0.91077  0.79379  0.49947  1.0000
  Fe  Fe45      1.0  0.84290  0.80407  0.61791  1.0000
  S   S86       1.0  0.87483  0.81544  0.66611  1.0000
  S   S87       1.0  0.79563  0.80386  0.64190  1.0000
  Fe  Fe46      1.0  0.89886  0.85305  0.62483  1.0000
  S   S88       1.0  0.92266  0.90833  0.63534  1.0000
  Fe  Fe47      1.0  0.90071  0.76812  0.64227  1.0000
  S   S89       1.0  0.92418  0.72377  0.67737  1.0000
  S   S90       1.0  0.86561  0.84476  0.57833  1.0000
  S   S91       1.0  0.86818  0.75515  0.59567  1.0000
  Fe  Fe48      1.0  0.88191  0.53305  0.79638  1.0000
  S   S92       1.0  0.87079  0.52258  0.85833  1.0000
  S   S93       1.0  0.86583  0.58611  0.76716  1.0000
  H   H365      1.0  0.96368  0.76995  0.54100  1.0000
  C   C307      1.0  0.97028  0.77684  0.51224  1.0000
  H   H366      1.0  0.71587  0.54371  0.78966  1.0000
  C   C308      1.0  0.69048  0.94659  0.62473  1.0000
  C   C309      1.0  0.90755  0.68516  0.70141  1.0000
  C   C310      1.0  0.87662  0.68093  0.70529  1.0000
  C   C311      1.0  0.86443  0.65053  0.72546  1.0000
  C   C312      1.0  0.88286  0.62366  0.74176  1.0000
  C   C313      1.0  0.91380  0.62777  0.73770  1.0000
  C   C314      1.0  0.92602  0.65841  0.71782  1.0000
  H   H367      1.0  0.86210  0.70127  0.69303  1.0000
  H   H368      1.0  0.84052  0.64799  0.72851  1.0000
  H   H369      1.0  0.92834  0.60750  0.75005  1.0000
  H   H370      1.0  0.94997  0.66132  0.71508  1.0000
  C   C315      1.0  0.70178  0.79321  0.59085  1.0000
  C   C316      1.0  0.70611  0.79704  0.62988  1.0000
  C   C317      1.0  0.73505  0.79944  0.64477  1.0000
  C   C318      1.0  0.76012  0.79892  0.62078  1.0000
  C   C319      1.0  0.75600  0.79550  0.58157  1.0000
  C   C320      1.0  0.72686  0.79235  0.56670  1.0000
  H   H371      1.0  0.68722  0.79765  0.64873  1.0000
  H   H372      1.0  0.73808  0.80195  0.67513  1.0000
  H   H373      1.0  0.77516  0.79514  0.56279  1.0000
  H   H374      1.0  0.72376  0.78932  0.53640  1.0000
  C   C321      1.0  0.87604  0.95750  0.62547  1.0000
  C   C322      1.0  0.90654  0.95285  0.63169  1.0000
  H   H375      1.0  0.72449  0.91008  0.57422  1.0000
  H   H376      1.0  0.86160  0.93360  0.62215  1.0000
  H   H377      1.0  0.68582  0.96289  0.65083  1.0000
  H   H378      1.0  0.78813  0.51342  0.88179  1.0000
  C   C323      1.0  0.86401  0.99324  0.62438  1.0000
  H   H379      1.0  0.75744  0.51191  0.79609  1.0000
  H   H380      1.0  0.98112  0.76355  0.67471  1.0000
  C   C324      1.0  0.94893  0.78927  0.48652  1.0000
  C   C325      1.0  0.92492  0.98440  0.63558  1.0000
  C   C326      1.0  0.74895  0.96593  0.65086  1.0000
  N   N20       1.0  0.97452  0.83138  0.71333  1.0000
  C   C327      1.0  0.93300  0.94614  0.50245  1.0000
  H   H381      1.0  0.68470  0.65246  0.80685  1.0000
  H   H382      1.0  0.77643  0.63791  0.77758  1.0000
  H   H383      1.0  0.81554  0.54568  0.80362  1.0000
  H   H384      1.0  0.93858  0.86315  0.73754  1.0000
  C   C328      1.0  0.75881  0.69690  0.66868  1.0000
  H   H385      1.0  0.95175  0.80464  0.76052  1.0000
  H   H386      1.0  0.73935  0.54468  0.88893  1.0000
  H   H387      1.0  0.80898  0.89194  0.66890  1.0000
  C   C329      1.0  0.73106  0.64897  0.79092  1.0000
  H   H388      1.0  0.94855  0.98126  0.64040  1.0000
  C   C330      1.0  0.75459  0.62554  0.78197  1.0000
  C   C331      1.0  0.70276  0.63444  0.79883  1.0000
  H   H389      1.0  0.77636  0.57316  0.71316  1.0000
  H   H390      1.0  0.81059  0.55445  0.73120  1.0000
  N   N21       1.0  0.95369  0.91710  0.51544  1.0000
  N   N22       1.0  0.71107  0.91583  0.63268  1.0000
  H   H391      1.0  0.75172  0.51833  0.74590  1.0000
  C   C332      1.0  0.70435  0.70111  0.66220  1.0000
  H   H392      1.0  0.97845  0.77656  0.73704  1.0000
  N   N23       1.0  0.77612  0.56241  0.77337  1.0000
  C   C333      1.0  0.69702  0.89257  0.66267  1.0000
  H   H393      1.0  0.91592  0.95251  0.52457  1.0000
  C   C334      1.0  0.67425  0.72921  0.71161  1.0000
  H   H394      1.0  0.66834  0.93626  0.61472  1.0000
  C   C335      1.0  0.69788  0.59648  0.79769  1.0000
  S   S94       1.0  0.92594  0.50421  0.79994  1.0000
  H   H395      1.0  0.69079  0.70962  0.60281  1.0000
  H   H396      1.0  0.95181  0.94134  0.57134  1.0000
  H   H397      1.0  0.91769  0.89028  0.54624  1.0000
  C   C336      1.0  0.76766  0.52286  0.76958  1.0000
  C   C337      1.0  0.79719  0.56598  0.80552  1.0000
  C   C338      1.0  0.74110  0.92818  0.64520  1.0000
  C   C339      1.0  0.74018  0.51762  0.87614  1.0000
  H   H398      1.0  0.69134  0.88405  0.58706  1.0000
  N   N24       1.0  0.67441  0.70194  0.68019  1.0000
  H   H399      1.0  0.93331  0.84932  0.68915  1.0000
  H   H400      1.0  0.92420  0.87259  0.49919  1.0000
  H   H401      1.0  0.98055  0.90869  0.56554  1.0000
  C   C340      1.0  0.79219  0.91269  0.66401  1.0000
  H   H402      1.0  0.72851  0.69139  0.71494  1.0000
  C   C341      1.0  0.70890  0.70533  0.62240  1.0000
  C   C342      1.0  0.95033  0.85868  0.71006  1.0000
  H   H403      1.0  0.67438  0.88266  0.65419  1.0000
  C   C343      1.0  0.76361  0.90197  0.65243  1.0000
  H   H404      1.0  0.72692  0.86858  0.60132  1.0000
  C   C344      1.0  0.72121  0.57282  0.78866  1.0000
  H   H405      1.0  0.69436  0.90826  0.68961  1.0000
  C   C345      1.0  0.79182  0.57332  0.73776  1.0000
  C   C346      1.0  0.79919  0.94984  0.66915  1.0000
  C   C347      1.0  0.73761  0.70590  0.60666  1.0000
  S   S95       1.0  0.67950  0.52453  0.86901  1.0000
  H   H406      1.0  0.82138  0.95809  0.67824  1.0000
  C   C348      1.0  0.75039  0.58669  0.78044  1.0000
  H   H407      1.0  0.94861  0.86136  0.53734  1.0000
  C   C349      1.0  0.76251  0.70230  0.62978  1.0000
  H   H408      1.0  0.80813  0.59366  0.80659  1.0000
  H   H409      1.0  0.69946  0.96523  0.60220  1.0000
  H   H410      1.0  0.68293  0.65636  0.71807  1.0000
  H   H411      1.0  0.80243  0.60106  0.73961  1.0000
  C   C350      1.0  0.97677  0.90752  0.48698  1.0000
  H   H412      1.0  0.99780  0.86569  0.52217  1.0000
  H   H413      1.0  0.84032  0.99654  0.62014  1.0000
  H   H414      1.0  0.68881  0.72138  0.73558  1.0000
  C   C351      1.0  0.73019  0.69579  0.68469  1.0000
  H   H415      1.0  0.75937  0.87280  0.64918  1.0000
  H   H416      1.0  0.77834  0.69435  0.68649  1.0000
  C   C352      1.0  0.96834  0.93072  0.55051  1.0000
  H   H417      1.0  0.78563  0.56168  0.83316  1.0000
  H   H418      1.0  0.71023  0.86773  0.66911  1.0000
  C   C353      1.0  0.93534  0.88399  0.52493  1.0000
  H   H419      1.0  0.67613  0.58500  0.80524  1.0000
  H   H420      1.0  0.74063  0.71061  0.57644  1.0000
  H   H421      1.0  0.95849  0.88626  0.70057  1.0000
  H   H422      1.0  0.73505  0.67844  0.79294  1.0000
  C   C354      1.0  0.71358  0.89379  0.59735  1.0000
  H   H423      1.0  0.78475  0.70435  0.61759  1.0000
  C   C355      1.0  0.77767  0.97639  0.66253  1.0000
  H   H424      1.0  0.94510  0.97252  0.49632  1.0000
  H   H425      1.0  0.68163  0.75692  0.70141  1.0000
  C   C356      1.0  0.66690  0.66503  0.69592  1.0000
  H   H426      1.0  0.98943  0.85196  0.76756  1.0000
  H   H427      1.0  0.66701  0.64372  0.67321  1.0000
  H   H428      1.0  0.92047  0.93728  0.47674  1.0000
  C   C357      1.0  0.98747  0.82385  0.67533  1.0000
  C   C358      1.0  0.96151  0.79818  0.73221  1.0000
  H   H429      1.0  0.73336  0.98793  0.64655  1.0000
  H   H430      1.0  0.78745  0.50532  0.76414  1.0000
  H   H431      1.0  0.94302  0.78613  0.71509  1.0000
  C   C359      1.0  0.99810  0.84660  0.73842  1.0000
  H   H432      1.0  0.98434  0.95367  0.54409  1.0000
  C   C360      1.0  0.99758  0.50663  0.95809  1.0000
  S   S96       1.0  0.66544  0.78828  0.57183  1.0000
