data_image0
_chemical_formula_structural       FeCHFeSCH2FeS3FeC3HCSCNSH7SHCHCNCHC2NHCHC2H3CHCHCSH3CHCNCHFeHSCH3SCFeCH2C2H3C2H2C2H2C2H2CH2CHC2HCHCHC2H2FeHC2HFeH3CH3C4HCHC2SHSCHSC2H4CSH2CH3CH2NCHSFeS2FeS2FeCFeSHSFeS2FeSCFeSFeCSH2CHCH3CNC2HCHC6H4SCH3C2H3SH2C3H5CH5SH2NC9H11CHCNC8H4CH2CH2CH3C2NSC4H6C3H2SHC4HFeSHFeSCFeSFeSFeS2FeHCFeSFeHS2C2HNHC3HC6H4CHC3SC4HCHCHSH3NCH8CH5CS2H5CHCNC6HC2H12CHCHC4HC4H2SCHCHSCHCHC2H3CHCHFeCSHCFeS2HSHFe2H2CHFeHSCSCHSHCH2C2H2CH2C4HCSH2CH2C2NC2HC5H6C2HSHCH2C2H6CH3SH4CHCFeC2H2NHCHC3H3C2HC2HCNC2HSHC3H2CHCSFeH2C2H5CHCHFeHCHC2HFeHC2HFeCSHCNFeHFeHSFe2SH2CFeSCH2CFeHFeS2H2NCHCH2CHCH2SCHCHSH3C2HCH2SCHSHSHSCHSCH3C2HC2HCFeCNC9H11C3NC9H7C2SHSH3C2SHC2H3CHSC3SC2H3CFeH2C2HC2H2C2HFeH2FeS2FeSFeHS2FeS2FeCFeHFeCS2HC3HCH2CH4C2H3NC6H4CH3C2HSCHSC3H2CHCH3SCHCHC2HCH3CHNC8H8CHCH2C3H5CS2HC2H2CH3CNC4H3SH2CHCHNFeSHFeSHFeHFeS2FeSHFeS2FeSFeNS2H2CHCH4CH4CH2C9H8CSHNH2CHC2HCHCHC2SHCH2C2HCHC2H2C2HC2H2C2H8SC3H2CNC9H7CH4CHC5H2SC2HCHC4HSH2C2HSCSHSHCFeSC3SHC3H4Fe2CSCFeSHFeHFeHFeS2FeCSFeS2CHCHC3H4SH3C2H4SH2C2H2SH3C2SCH2CH4CH2C2NH2CH4CHNC9H7SCHSHCHC4HC2NC5SCH2C2H2C2H2C5HNHCH2CH3SCHCNH5C2SH2CH3CHC2SC2HSFeCSCFeS2C2S2HFeH2SFeH3CH6CHC2HCH2FeH2C2H6SCNS2HCHCHC2HCH2CH3CH2CSNC2H3CH3CH4SHCH3C2HNC9HC4HCH5C5HSH5CH4SH3CSCHC2H4FeCSFeS2FeCFeHS2FeSHFeS2FeHFeS2NHSC7H5C2H3C2SH2C2H6C2NC9H12CH3CH3C2HC2HCHC4HCH2CHCSCH5SC2HCNHCH3SC3HCH2CHCH2CNSH3CHCHCH3CHFeS2FeSCFeSFeS2CFeSCFeS2FeSFeHSC7H4C2H2CHCH4NHCSHC2SC3H4NHNC6HC2H14C3H2C2HCHCH2C2H3SC2H2SHCHCH3CHCHNC9H12CH5CHCSNC3H4C2H2C2HC3HCHC3HC3HFeS2FeCSHNSC2HFeHFeS2C2SCHCSC2H2C2FeC2HC3HCH2C2H2C2H4CHC2H3CHNHCHCHCHNH8CH4CSHC3NCHC2HCH3CH4CHCSCSCFeC5HCH3SCNH5SC2H2SH2CHCH3FeSCSHCH2C2H2C4H4SC
_chemical_formula_sum              "Fe96 C720 H864 S192 N48"
_cell_length_a       70.6607
_cell_length_b       37.4327
_cell_length_c       40.3779
_cell_angle_alpha    89.5584
_cell_angle_beta     88.6084
_cell_angle_gamma    90.7029

_space_group_name_H-M_alt    "P 1"
_space_group_IT_number       1

loop_
  _space_group_symop_operation_xyz
  'x, y, z'

loop_
  _atom_site_type_symbol
  _atom_site_label
  _atom_site_symmetry_multiplicity
  _atom_site_fract_x
  _atom_site_fract_y
  _atom_site_fract_z
  _atom_site_occupancy
  Fe  Fe1       1.0  0.30564  0.02883  0.32011  1.0000
  C   C1        1.0  0.24689  0.01732  0.29908  1.0000
  H   H1        1.0  0.06728  0.04564  0.06662  1.0000
  Fe  Fe2       1.0  0.30551  0.43216  0.30295  1.0000
  S   S1        1.0  0.27591  0.43890  0.28136  1.0000
  C   C2        1.0  0.03076  0.34947  0.07808  1.0000
  H   H2        1.0  0.10841  0.39787  0.28480  1.0000
  H   H3        1.0  0.07025  0.99810  0.12991  1.0000
  Fe  Fe3       1.0  0.01498  0.04228  0.15711  1.0000
  S   S2        1.0  0.04550  0.03300  0.17491  1.0000
  S   S3        1.0  0.31008  0.07673  0.35257  1.0000
  S   S4        1.0  0.01425  0.07987  0.11286  1.0000
  Fe  Fe4       1.0  0.00882  0.45698  0.17506  1.0000
  C   C3        1.0  0.24325  0.44455  0.43225  1.0000
  C   C4        1.0  0.99711  0.00418  0.99740  1.0000
  C   C5        1.0  0.03799  0.42841  0.27897  1.0000
  H   H4        1.0  0.02724  0.34419  0.10477  1.0000
  C   C6        1.0  0.99326  0.27975  0.15178  1.0000
  S   S5        1.0  0.01633  0.41944  0.13377  1.0000
  C   C7        1.0  0.18376  0.43088  0.41602  1.0000
  N   N1        1.0  0.01535  0.33682  0.05649  1.0000
  S   S6        1.0  0.30815  0.41214  0.35532  1.0000
  H   H5        1.0  0.15528  0.98837  0.41071  1.0000
  H   H6        1.0  0.00010  0.38523  0.06678  1.0000
  H   H7        1.0  0.19102  0.41922  0.35123  1.0000
  H   H8        1.0  0.08669  0.42183  0.36671  1.0000
  H   H9        1.0  0.98941  0.29717  0.02228  1.0000
  H   H10       1.0  0.31466  0.22981  0.26646  1.0000
  H   H11       1.0  0.03240  0.28470  0.09678  1.0000
  S   S7        1.0  0.98980  0.06887  0.18239  1.0000
  H   H12       1.0  0.06357  0.46305  0.17802  1.0000
  C   C8        1.0  0.99786  0.35571  0.06668  1.0000
  H   H13       1.0  0.14117  0.07029  0.39342  1.0000
  C   C9        1.0  0.11790  0.03255  0.39653  1.0000
  N   N2        1.0  0.28433  0.00697  0.43301  1.0000
  C   C10       1.0  0.07176  0.42092  0.27059  1.0000
  H   H14       1.0  0.10973  0.44345  0.26951  1.0000
  C   C11       1.0  0.22397  0.45082  0.42803  1.0000
  C   C12       1.0  0.05331  0.41846  0.25895  1.0000
  N   N3        1.0  0.19511  0.45410  0.39285  1.0000
  H   H15       1.0  0.25604  0.42413  0.35314  1.0000
  C   C13       1.0  0.02190  0.27485  0.08003  1.0000
  H   H16       1.0  0.12760  0.42835  0.44940  1.0000
  C   C14       1.0  0.99671  0.47417  0.00762  1.0000
  C   C15       1.0  0.13877  0.48101  0.43793  1.0000
  H   H17       1.0  0.09146  0.00837  0.44502  1.0000
  H   H18       1.0  0.06799  0.02343  0.40019  1.0000
  H   H19       1.0  0.31299  0.99636  0.41651  1.0000
  C   C16       1.0  0.18834  0.44724  0.35890  1.0000
  H   H20       1.0  0.04445  0.33659  0.07164  1.0000
  C   C17       1.0  0.06727  0.47947  0.19887  1.0000
  H   H21       1.0  0.12419  0.42976  0.30262  1.0000
  C   C18       1.0  0.99990  0.21545  0.15731  1.0000
  S   S8        1.0  0.00393  0.46348  0.04899  1.0000
  H   H22       1.0  0.00906  0.34224  0.00442  1.0000
  H   H23       1.0  0.25411  0.01691  0.43319  1.0000
  H   H24       1.0  0.18593  0.43761  0.44243  1.0000
  C   C19       1.0  0.09641  0.41366  0.34618  1.0000
  H   H25       1.0  0.03336  0.33307  0.01297  1.0000
  C   C20       1.0  0.99388  0.24477  0.04093  1.0000
  N   N4        1.0  0.09467  0.43660  0.31631  1.0000
  C   C21       1.0  0.02059  0.34758  0.02198  1.0000
  H   H26       1.0  0.05087  0.41032  0.23365  1.0000
  Fe  Fe5       1.0  0.99206  0.38434  0.15268  1.0000
  H   H27       1.0  0.12035  0.02846  0.42257  1.0000
  S   S9        1.0  0.02812  0.48690  0.21143  1.0000
  C   C22       1.0  0.24700  0.43141  0.37414  1.0000
  H   H28       1.0  0.19520  0.46579  0.34038  1.0000
  H   H29       1.0  0.02900  0.44842  0.32632  1.0000
  H   H30       1.0  0.09746  0.47382  0.19077  1.0000
  S   S10       1.0  0.99727  0.00014  0.13203  1.0000
  C   C23       1.0  0.12820  0.06354  0.34623  1.0000
  Fe  Fe6       1.0  0.98814  0.10369  0.13633  1.0000
  C   C24       1.0  0.07858  0.01229  0.20492  1.0000
  H   H31       1.0  0.13788  0.08192  0.33342  1.0000
  H   H32       1.0  0.00058  0.19486  0.06458  1.0000
  C   C25       1.0  0.07534  0.43312  0.30316  1.0000
  C   C26       1.0  0.26530  0.00320  0.41851  1.0000
  H   H33       1.0  0.08555  0.02907  0.18631  1.0000
  H   H34       1.0  0.02383  0.42782  0.26916  1.0000
  H   H35       1.0  0.08293  0.41408  0.25316  1.0000
  C   C27       1.0  0.07087  0.99603  0.39095  1.0000
  C   C28       1.0  0.25674  0.46742  0.29265  1.0000
  H   H36       1.0  0.02374  0.37684  0.01999  1.0000
  H   H37       1.0  0.30310  0.04942  0.44759  1.0000
  C   C29       1.0  0.01190  0.29771  0.05845  1.0000
  C   C30       1.0  0.28873  0.04549  0.43725  1.0000
  H   H38       1.0  0.99308  0.34722  0.09208  1.0000
  H   H39       1.0  0.18734  0.40224  0.41259  1.0000
  C   C31       1.0  0.25516  0.99099  0.31859  1.0000
  C   C32       1.0  0.04098  0.44027  0.31103  1.0000
  H   H40       1.0  0.22140  0.03483  0.27561  1.0000
  H   H41       1.0  0.00893  0.19444  0.16607  1.0000
  C   C33       1.0  0.08966  0.99404  0.22830  1.0000
  H   H42       1.0  0.27841  0.05882  0.45406  1.0000
  H   H43       1.0  0.11292  0.05049  0.30241  1.0000
  C   C34       1.0  0.11414  0.04593  0.32884  1.0000
  H   H44       1.0  0.24933  0.44721  0.45650  1.0000
  C   C35       1.0  0.15626  0.01369  0.45867  1.0000
  C   C36       1.0  0.21557  0.44733  0.39659  1.0000
  H   H45       1.0  0.16200  0.03860  0.44879  1.0000
  C   C37       1.0  0.00472  0.25171  0.16291  1.0000
  H   H46       1.0  0.03317  0.37888  0.07568  1.0000
  C   C38       1.0  0.05935  0.44246  0.32311  1.0000
  H   H47       1.0  0.20992  0.47926  0.27469  1.0000
  C   C39       1.0  0.05863  0.00926  0.20552  1.0000
  C   C40       1.0  0.99779  0.28147  0.03888  1.0000
  H   H48       1.0  0.23723  0.44026  0.26092  1.0000
  H   H49       1.0  0.06096  0.45218  0.34801  1.0000
  Fe  Fe7       1.0  0.99470  0.44756  0.10278  1.0000
  H   H50       1.0  0.09321  0.38521  0.34046  1.0000
  C   C41       1.0  0.22750  0.01476  0.29141  1.0000
  C   C42       1.0  0.13494  0.45150  0.45890  1.0000
  H   H51       1.0  0.10492  0.99688  0.22739  1.0000
  Fe  Fe8       1.0  0.99554  0.03861  0.08886  1.0000
  H   H52       1.0  0.06692  0.99521  0.36446  1.0000
  H   H53       1.0  0.21566  0.45856  0.44957  1.0000
  H   H54       1.0  0.26495  0.01504  0.39307  1.0000
  C   C43       1.0  0.01802  0.23813  0.08155  1.0000
  H   H55       1.0  0.28855  0.06026  0.41324  1.0000
  H   H56       1.0  0.01749  0.25809  0.17600  1.0000
  H   H57       1.0  0.25553  0.03912  0.28912  1.0000
  C   C44       1.0  0.23894  0.46176  0.27840  1.0000
  C   C45       1.0  0.08654  0.48562  0.20624  1.0000
  C   C46       1.0  0.10355  0.01375  0.37941  1.0000
  C   C47       1.0  0.13004  0.05693  0.38000  1.0000
  H   H58       1.0  0.11095  0.41527  0.35629  1.0000
  C   C48       1.0  0.10984  0.42632  0.29220  1.0000
  H   H59       1.0  0.02550  0.22128  0.09873  1.0000
  C   C49       1.0  0.00396  0.22316  0.06229  1.0000
  C   C50       1.0  0.10199  0.02141  0.34509  1.0000
  S   S11       1.0  0.00388  0.02817  0.03386  1.0000
  H   H60       1.0  0.09171  0.00767  0.33022  1.0000
  S   S12       1.0  0.00050  0.32510  0.15915  1.0000
  C   C51       1.0  0.22338  0.48381  0.28626  1.0000
  H   H61       1.0  0.26971  0.43015  0.40847  1.0000
  S   S13       1.0  0.13162  0.47952  0.39625  1.0000
  C   C52       1.0  0.25474  0.43487  0.40533  1.0000
  C   C53       1.0  0.09834  0.47419  0.32572  1.0000
  H   H62       1.0  0.04246  0.03603  0.06317  1.0000
  H   H63       1.0  0.05217  0.04248  0.10301  1.0000
  H   H64       1.0  0.11297  0.47803  0.33457  1.0000
  H   H65       1.0  0.22288  0.43500  0.34460  1.0000
  C   C54       1.0  0.22775  0.43765  0.36961  1.0000
  S   S14       1.0  0.27991  0.99041  0.32651  1.0000
  H   H66       1.0  0.17281  0.45146  0.35724  1.0000
  H   H67       1.0  0.16827  0.43365  0.41223  1.0000
  C   C55       1.0  0.29822  0.99274  0.40844  1.0000
  H   H68       1.0  0.03696  0.99072  0.02601  1.0000
  H   H69       1.0  0.31828  0.29079  0.28950  1.0000
  H   H70       1.0  0.08878  0.48345  0.34602  1.0000
  C   C56       1.0  0.05513  0.03063  0.07820  1.0000
  H   H71       1.0  0.29766  0.00727  0.38442  1.0000
  H   H72       1.0  0.08754  0.00256  0.09737  1.0000
  N   N5        1.0  0.05919  0.99192  0.08078  1.0000
  C   C57       1.0  0.28475  0.98878  0.46570  1.0000
  H   H73       1.0  0.24873  0.98953  0.22314  1.0000
  S   S15       1.0  0.98877  0.48773  0.14309  1.0000
  Fe  Fe9       1.0  0.17700  0.02309  0.63682  1.0000
  S   S16       1.0  0.18183  0.06788  0.60035  1.0000
  S   S17       1.0  0.15655  0.48428  0.54661  1.0000
  Fe  Fe10      1.0  0.13354  0.03562  0.64096  1.0000
  S   S18       1.0  0.13611  0.08136  0.60395  1.0000
  S   S19       1.0  0.10235  0.02541  0.65781  1.0000
  Fe  Fe11      1.0  0.15607  0.04603  0.57524  1.0000
  C   C58       1.0  0.29057  0.47370  0.51778  1.0000
  Fe  Fe12      1.0  0.16147  0.09982  0.63173  1.0000
  S   S20       1.0  0.16956  0.15623  0.64936  1.0000
  H   H74       1.0  0.29680  0.44657  0.51726  1.0000
  S   S21       1.0  0.15809  0.05615  0.67049  1.0000
  Fe  Fe13      1.0  0.18146  0.42251  0.64363  1.0000
  S   S22       1.0  0.17414  0.39666  0.59540  1.0000
  S   S23       1.0  0.21250  0.42290  0.65915  1.0000
  Fe  Fe14      1.0  0.13919  0.43985  0.66107  1.0000
  S   S24       1.0  0.12948  0.41563  0.61341  1.0000
  C   C59       1.0  0.26778  0.42140  0.55935  1.0000
  Fe  Fe15      1.0  0.14983  0.37052  0.62427  1.0000
  S   S25       1.0  0.13933  0.31313  0.61446  1.0000
  Fe  Fe16      1.0  0.15463  0.44298  0.58835  1.0000
  C   C60       1.0  0.24720  0.47238  0.56516  1.0000
  S   S26       1.0  0.15828  0.39357  0.67341  1.0000
  H   H75       1.0  0.18648  0.47187  0.69168  1.0000
  H   H76       1.0  0.22503  0.43376  0.73978  1.0000
  C   C61       1.0  0.20959  0.48445  0.74039  1.0000
  H   H77       1.0  0.16460  0.46777  0.71539  1.0000
  C   C62       1.0  0.26566  0.45907  0.55833  1.0000
  H   H78       1.0  0.06366  0.15367  0.67997  1.0000
  H   H79       1.0  0.05330  0.44365  0.70831  1.0000
  H   H80       1.0  0.03841  0.12645  0.71445  1.0000
  C   C63       1.0  0.05659  0.08897  0.73801  1.0000
  N   N6        1.0  0.19007  0.46971  0.74407  1.0000
  C   C64       1.0  0.06792  0.00571  0.68715  1.0000
  C   C65       1.0  0.23043  0.45652  0.65332  1.0000
  H   H81       1.0  0.09550  0.10020  0.63678  1.0000
  C   C66       1.0  0.29676  0.47730  0.57612  1.0000
  H   H82       1.0  0.04524  0.07652  0.75274  1.0000
  C   C67       1.0  0.16110  0.19957  0.63866  1.0000
  C   C68       1.0  0.14576  0.20452  0.61788  1.0000
  C   C69       1.0  0.13936  0.23937  0.61083  1.0000
  C   C70       1.0  0.14828  0.26983  0.62404  1.0000
  C   C71       1.0  0.16367  0.26483  0.64471  1.0000
  C   C72       1.0  0.16995  0.22997  0.65206  1.0000
  H   H83       1.0  0.13887  0.18159  0.60711  1.0000
  H   H84       1.0  0.12749  0.24283  0.59473  1.0000
  H   H85       1.0  0.17067  0.28783  0.65519  1.0000
  H   H86       1.0  0.18178  0.22662  0.66824  1.0000
  S   S27       1.0  0.16325  0.47001  0.63522  1.0000
  C   C73       1.0  0.25344  0.00682  0.61371  1.0000
  H   H87       1.0  0.06190  0.01771  0.66540  1.0000
  H   H88       1.0  0.25448  0.36991  0.56836  1.0000
  H   H89       1.0  0.07781  0.48072  0.60914  1.0000
  C   C74       1.0  0.08322  0.45641  0.70360  1.0000
  C   C75       1.0  0.24955  0.44719  0.65660  1.0000
  H   H90       1.0  0.01891  0.02948  0.96680  1.0000
  H   H91       1.0  0.25306  0.41965  0.66157  1.0000
  H   H92       1.0  0.10337  0.07955  0.72305  1.0000
  S   S28       1.0  0.15697  0.04724  0.51886  1.0000
  H   H93       1.0  0.12484  0.12615  0.70832  1.0000
  H   H94       1.0  0.10806  0.14035  0.62419  1.0000
  C   C76       1.0  0.06446  0.46172  0.71572  1.0000
  C   C77       1.0  0.15264  0.01016  0.49296  1.0000
  C   C78       1.0  0.08778  0.00536  0.69005  1.0000
  H   H95       1.0  0.13743  0.42890  0.50815  1.0000
  H   H96       1.0  0.12087  0.09261  0.67705  1.0000
  H   H97       1.0  0.08953  0.18949  0.67406  1.0000
  H   H98       1.0  0.08625  0.43432  0.68729  1.0000
  H   H99       1.0  0.13141  0.13458  0.66596  1.0000
  C   C79       1.0  0.17903  0.48022  0.71489  1.0000
  H   H100      1.0  0.08333  0.14184  0.63418  1.0000
  H   H101      1.0  0.19523  0.41738  0.72387  1.0000
  H   H102      1.0  0.30244  0.44976  0.57630  1.0000
  H   H103      1.0  0.11444  0.18802  0.66706  1.0000
  H   H104      1.0  0.10479  0.18169  0.70830  1.0000
  S   S29       1.0  0.15210  0.99909  0.60997  1.0000
  H   H105      1.0  0.16612  0.47292  0.77809  1.0000
  H   H106      1.0  0.07778  0.05411  0.75668  1.0000
  N   N7        1.0  0.22432  0.11403  0.66128  1.0000
  C   C80       1.0  0.20869  0.09124  0.67530  1.0000
  C   C81       1.0  0.22361  0.14891  0.67840  1.0000
  C   C82       1.0  0.22052  0.11993  0.62566  1.0000
  C   C83       1.0  0.24328  0.09817  0.66493  1.0000
  C   C84       1.0  0.25960  0.11549  0.65083  1.0000
  C   C85       1.0  0.24619  0.06553  0.68228  1.0000
  C   C86       1.0  0.27755  0.10037  0.65280  1.0000
  C   C87       1.0  0.26425  0.05096  0.68449  1.0000
  C   C88       1.0  0.27984  0.06802  0.66938  1.0000
  H   H107      1.0  0.20995  0.08709  0.70246  1.0000
  H   H108      1.0  0.19462  0.10350  0.67174  1.0000
  H   H109      1.0  0.20822  0.06474  0.66302  1.0000
  H   H110      1.0  0.22670  0.14577  0.70516  1.0000
  H   H111      1.0  0.20935  0.16124  0.67660  1.0000
  H   H112      1.0  0.23395  0.16859  0.66757  1.0000
  H   H113      1.0  0.22191  0.09462  0.61153  1.0000
  H   H114      1.0  0.20596  0.13019  0.62196  1.0000
  H   H115      1.0  0.23022  0.14004  0.61381  1.0000
  H   H116      1.0  0.25855  0.14066  0.63776  1.0000
  H   H117      1.0  0.23472  0.05006  0.69360  1.0000
  C   C89       1.0  0.23459  0.41247  0.57370  1.0000
  H   H118      1.0  0.26609  0.02555  0.69702  1.0000
  C   C90       1.0  0.25246  0.39855  0.56706  1.0000
  N   N8        1.0  0.10131  0.13630  0.67655  1.0000
  C   C91       1.0  0.09683  0.12947  0.64145  1.0000
  C   C92       1.0  0.10249  0.17549  0.68176  1.0000
  C   C93       1.0  0.12040  0.12170  0.68241  1.0000
  C   C94       1.0  0.08627  0.12019  0.69834  1.0000
  C   C95       1.0  0.08964  0.09157  0.72076  1.0000
  C   C96       1.0  0.06736  0.13244  0.69679  1.0000
  C   C97       1.0  0.07497  0.07646  0.74031  1.0000
  C   C98       1.0  0.05279  0.11699  0.71636  1.0000
  H   H119      1.0  0.22504  0.02669  0.60743  1.0000
  H   H120      1.0  0.19695  0.42013  0.76846  1.0000
  H   H121      1.0  0.17437  0.41987  0.74926  1.0000
  H   H122      1.0  0.28974  0.11354  0.64109  1.0000
  C   C99       1.0  0.23381  0.00856  0.62107  1.0000
  H   H123      1.0  0.29366  0.05577  0.67013  1.0000
  H   H124      1.0  0.22280  0.39484  0.58054  1.0000
  C   C100      1.0  0.24404  0.47747  0.73428  1.0000
  H   H125      1.0  0.28142  0.40939  0.55468  1.0000
  H   H126      1.0  0.27872  0.46562  0.65742  1.0000
  C   C101      1.0  0.22590  0.46256  0.73881  1.0000
  H   H127      1.0  0.21805  0.45986  0.57834  1.0000
  H   H128      1.0  0.25623  0.46026  0.73206  1.0000
  H   H129      1.0  0.25962  0.02425  0.59478  1.0000
  C   C102      1.0  0.23194  0.44923  0.57241  1.0000
  C   C103      1.0  0.18922  0.43007  0.74662  1.0000
  N   N9        1.0  0.28222  0.48263  0.55076  1.0000
  S   S30       1.0  0.12212  0.47418  0.69863  1.0000
  C   C104      1.0  0.26418  0.47322  0.65402  1.0000
  C   C105      1.0  0.09798  0.47917  0.71316  1.0000
  C   C106      1.0  0.14051  0.45170  0.49218  1.0000
  C   C107      1.0  0.14988  0.48158  0.50475  1.0000
  H   H130      1.0  0.04054  0.99155  0.70937  1.0000
  H   H131      1.0  0.29103  0.48307  0.60137  1.0000
  H   H132      1.0  0.09973  0.46376  0.59311  1.0000
  H   H133      1.0  0.27981  0.47513  0.49818  1.0000
  H   H134      1.0  0.18894  0.47771  0.79674  1.0000
  H   H135      1.0  0.09685  0.47121  0.63653  1.0000
  C   C108      1.0  0.00738  0.01020  0.96740  1.0000
  C   C109      1.0  0.27167  0.99822  0.49134  1.0000
  C   C110      1.0  0.05573  0.99093  0.71215  1.0000
  H   H136      1.0  0.01082  0.99714  0.91529  1.0000
  H   H137      1.0  0.26256  0.99117  0.54239  1.0000
  S   S31       1.0  0.20116  0.98981  0.65825  1.0000
  H   H138      1.0  0.11043  0.98943  0.72133  1.0000
  C   C111      1.0  0.09525  0.98990  0.71851  1.0000
  C   C112      1.0  0.09345  0.48219  0.61166  1.0000
  C   C113      1.0  0.00280  0.99185  0.93799  1.0000
  C   C114      1.0  0.18072  0.48415  0.77432  1.0000
  H   H139      1.0  0.26096  0.01804  0.48725  1.0000
  Fe  Fe17      1.0  0.12426  0.93470  0.30086  1.0000
  S   S32       1.0  0.12446  0.88666  0.33527  1.0000
  H   H140      1.0  0.07785  0.95889  0.10911  1.0000
  Fe  Fe18      1.0  0.16775  0.94564  0.30866  1.0000
  S   S33       1.0  0.17045  0.89855  0.34311  1.0000
  C   C115      1.0  0.14825  0.51077  0.45047  1.0000
  Fe  Fe19      1.0  0.15100  0.86932  0.30865  1.0000
  S   S34       1.0  0.15744  0.81397  0.28692  1.0000
  Fe  Fe20      1.0  0.14374  0.91934  0.36723  1.0000
  S   S35       1.0  0.14991  0.91540  0.27207  1.0000
  Fe  Fe21      1.0  0.14425  0.59926  0.32973  1.0000
  S   S36       1.0  0.15684  0.57978  0.28150  1.0000
  S   S37       1.0  0.14270  0.65702  0.34847  1.0000
  Fe  Fe22      1.0  0.13996  0.52211  0.35782  1.0000
  H   H141      1.0  0.21559  0.93873  0.33386  1.0000
  C   C116      1.0  0.24361  0.96284  0.33121  1.0000
  Fe  Fe23      1.0  0.17433  0.54265  0.31276  1.0000
  S   S38       1.0  0.20667  0.54209  0.31821  1.0000
  Fe  Fe24      1.0  0.13351  0.53701  0.28461  1.0000
  H   H142      1.0  0.27181  0.90112  0.27545  1.0000
  S   S39       1.0  0.16251  0.56399  0.36077  1.0000
  S   S40       1.0  0.12009  0.55867  0.33130  1.0000
  C   C117      1.0  0.19803  0.75543  0.32804  1.0000
  C   C118      1.0  0.05814  0.51582  0.24550  1.0000
  H   H143      1.0  0.17964  0.65282  0.30791  1.0000
  N   N10       1.0  0.20593  0.65455  0.33401  1.0000
  H   H144      1.0  0.23433  0.64430  0.35036  1.0000
  C   C119      1.0  0.15250  0.98524  0.43705  1.0000
  C   C120      1.0  0.07740  0.52214  0.25275  1.0000
  C   C121      1.0  0.21603  0.98624  0.30349  1.0000
  H   H145      1.0  0.08103  0.53913  0.27323  1.0000
  C   C122      1.0  0.15161  0.77081  0.30390  1.0000
  C   C123      1.0  0.14717  0.76560  0.33757  1.0000
  C   C124      1.0  0.14433  0.73069  0.35053  1.0000
  C   C125      1.0  0.14571  0.70044  0.33010  1.0000
  C   C126      1.0  0.14981  0.70566  0.29629  1.0000
  C   C127      1.0  0.15290  0.74057  0.28339  1.0000
  H   H146      1.0  0.14626  0.78841  0.35380  1.0000
  H   H147      1.0  0.14113  0.72713  0.37669  1.0000
  H   H148      1.0  0.15071  0.68285  0.28008  1.0000
  H   H149      1.0  0.15631  0.74417  0.25732  1.0000
  C   C128      1.0  0.14486  0.95309  0.44953  1.0000
  H   H150      1.0  0.03471  0.98481  0.23106  1.0000
  C   C129      1.0  0.21643  0.74309  0.37616  1.0000
  C   C130      1.0  0.22546  0.64149  0.32818  1.0000
  C   C131      1.0  0.09182  0.50690  0.23328  1.0000
  S   S41       1.0  0.11654  0.51303  0.24167  1.0000
  C   C132      1.0  0.20725  0.76739  0.35599  1.0000
  C   C133      1.0  0.15373  0.51103  0.48373  1.0000
  C   C134      1.0  0.05285  0.49449  0.21853  1.0000
  C   C135      1.0  0.22417  0.96060  0.32398  1.0000
  H   H151      1.0  0.22360  0.75250  0.39792  1.0000
  C   C136      1.0  0.06104  0.96951  0.25356  1.0000
  H   H152      1.0  0.18985  0.71171  0.29870  1.0000
  C   C137      1.0  0.19115  0.49196  0.40063  1.0000
  H   H153      1.0  0.02924  0.97873  0.07983  1.0000
  S   S42       1.0  0.13838  0.91771  0.42304  1.0000
  H   H154      1.0  0.10963  0.94403  0.38221  1.0000
  H   H155      1.0  0.22553  0.61254  0.32173  1.0000
  H   H156      1.0  0.02454  0.49319  0.99241  1.0000
  N   N11       1.0  0.09097  0.98656  0.39565  1.0000
  C   C138      1.0  0.19732  0.63512  0.36289  1.0000
  H   H157      1.0  0.19987  0.51031  0.38443  1.0000
  H   H158      1.0  0.09972  0.93834  0.00186  1.0000
  H   H159      1.0  0.22344  0.68885  0.38508  1.0000
  H   H160      1.0  0.08879  0.56514  0.48233  1.0000
  H   H161      1.0  0.05407  0.95294  0.27236  1.0000
  H   H162      1.0  0.27226  0.50023  0.32631  1.0000
  H   H163      1.0  0.19682  0.60582  0.35853  1.0000
  H   H164      1.0  0.18253  0.64412  0.36794  1.0000
  C   C139      1.0  0.21617  0.70666  0.36865  1.0000
  H   H165      1.0  0.08602  0.92949  0.39282  1.0000
  H   H166      1.0  0.24507  0.53955  0.33976  1.0000
  H   H167      1.0  0.19080  0.77442  0.31251  1.0000
  H   H168      1.0  0.09100  0.95072  0.35377  1.0000
  H   H169      1.0  0.23264  0.65633  0.30734  1.0000
  C   C140      1.0  0.08098  0.97246  0.25293  1.0000
  S   S43       1.0  0.14201  0.96825  0.33499  1.0000
  S   S44       1.0  0.09409  0.94907  0.28379  1.0000
  H   H170      1.0  0.27542  0.96162  0.25144  1.0000
  H   H171      1.0  0.20713  0.79554  0.36213  1.0000
  H   H172      1.0  0.20070  0.65740  0.28152  1.0000
  H   H173      1.0  0.19457  0.61552  0.30040  1.0000
  H   H174      1.0  0.99210  0.56098  0.99772  1.0000
  C   C141      1.0  0.19757  0.71904  0.32040  1.0000
  H   H175      1.0  0.20534  0.63886  0.38588  1.0000
  C   C142      1.0  0.19473  0.64492  0.30463  1.0000
  N   N12       1.0  0.20914  0.88903  0.24203  1.0000
  C   C143      1.0  0.21219  0.85430  0.22538  1.0000
  C   C144      1.0  0.20155  0.88205  0.27603  1.0000
  C   C145      1.0  0.19433  0.90819  0.22363  1.0000
  C   C146      1.0  0.22729  0.90915  0.24371  1.0000
  C   C147      1.0  0.24298  0.89398  0.25979  1.0000
  C   C148      1.0  0.22989  0.94419  0.23031  1.0000
  H   H176      1.0  0.06105  0.97705  0.40426  1.0000
  C   C149      1.0  0.24721  0.96241  0.23257  1.0000
  C   C150      1.0  0.04996  0.98758  0.23007  1.0000
  H   H177      1.0  0.22169  0.83660  0.23940  1.0000
  H   H178      1.0  0.19863  0.83906  0.22291  1.0000
  H   H179      1.0  0.21857  0.85836  0.20013  1.0000
  H   H180      1.0  0.21107  0.86540  0.29101  1.0000
  H   H181      1.0  0.18761  0.86780  0.27586  1.0000
  H   H182      1.0  0.19947  0.90756  0.28947  1.0000
  H   H183      1.0  0.19900  0.91418  0.19765  1.0000
  H   H184      1.0  0.18096  0.89217  0.22248  1.0000
  H   H185      1.0  0.19045  0.93369  0.23599  1.0000
  H   H186      1.0  0.24196  0.86788  0.27131  1.0000
  H   H187      1.0  0.21861  0.95871  0.21895  1.0000
  H   H188      1.0  0.09302  0.96024  0.05721  1.0000
  C   C151      1.0  0.26228  0.94673  0.24853  1.0000
  H   H189      1.0  0.15113  0.53380  0.43471  1.0000
  C   C152      1.0  0.22546  0.51220  0.30828  1.0000
  H   H190      1.0  0.04722  0.52769  0.26091  1.0000
  C   C153      1.0  0.25871  0.49547  0.31509  1.0000
  C   C154      1.0  0.20646  0.69340  0.34079  1.0000
  C   C155      1.0  0.26017  0.91263  0.26219  1.0000
  C   C156      1.0  0.06408  0.97786  0.04749  1.0000
  H   H191      1.0  0.08416  0.96237  0.44341  1.0000
  C   C157      1.0  0.24322  0.51777  0.32267  1.0000
  C   C158      1.0  0.09448  0.95125  0.38045  1.0000
  C   C159      1.0  0.08194  0.96260  0.03941  1.0000
  C   C160      1.0  0.08602  0.94983  0.00754  1.0000
  H   H192      1.0  0.30915  0.95405  0.45608  1.0000
  H   H193      1.0  0.10844  0.97353  0.43699  1.0000
  S   S45       1.0  0.19206  0.98277  0.29056  1.0000
  C   C161      1.0  0.09388  0.98277  0.43184  1.0000
  H   H194      1.0  0.24981  0.94231  0.34632  1.0000
  C   C162      1.0  0.05496  0.96662  0.99008  1.0000
  H   H195      1.0  0.03863  0.98172  0.12024  1.0000
  S   S46       1.0  0.15247  0.49860  0.31140  1.0000
  C   C163      1.0  0.07447  0.98753  0.10511  1.0000
  H   H196      1.0  0.19412  0.49859  0.42679  1.0000
  C   C164      1.0  0.14129  0.94951  0.48381  1.0000
  H   H197      1.0  0.04404  0.94372  0.09493  1.0000
  C   C165      1.0  0.05077  0.97943  0.02179  1.0000
  C   C166      1.0  0.29847  0.96275  0.47370  1.0000
  H   H198      1.0  0.17600  0.49836  0.39683  1.0000
  H   H199      1.0  0.26111  0.97456  0.41631  1.0000
  H   H200      1.0  0.09670  0.49247  0.30423  1.0000
  C   C167      1.0  0.04206  0.97315  0.09442  1.0000
  H   H201      1.0  0.29550  0.96404  0.40313  1.0000
  C   C168      1.0  0.01012  0.48892  0.98476  1.0000
  H   H202      1.0  0.08484  0.83343  0.71271  1.0000
  Fe  Fe25      1.0  0.99114  0.53062  0.85133  1.0000
  C   C169      1.0  0.04527  0.76179  0.74558  1.0000
  S   S47       1.0  0.27745  0.54381  0.64746  1.0000
  H   H203      1.0  0.28730  0.94746  0.55512  1.0000
  C   C170      1.0  0.07461  0.85245  0.70219  1.0000
  Fe  Fe26      1.0  0.01703  0.94314  0.78493  1.0000
  S   S48       1.0  0.04866  0.95559  0.77295  1.0000
  S   S49       1.0  0.01188  0.90267  0.82641  1.0000
  H   H204      1.0  0.07593  0.54039  0.63271  1.0000
  S   S50       1.0  0.01884  0.55670  0.83405  1.0000
  H   H205      1.0  0.31007  0.92880  0.51134  1.0000
  Fe  Fe27      1.0  0.00095  0.60070  0.81187  1.0000
  Fe  Fe28      1.0  0.01526  0.52834  0.78499  1.0000
  H   H206      1.0  0.01899  0.84594  0.71601  1.0000
  H   H207      1.0  0.28423  0.89743  0.63695  1.0000
  C   C171      1.0  0.98797  0.76534  0.90750  1.0000
  H   H208      1.0  0.29363  0.80711  0.61432  1.0000
  Fe  Fe29      1.0  0.30986  0.54610  0.63989  1.0000
  H   H209      1.0  0.25561  0.90859  0.60637  1.0000
  S   S51       1.0  0.29004  0.98368  0.62143  1.0000
  C   C172      1.0  0.07474  0.51269  0.74697  1.0000
  S   S52       1.0  0.00994  0.65952  0.82128  1.0000
  C   C173      1.0  0.09684  0.53200  0.57332  1.0000
  H   H210      1.0  0.29034  0.53817  0.54420  1.0000
  S   S53       1.0  0.98861  0.49930  0.80374  1.0000
  H   H211      1.0  0.04124  0.88122  0.68606  1.0000
  C   C174      1.0  0.05558  0.79366  0.74095  1.0000
  H   H212      1.0  0.07439  0.85066  0.76896  1.0000
  H   H213      1.0  0.01801  0.73586  0.74307  1.0000
  C   C175      1.0  0.29916  0.94787  0.50554  1.0000
  C   C176      1.0  0.06508  0.87057  0.75730  1.0000
  H   H214      1.0  0.09673  0.56945  0.63256  1.0000
  H   H215      1.0  0.23286  0.56505  0.72906  1.0000
  C   C177      1.0  0.98787  0.96685  0.93802  1.0000
  H   H216      1.0  0.17693  0.50951  0.71312  1.0000
  H   H217      1.0  0.24648  0.82907  0.65650  1.0000
  C   C178      1.0  0.02605  0.76044  0.73888  1.0000
  C   C179      1.0  0.25985  0.50911  0.64834  1.0000
  C   C180      1.0  0.24074  0.51836  0.64473  1.0000
  C   C181      1.0  0.27248  0.98309  0.52305  1.0000
  H   H218      1.0  0.23717  0.54603  0.64056  1.0000
  C   C182      1.0  0.09350  0.50738  0.73488  1.0000
  S   S54       1.0  0.03587  0.49463  0.75232  1.0000
  H   H219      1.0  0.24148  0.88797  0.63828  1.0000
  H   H220      1.0  0.30239  0.49234  0.51051  1.0000
  C   C183      1.0  0.22613  0.49228  0.64700  1.0000
  H   H221      1.0  0.03554  0.89707  0.72743  1.0000
  H   H222      1.0  0.99807  0.77719  0.92393  1.0000
  C   C184      1.0  0.25611  0.82320  0.63501  1.0000
  C   C185      1.0  0.09087  0.55585  0.50747  1.0000
  N   N13       1.0  0.26510  0.85621  0.62095  1.0000
  C   C186      1.0  0.27779  0.87172  0.64595  1.0000
  C   C187      1.0  0.24979  0.88228  0.61514  1.0000
  H   H223      1.0  0.07170  0.53437  0.76377  1.0000
  C   C188      1.0  0.27629  0.84755  0.59060  1.0000
  C   C189      1.0  0.27383  0.86528  0.55970  1.0000
  C   C190      1.0  0.29056  0.82118  0.59161  1.0000
  C   C191      1.0  0.28512  0.85712  0.53187  1.0000
  C   C192      1.0  0.04721  0.88850  0.71037  1.0000
  H   H224      1.0  0.99365  0.87063  0.88578  1.0000
  H   H225      1.0  0.07039  0.79345  0.74693  1.0000
  H   H226      1.0  0.26589  0.94471  0.67060  1.0000
  H   H227      1.0  0.28966  0.85368  0.65205  1.0000
  H   H228      1.0  0.07338  0.89602  0.75500  1.0000
  H   H229      1.0  0.24421  0.50057  0.56590  1.0000
  C   C193      1.0  0.00639  0.76871  0.81535  1.0000
  C   C194      1.0  0.98891  0.72844  0.90262  1.0000
  H   H230      1.0  0.23958  0.87219  0.59674  1.0000
  S   S55       1.0  0.99866  0.57342  0.76235  1.0000
  H   H231      1.0  0.26348  0.88589  0.55640  1.0000
  C   C195      1.0  0.08192  0.57283  0.53406  1.0000
  H   H232      1.0  0.27007  0.87733  0.66965  1.0000
  H   H233      1.0  0.27230  0.53032  0.57506  1.0000
  C   C196      1.0  0.10548  0.51502  0.54556  1.0000
  C   C197      1.0  0.27761  0.52127  0.55030  1.0000
  H   H234      1.0  0.24765  0.80914  0.61607  1.0000
  H   H235      1.0  0.05305  0.87555  0.77500  1.0000
  H   H236      1.0  0.10961  0.51379  0.49253  1.0000
  H   H237      1.0  0.23137  0.94782  0.68387  1.0000
  H   H238      1.0  0.28321  0.87124  0.50866  1.0000
  H   H239      1.0  0.00185  0.79013  0.72404  1.0000
  C   C198      1.0  0.30175  0.81327  0.56367  1.0000
  H   H240      1.0  0.05623  0.91277  0.70601  1.0000
  H   H241      1.0  0.05209  0.73804  0.75487  1.0000
  H   H242      1.0  0.16085  0.53438  0.49336  1.0000
  S   S56       1.0  0.31744  0.89903  0.59339  1.0000
  H   H243      1.0  0.26669  0.80409  0.64441  1.0000
  H   H244      1.0  0.07746  0.57558  0.58599  1.0000
  H   H245      1.0  0.08909  0.96356  0.76545  1.0000
  H   H246      1.0  0.01564  0.51015  0.93519  1.0000
  C   C199      1.0  0.99313  0.84105  0.88299  1.0000
  H   H247      1.0  0.11475  0.49252  0.54866  1.0000
  C   C200      1.0  0.05999  0.48979  0.73763  1.0000
  Fe  Fe30      1.0  0.98966  0.87815  0.79446  1.0000
  C   C201      1.0  0.29910  0.83132  0.53390  1.0000
  C   C202      1.0  0.04686  0.82528  0.72941  1.0000
  H   H248      1.0  0.01450  0.79116  0.82425  1.0000
  H   H249      1.0  0.17919  0.51363  0.77316  1.0000
  N   N14       1.0  0.10065  0.51935  0.60734  1.0000
  H   H250      1.0  0.14235  0.97482  0.53179  1.0000
  C   C203      1.0  0.08477  0.56118  0.56659  1.0000
  H   H251      1.0  0.00526  0.83043  0.89679  1.0000
  C   C204      1.0  0.21266  0.52193  0.73726  1.0000
  C   C205      1.0  0.02710  0.82314  0.72353  1.0000
  C   C206      1.0  0.07256  0.95186  0.98294  1.0000
  H   H252      1.0  0.21153  0.50001  0.64452  1.0000
  H   H253      1.0  0.06996  0.84165  0.67804  1.0000
  H   H254      1.0  0.20096  0.54022  0.73777  1.0000
  C   C207      1.0  0.23743  0.96401  0.66389  1.0000
  C   C208      1.0  0.10258  0.52694  0.51322  1.0000
  H   H255      1.0  0.02463  0.72924  0.83687  1.0000
  C   C209      1.0  0.00208  0.70346  0.81071  1.0000
  C   C210      1.0  0.09166  0.54120  0.63385  1.0000
  H   H256      1.0  0.08280  0.87762  0.69695  1.0000
  C   C211      1.0  0.01699  0.79104  0.72800  1.0000
  N   N15       1.0  0.05810  0.85869  0.72479  1.0000
  C   C212      1.0  0.01220  0.73342  0.82229  1.0000
  C   C213      1.0  0.25703  0.96193  0.65622  1.0000
  H   H257      1.0  0.09508  0.53097  0.65902  1.0000
  S   S57       1.0  0.99546  0.98164  0.80599  1.0000
  H   H258      1.0  0.07280  0.59531  0.52940  1.0000
  C   C214      1.0  0.23086  0.53647  0.73239  1.0000
  C   C215      1.0  0.00510  0.49867  0.95215  1.0000
  C   C216      1.0  0.14524  0.97783  0.50548  1.0000
  H   H259      1.0  0.12483  0.51374  0.63874  1.0000
  H   H260      1.0  0.26054  0.52552  0.72594  1.0000
  C   C217      1.0  0.24651  0.51427  0.73082  1.0000
  H   H261      1.0  0.13533  0.92475  0.49365  1.0000
  C   C218      1.0  0.99025  0.77470  0.79670  1.0000
  S   S58       1.0  0.99627  0.91584  0.75153  1.0000
  Fe  Fe31      1.0  0.31624  0.94780  0.62537  1.0000
  H   H262      1.0  0.26695  0.52749  0.53137  1.0000
  H   H263      1.0  0.30808  0.82559  0.51247  1.0000
  C   C219      1.0  0.28633  0.95826  0.53023  1.0000
  C   C220      1.0  0.12137  0.52000  0.61262  1.0000
  H   H264      1.0  0.31847  0.74804  0.67985  1.0000
  H   H265      1.0  0.30919  0.49526  0.57165  1.0000
  H   H266      1.0  0.10466  0.52525  0.74263  1.0000
  H   H267      1.0  0.12895  0.49997  0.59733  1.0000
  H   H268      1.0  0.99956  0.71281  0.91484  1.0000
  C   C221      1.0  0.08306  0.97522  0.74356  1.0000
  H   H269      1.0  0.31280  0.79350  0.56538  1.0000
  C   C222      1.0  0.06320  0.97561  0.74067  1.0000
  H   H270      1.0  0.12769  0.54665  0.60632  1.0000
  Fe  Fe32      1.0  0.98911  0.93958  0.84554  1.0000
  H   H271      1.0  0.99563  0.83491  0.85631  1.0000
  C   C223      1.0  0.26519  0.98331  0.63098  1.0000
  H   H272      1.0  0.07577  0.94204  0.95827  1.0000
  C   C224      1.0  0.98651  0.49369  0.94161  1.0000
  C   C225      1.0  0.22566  0.98732  0.64643  1.0000
  H   H273      1.0  0.04443  0.96831  0.97098  1.0000
  Fe  Fe33      1.0  0.64049  0.02483  0.36284  1.0000
  H   H274      1.0  0.36799  0.17020  0.29497  1.0000
  C   C226      1.0  0.50002  0.00621  0.00660  1.0000
  C   C227      1.0  0.37043  0.19855  0.29059  1.0000
  H   H275      1.0  0.65019  0.17147  0.46243  1.0000
  Fe  Fe34      1.0  0.64007  0.02395  0.28765  1.0000
  C   C228      1.0  0.44794  0.47158  0.11465  1.0000
  S   S59       1.0  0.62761  0.06176  0.32547  1.0000
  H   H276      1.0  0.63535  0.07795  0.40816  1.0000
  C   C229      1.0  0.56008  0.47545  0.25647  1.0000
  N   N16       1.0  0.64497  0.12037  0.43958  1.0000
  Fe  Fe35      1.0  0.64389  0.42102  0.36965  1.0000
  H   H277      1.0  0.60692  0.30769  0.24004  1.0000
  Fe  Fe36      1.0  0.63334  0.43834  0.29783  1.0000
  H   H278      1.0  0.61789  0.11162  0.41691  1.0000
  S   S60       1.0  0.62118  0.39983  0.33621  1.0000
  Fe  Fe37      1.0  0.64318  0.36068  0.31812  1.0000
  Fe  Fe38      1.0  0.34775  0.03191  0.29380  1.0000
  S   S61       1.0  0.35485  0.07974  0.32539  1.0000
  H   H279      1.0  0.43648  0.47355  0.27900  1.0000
  H   H280      1.0  0.44871  0.48336  0.13984  1.0000
  C   C230      1.0  0.33123  0.20729  0.34185  1.0000
  Fe  Fe39      1.0  0.33762  0.05142  0.36595  1.0000
  S   S62       1.0  0.34353  0.05314  0.42119  1.0000
  C   C231      1.0  0.60103  0.48304  0.47072  1.0000
  H   H281      1.0  0.61684  0.06844  0.45659  1.0000
  H   H282      1.0  0.37597  0.47873  0.38771  1.0000
  C   C232      1.0  0.64562  0.46077  0.45207  1.0000
  Fe  Fe40      1.0  0.33218  0.45196  0.35779  1.0000
  H   H283      1.0  0.64359  0.17400  0.41993  1.0000
  Fe  Fe41      1.0  0.34953  0.43147  0.28955  1.0000
  S   S63       1.0  0.37739  0.43092  0.25766  1.0000
  S   S64       1.0  0.35406  0.41226  0.34171  1.0000
  H   H284      1.0  0.57031  0.31923  0.27504  1.0000
  H   H285      1.0  0.45930  0.48343  0.04697  1.0000
  N   N17       1.0  0.43181  0.48597  0.09607  1.0000
  C   C233      1.0  0.63324  0.10703  0.41211  1.0000
  H   H286      1.0  0.59329  0.32353  0.29210  1.0000
  C   C234      1.0  0.59470  0.44817  0.46580  1.0000
  H   H287      1.0  0.50386  0.01730  0.03020  1.0000
  H   H288      1.0  0.34128  0.43436  0.43994  1.0000
  C   C235      1.0  0.59433  0.47910  0.24622  1.0000
  H   H289      1.0  0.63691  0.12075  0.38813  1.0000
  C   C236      1.0  0.34510  0.01506  0.44722  1.0000
  H   H290      1.0  0.40168  0.44641  0.06878  1.0000
  H   H291      1.0  0.36264  0.19586  0.23974  1.0000
  S   S65       1.0  0.61848  0.47061  0.25699  1.0000
  C   C237      1.0  0.41147  0.44768  0.22523  1.0000
  H   H292      1.0  0.41380  0.41919  0.22608  1.0000
  C   C238      1.0  0.63218  0.23035  0.30274  1.0000
  H   H293      1.0  0.40218  0.03025  0.27808  1.0000
  S   S66       1.0  0.33259  0.00233  0.33588  1.0000
  H   H294      1.0  0.58469  0.30630  0.21912  1.0000
  H   H295      1.0  0.33918  0.24534  0.37921  1.0000
  H   H296      1.0  0.51161  0.44759  0.00624  1.0000
  C   C239      1.0  0.31998  0.23309  0.29115  1.0000
  C   C240      1.0  0.64214  0.26096  0.31318  1.0000
  H   H297      1.0  0.52902  0.40281  0.23282  1.0000
  C   C241      1.0  0.39452  0.46136  0.23903  1.0000
  H   H298      1.0  0.37732  0.20922  0.34097  1.0000
  H   H299      1.0  0.59751  0.99583  0.30423  1.0000
  S   S67       1.0  0.36573  0.00034  0.25553  1.0000
  C   C242      1.0  0.32457  0.20252  0.30977  1.0000
  H   H300      1.0  0.45787  0.45500  0.99301  1.0000
  S   S68       1.0  0.32248  0.15945  0.29111  1.0000
  H   H301      1.0  0.55874  0.03524  0.23000  1.0000
  S   S69       1.0  0.32580  0.39126  0.28153  1.0000
  H   H302      1.0  0.63126  0.17249  0.30013  1.0000
  S   S70       1.0  0.63275  0.30420  0.30473  1.0000
  C   C243      1.0  0.56895  0.01452  0.22515  1.0000
  H   H303      1.0  0.59512  0.43697  0.44110  1.0000
  S   S71       1.0  0.33393  0.31601  0.35270  1.0000
  C   C244      1.0  0.58735  0.01777  0.23800  1.0000
  H   H304      1.0  0.59116  0.04097  0.25227  1.0000
  H   H305      1.0  0.43534  0.02136  0.25778  1.0000
  H   H306      1.0  0.53876  0.43189  0.18014  1.0000
  C   C245      1.0  0.42380  0.00869  0.24501  1.0000
  C   C246      1.0  0.38981  0.99741  0.24068  1.0000
  H   H307      1.0  0.61902  0.23350  0.28997  1.0000
  C   C247      1.0  0.63909  0.19559  0.30851  1.0000
  C   C248      1.0  0.60086  0.99149  0.23155  1.0000
  H   H308      1.0  0.58111  0.45362  0.28894  1.0000
  C   C249      1.0  0.50293  0.46746  0.99461  1.0000
  Fe  Fe42      1.0  0.32971  0.37367  0.33416  1.0000
  C   C250      1.0  0.63596  0.99384  0.44421  1.0000
  N   N18       1.0  0.37678  0.31227  0.27346  1.0000
  C   C251      1.0  0.38204  0.33311  0.30312  1.0000
  C   C252      1.0  0.39165  0.31891  0.24749  1.0000
  C   C253      1.0  0.35867  0.32670  0.26174  1.0000
  C   C254      1.0  0.37472  0.27335  0.27987  1.0000
  C   C255      1.0  0.36959  0.24992  0.25396  1.0000
  C   C256      1.0  0.37765  0.25755  0.31148  1.0000
  C   C257      1.0  0.36735  0.21316  0.25943  1.0000
  C   C258      1.0  0.40035  0.00599  0.45955  1.0000
  C   C259      1.0  0.62629  0.07580  0.47610  1.0000
  H   H309      1.0  0.39590  0.32465  0.31280  1.0000
  H   H310      1.0  0.38326  0.36226  0.29746  1.0000
  H   H311      1.0  0.37105  0.33030  0.32329  1.0000
  H   H312      1.0  0.40535  0.30719  0.25480  1.0000
  H   H313      1.0  0.39400  0.34809  0.24293  1.0000
  H   H314      1.0  0.38783  0.30719  0.22331  1.0000
  H   H315      1.0  0.34727  0.32286  0.28097  1.0000
  H   H316      1.0  0.35986  0.35585  0.25614  1.0000
  H   H317      1.0  0.35377  0.31371  0.23882  1.0000
  H   H318      1.0  0.36686  0.25988  0.22940  1.0000
  H   H319      1.0  0.38092  0.27312  0.33302  1.0000
  C   C260      1.0  0.38927  0.48197  0.37245  1.0000
  C   C261      1.0  0.37565  0.22065  0.31649  1.0000
  C   C262      1.0  0.43069  0.46807  0.06357  1.0000
  N   N19       1.0  0.58945  0.35409  0.24710  1.0000
  C   C263      1.0  0.58213  0.33854  0.27896  1.0000
  C   C264      1.0  0.59653  0.32423  0.22647  1.0000
  C   C265      1.0  0.60563  0.37789  0.25488  1.0000
  C   C266      1.0  0.57517  0.37453  0.22880  1.0000
  C   C267      1.0  0.55620  0.37870  0.24069  1.0000
  C   C268      1.0  0.58018  0.39153  0.19819  1.0000
  C   C269      1.0  0.54325  0.39885  0.22297  1.0000
  C   C270      1.0  0.56712  0.41169  0.18080  1.0000
  C   C271      1.0  0.54870  0.41530  0.19315  1.0000
  H   H320      1.0  0.57728  0.35974  0.29631  1.0000
  H   H321      1.0  0.60397  0.33379  0.20346  1.0000
  H   H322      1.0  0.60084  0.40093  0.27001  1.0000
  H   H323      1.0  0.61654  0.36346  0.26899  1.0000
  H   H324      1.0  0.61297  0.38909  0.23243  1.0000
  H   H325      1.0  0.55106  0.36728  0.26385  1.0000
  H   H326      1.0  0.59436  0.38996  0.18776  1.0000
  C   C272      1.0  0.33372  0.24211  0.35461  1.0000
  C   C273      1.0  0.32940  0.27269  0.33578  1.0000
  S   S72       1.0  0.64053  0.42433  0.42582  1.0000
  H   H327      1.0  0.46185  0.47752  0.10214  1.0000
  S   S73       1.0  0.62366  0.00402  0.40766  1.0000
  H   H328      1.0  0.33481  0.18420  0.35657  1.0000
  H   H329      1.0  0.38942  0.04404  0.42481  1.0000
  H   H330      1.0  0.62607  0.16312  0.45170  1.0000
  C   C274      1.0  0.34073  0.45828  0.45479  1.0000
  C   C275      1.0  0.57879  0.46784  0.26603  1.0000
  S   S74       1.0  0.32038  0.05546  0.27607  1.0000
  H   H331      1.0  0.58451  0.99764  0.34350  1.0000
  C   C276      1.0  0.34156  0.01875  0.48140  1.0000
  C   C277      1.0  0.40495  0.01389  0.25659  1.0000
  H   H332      1.0  0.43848  0.45931  0.20039  1.0000
  H   H333      1.0  0.57138  0.42540  0.15802  1.0000
  H   H334      1.0  0.39057  0.45690  0.35809  1.0000
  C   C278      1.0  0.64106  0.15892  0.44363  1.0000
  H   H335      1.0  0.40128  0.48338  0.38974  1.0000
  S   S75       1.0  0.32876  0.47376  0.30590  1.0000
  C   C279      1.0  0.44635  0.46958  0.04088  1.0000
  C   C280      1.0  0.41429  0.44914  0.05329  1.0000
  C   C281      1.0  0.44568  0.45336  0.00988  1.0000
  S   S76       1.0  0.62461  0.99445  0.24615  1.0000
  C   C282      1.0  0.39125  0.03730  0.45072  1.0000
  C   C283      1.0  0.41376  0.43300  0.02214  1.0000
  H   H336      1.0  0.54827  0.46660  0.27212  1.0000
  H   H337      1.0  0.37520  0.48513  0.31183  1.0000
  H   H338      1.0  0.44671  0.44206  0.11768  1.0000
  C   C284      1.0  0.64119  0.10140  0.47147  1.0000
  Fe  Fe43      1.0  0.32676  0.10194  0.31013  1.0000
  H   H339      1.0  0.41167  0.45262  0.12349  1.0000
  H   H340      1.0  0.40112  0.41874  0.01469  1.0000
  C   C285      1.0  0.42940  0.43516  0.00048  1.0000
  C   C286      1.0  0.41449  0.48127  0.11737  1.0000
  H   H341      1.0  0.56454  0.99426  0.29996  1.0000
  C   C287      1.0  0.32219  0.26784  0.30410  1.0000
  C   C288      1.0  0.42557  0.47045  0.21057  1.0000
  H   H342      1.0  0.40699  0.46570  0.31091  1.0000
  H   H343      1.0  0.37628  0.08323  0.46798  1.0000
  C   C289      1.0  0.38384  0.05944  0.47522  1.0000
  C   C290      1.0  0.64571  0.45493  0.48653  1.0000
  H   H344      1.0  0.40581  0.98859  0.44033  1.0000
  Fe  Fe44      1.0  0.51386  0.02910  0.78203  1.0000
  H   H345      1.0  0.44363  0.35149  0.80923  1.0000
  H   H346      1.0  0.64849  0.47864  0.53493  1.0000
  Fe  Fe45      1.0  0.49713  0.10342  0.79975  1.0000
  S   S77       1.0  0.47364  0.07861  0.83132  1.0000
  S   S78       1.0  0.50479  0.16354  0.79210  1.0000
  Fe  Fe46      1.0  0.49601  0.04281  0.85266  1.0000
  S   S79       1.0  0.50009  0.04192  0.90978  1.0000
  Fe  Fe47      1.0  0.47053  0.03769  0.79053  1.0000
  H   H347      1.0  0.33756  0.04448  0.49116  1.0000
  S   S80       1.0  0.51975  0.06903  0.82209  1.0000
  S   S81       1.0  0.49261  0.06488  0.75739  1.0000
  Fe  Fe48      1.0  0.48947  0.38597  0.81317  1.0000
  S   S82       1.0  0.46601  0.42435  0.82710  1.0000
  S   S83       1.0  0.48087  0.32647  0.82187  1.0000
  Fe  Fe49      1.0  0.51695  0.44904  0.79355  1.0000
  C   C291      1.0  0.60741  0.46600  0.58568  1.0000
  Fe  Fe50      1.0  0.48842  0.45737  0.85245  1.0000
  H   H348      1.0  0.49567  0.15428  0.95148  1.0000
  Fe  Fe51      1.0  0.47389  0.45422  0.78006  1.0000
  C   C292      1.0  0.34295  0.48710  0.50889  1.0000
  S   S84       1.0  0.51126  0.41746  0.84127  1.0000
  S   S85       1.0  0.49658  0.41461  0.76484  1.0000
  H   H349      1.0  0.64312  0.42828  0.49634  1.0000
  C   C293      1.0  0.49438  0.21649  0.91423  1.0000
  C   C294      1.0  0.34320  0.98941  0.50309  1.0000
  C   C295      1.0  0.42026  0.99861  0.68341  1.0000
  H   H350      1.0  0.47839  0.99202  0.69591  1.0000
  C   C296      1.0  0.43213  0.00918  0.70949  1.0000
  H   H351      1.0  0.52989  0.26260  0.85255  1.0000
  H   H352      1.0  0.55068  0.45820  0.90041  1.0000
  C   C297      1.0  0.58253  0.48717  0.75304  1.0000
  H   H353      1.0  0.60080  0.43911  0.58891  1.0000
  H   H354      1.0  0.38775  0.32318  0.68350  1.0000
  H   H355      1.0  0.50538  0.44336  0.94599  1.0000
  H   H356      1.0  0.61252  0.03734  0.50893  1.0000
  C   C298      1.0  0.52246  0.13690  0.88295  1.0000
  C   C299      1.0  0.48876  0.14156  0.88831  1.0000
  H   H357      1.0  0.52156  0.14073  0.85564  1.0000
  H   H358      1.0  0.42721  0.29363  0.76931  1.0000
  H   H359      1.0  0.53659  0.14633  0.89101  1.0000
  N   N20       1.0  0.50690  0.15544  0.90098  1.0000
  C   C300      1.0  0.49740  0.20862  0.79981  1.0000
  C   C301      1.0  0.50878  0.23728  0.78756  1.0000
  C   C302      1.0  0.50392  0.27333  0.79360  1.0000
  C   C303      1.0  0.48758  0.28145  0.81224  1.0000
  C   C304      1.0  0.47610  0.25283  0.82423  1.0000
  C   C305      1.0  0.48091  0.21679  0.81806  1.0000
  H   H360      1.0  0.52155  0.23153  0.77337  1.0000
  H   H361      1.0  0.51297  0.29476  0.78410  1.0000
  H   H362      1.0  0.46345  0.25852  0.83874  1.0000
  H   H363      1.0  0.47188  0.19538  0.82758  1.0000
  C   C306      1.0  0.42627  0.00402  0.74262  1.0000
  H   H364      1.0  0.62180  0.46238  0.57445  1.0000
  H   H365      1.0  0.56760  0.03851  0.75849  1.0000
  H   H366      1.0  0.45172  0.30183  0.77616  1.0000
  C   C307      1.0  0.62359  0.05755  0.50624  1.0000
  C   C308      1.0  0.52051  0.21258  0.87453  1.0000
  H   H367      1.0  0.41318  0.30390  0.71851  1.0000
  S   S86       1.0  0.44100  0.01488  0.77696  1.0000
  C   C309      1.0  0.55755  0.99090  0.73481  1.0000
  H   H368      1.0  0.48378  0.20480  0.93086  1.0000
  S   S87       1.0  0.45365  0.47149  0.73857  1.0000
  C   C310      1.0  0.50711  0.27013  0.88779  1.0000
  C   C311      1.0  0.59016  0.01342  0.72991  1.0000
  C   C312      1.0  0.58826  0.42755  0.49272  1.0000
  H   H369      1.0  0.60062  0.03338  0.73630  1.0000
  H   H370      1.0  0.43194  0.38949  0.79338  1.0000
  C   C313      1.0  0.39419  0.01808  0.51859  1.0000
  H   H371      1.0  0.42263  0.03226  0.55939  1.0000
  C   C314      1.0  0.56279  0.48343  0.74915  1.0000
  H   H372      1.0  0.58328  0.42451  0.54481  1.0000
  H   H373      1.0  0.64652  0.01009  0.74028  1.0000
  H   H374      1.0  0.52108  0.15705  0.94751  1.0000
  S   S88       1.0  0.34664  0.48298  0.55200  1.0000
  C   C315      1.0  0.63560  0.06390  0.53243  1.0000
  H   H375      1.0  0.34599  0.43058  0.50070  1.0000
  C   C316      1.0  0.49941  0.46497  0.96027  1.0000
  H   H376      1.0  0.42511  0.00264  0.65805  1.0000
  C   C317      1.0  0.50202  0.02722  0.97727  1.0000
  C   C318      1.0  0.52028  0.24971  0.87040  1.0000
  H   H377      1.0  0.34023  0.99262  0.52926  1.0000
  C   C319      1.0  0.57137  0.01645  0.74259  1.0000
  H   H378      1.0  0.56964  0.46510  0.58151  1.0000
  H   H379      1.0  0.60916  0.47654  0.61121  1.0000
  H   H380      1.0  0.41872  0.34892  0.80140  1.0000
  C   C320      1.0  0.58839  0.44157  0.52473  1.0000
  H   H381      1.0  0.44580  0.02132  0.70394  1.0000
  N   N21       1.0  0.43664  0.34746  0.75758  1.0000
  C   C321      1.0  0.43992  0.30834  0.75935  1.0000
  C   C322      1.0  0.45448  0.36472  0.74523  1.0000
  C   C323      1.0  0.42096  0.35755  0.73582  1.0000
  C   C324      1.0  0.41036  0.33216  0.71760  1.0000
  C   C325      1.0  0.41593  0.39395  0.73228  1.0000
  C   C326      1.0  0.39565  0.34288  0.69729  1.0000
  C   C327      1.0  0.40118  0.40433  0.71204  1.0000
  C   C328      1.0  0.39106  0.37888  0.69454  1.0000
  H   H382      1.0  0.44408  0.29741  0.73470  1.0000
  H   H383      1.0  0.45759  0.35768  0.71895  1.0000
  H   H384      1.0  0.46681  0.35643  0.76004  1.0000
  H   H385      1.0  0.45400  0.39435  0.74650  1.0000
  H   H386      1.0  0.42349  0.41478  0.74504  1.0000
  H   H387      1.0  0.39764  0.43237  0.70982  1.0000
  H   H388      1.0  0.37969  0.38717  0.67874  1.0000
  H   H389      1.0  0.50653  0.29873  0.88343  1.0000
  C   C329      1.0  0.49717  0.01363  0.94601  1.0000
  H   H390      1.0  0.52606  0.46506  0.89316  1.0000
  C   C330      1.0  0.40196  0.99657  0.49294  1.0000
  H   H391      1.0  0.50857  0.11582  0.94000  1.0000
  H   H392      1.0  0.47626  0.15282  0.90153  1.0000
  C   C331      1.0  0.50811  0.14544  0.93653  1.0000
  C   C332      1.0  0.50757  0.19480  0.89681  1.0000
  C   C333      1.0  0.43251  0.35988  0.79180  1.0000
  H   H393      1.0  0.48746  0.14805  0.86148  1.0000
  H   H394      1.0  0.53055  0.19839  0.85910  1.0000
  H   H395      1.0  0.48761  0.11201  0.89127  1.0000
  H   H396      1.0  0.52182  0.10745  0.88735  1.0000
  H   H397      1.0  0.58338  0.40038  0.48874  1.0000
  C   C334      1.0  0.38521  0.05016  0.50870  1.0000
  S   S89       1.0  0.54834  0.46598  0.78313  1.0000
  S   S90       1.0  0.49147  0.00042  0.81396  1.0000
  H   H398      1.0  0.37870  0.06817  0.52617  1.0000
  C   C335      1.0  0.65000  0.08946  0.52903  1.0000
  C   C336      1.0  0.41562  0.00568  0.56314  1.0000
  H   H399      1.0  0.39174  0.05830  0.57665  1.0000
  H   H400      1.0  0.50742  0.05428  0.97890  1.0000
  C   C337      1.0  0.49419  0.25357  0.90969  1.0000
  H   H401      1.0  0.48371  0.26953  0.92262  1.0000
  H   H402      1.0  0.49639  0.99426  0.72643  1.0000
  H   H403      1.0  0.42895  0.42273  0.97633  1.0000
  C   C338      1.0  0.54068  0.47254  0.88442  1.0000
  N   N22       1.0  0.39550  0.00679  0.55372  1.0000
  C   C339      1.0  0.34341  0.45623  0.48924  1.0000
  C   C340      1.0  0.65266  0.10832  0.49919  1.0000
  C   C341      1.0  0.59529  0.47665  0.53077  1.0000
  C   C342      1.0  0.64864  0.48344  0.50849  1.0000
  H   H404      1.0  0.63388  0.04855  0.55524  1.0000
  H   H405      1.0  0.38636  0.02126  0.60333  1.0000
  H   H406      1.0  0.37012  0.03232  0.57185  1.0000
  S   S91       1.0  0.53348  0.99276  0.75030  1.0000
  H   H407      1.0  0.58862  0.47898  0.77617  1.0000
  H   H408      1.0  0.54293  0.46183  0.85895  1.0000
  C   C343      1.0  0.38548  0.03088  0.57722  1.0000
  H   H409      1.0  0.41701  0.99794  0.58973  1.0000
  C   C344      1.0  0.40821  0.98857  0.74898  1.0000
  H   H410      1.0  0.47219  0.98851  0.73909  1.0000
  N   N23       1.0  0.59024  0.94441  0.32576  1.0000
  Fe  Fe52      1.0  0.51697  0.95084  0.16280  1.0000
  S   S92       1.0  0.49486  0.92086  0.19339  1.0000
  H   H411      1.0  0.47142  0.87582  0.06129  1.0000
  Fe  Fe53      1.0  0.49367  0.94279  0.09883  1.0000
  S   S93       1.0  0.46984  0.91405  0.12718  1.0000
  H   H412      1.0  0.45779  0.83594  0.05544  1.0000
  Fe  Fe54      1.0  0.47324  0.95427  0.16786  1.0000
  H   H413      1.0  0.58616  0.89973  0.35962  1.0000
  Fe  Fe55      1.0  0.49263  0.88188  0.15123  1.0000
  S   S94       1.0  0.48355  0.82296  0.16164  1.0000
  S   S95       1.0  0.51656  0.90923  0.12205  1.0000
  Fe  Fe56      1.0  0.51362  0.53066  0.17723  1.0000
  S   S96       1.0  0.50020  0.49652  0.05763  1.0000
  H   H414      1.0  0.47131  0.84209  0.09266  1.0000
  Fe  Fe57      1.0  0.49949  0.60070  0.14405  1.0000
  S   S97       1.0  0.47558  0.57173  0.11883  1.0000
  S   S98       1.0  0.50801  0.65995  0.13323  1.0000
  Fe  Fe58      1.0  0.47050  0.54225  0.16774  1.0000
  S   S99       1.0  0.43982  0.53780  0.18976  1.0000
  Fe  Fe59      1.0  0.49672  0.52886  0.10635  1.0000
  N   N24       1.0  0.48795  0.82936  0.04888  1.0000
  S   S100      1.0  0.49326  0.57391  0.19360  1.0000
  S   S101      1.0  0.52115  0.55893  0.12898  1.0000
  H   H415      1.0  0.47814  0.54223  0.01271  1.0000
  H   H416      1.0  0.44176  0.58137  0.31220  1.0000
  C   C345      1.0  0.43127  0.49524  0.29418  1.0000
  H   H417      1.0  0.55607  0.51236  0.99813  1.0000
  C   C346      1.0  0.33715  0.52221  0.45932  1.0000
  H   H418      1.0  0.41539  0.95508  0.17938  1.0000
  H   H419      1.0  0.37336  0.88354  0.24557  1.0000
  H   H420      1.0  0.46349  0.78380  0.08679  1.0000
  H   H421      1.0  0.37030  0.53984  0.38674  1.0000
  C   C347      1.0  0.40587  0.52109  0.22264  1.0000
  H   H422      1.0  0.48675  0.86907  0.00987  1.0000
  H   H423      1.0  0.62003  0.93308  0.31915  1.0000
  H   H424      1.0  0.42440  0.87103  0.17836  1.0000
  H   H425      1.0  0.40349  0.54957  0.22159  1.0000
  C   C348      1.0  0.57245  0.93820  0.30785  1.0000
  H   H426      1.0  0.51843  0.83488  0.05166  1.0000
  H   H427      1.0  0.57625  0.94110  0.37356  1.0000
  C   C349      1.0  0.50358  0.73269  0.04145  1.0000
  C   C350      1.0  0.58840  0.92915  0.35971  1.0000
  C   C351      1.0  0.35019  0.98164  0.43482  1.0000
  C   C352      1.0  0.49109  0.77786  0.15434  1.0000
  C   C353      1.0  0.47943  0.74922  0.16575  1.0000
  C   C354      1.0  0.48446  0.71316  0.16021  1.0000
  C   C355      1.0  0.50129  0.70498  0.14294  1.0000
  C   C356      1.0  0.51300  0.73365  0.13172  1.0000
  C   C357      1.0  0.50801  0.76970  0.13739  1.0000
  H   H428      1.0  0.46633  0.75489  0.17895  1.0000
  H   H429      1.0  0.47524  0.69167  0.16903  1.0000
  H   H430      1.0  0.52604  0.72789  0.11834  1.0000
  H   H431      1.0  0.51731  0.79105  0.12864  1.0000
  H   H432      1.0  0.53034  0.55438  0.01106  1.0000
  H   H433      1.0  0.35616  0.92668  0.44686  1.0000
  H   H434      1.0  0.43805  0.92268  0.27441  1.0000
  H   H435      1.0  0.33489  0.54794  0.44779  1.0000
  C   C358      1.0  0.49013  0.71472  0.06131  1.0000
  S   S102      1.0  0.33547  0.49593  0.39618  1.0000
  H   H436      1.0  0.35302  0.97852  0.40855  1.0000
  N   N25       1.0  0.38883  0.51429  0.35090  1.0000
  H   H437      1.0  0.60583  0.94140  0.20698  1.0000
  H   H438      1.0  0.57406  0.87998  0.30930  1.0000
  C   C359      1.0  0.47564  0.73369  0.07681  1.0000
  H   H439      1.0  0.45367  0.53134  0.27837  1.0000
  C   C360      1.0  0.42788  0.98722  0.21723  1.0000
  C   C361      1.0  0.41751  0.55187  0.33201  1.0000
  H   H440      1.0  0.40029  0.85597  0.21706  1.0000
  C   C362      1.0  0.60616  0.92678  0.30794  1.0000
  H   H441      1.0  0.41295  0.57494  0.34577  1.0000
  C   C363      1.0  0.35202  0.95236  0.45658  1.0000
  H   H442      1.0  0.43914  0.90888  0.18711  1.0000
  C   C364      1.0  0.43489  0.52489  0.09081  1.0000
  C   C365      1.0  0.56097  0.96647  0.29638  1.0000
  S   S103      1.0  0.53225  0.50204  0.21591  1.0000
  H   H443      1.0  0.43544  0.53944  0.11481  1.0000
  C   C366      1.0  0.50520  0.84478  0.06360  1.0000
  H   H444      1.0  0.39490  0.55006  0.39104  1.0000
  H   H445      1.0  0.56957  0.52011  0.18439  1.0000
  C   C367      1.0  0.47462  0.77077  0.07288  1.0000
  C   C368      1.0  0.48412  0.52064  0.99841  1.0000
  H   H446      1.0  0.51509  0.71786  0.03011  1.0000
  C   C369      1.0  0.47133  0.84630  0.06531  1.0000
  H   H447      1.0  0.41072  0.94837  0.30196  1.0000
  C   C370      1.0  0.48812  0.78997  0.05273  1.0000
  C   C371      1.0  0.38382  0.54494  0.37248  1.0000
  H   H448      1.0  0.37891  0.50952  0.24757  1.0000
  H   H449      1.0  0.60477  0.89724  0.30802  1.0000
  C   C372      1.0  0.49540  0.49534  0.01404  1.0000
  C   C373      1.0  0.40710  0.51907  0.33254  1.0000
  H   H450      1.0  0.57326  0.93527  0.18548  1.0000
  C   C374      1.0  0.54468  0.95956  0.27838  1.0000
  C   C375      1.0  0.42290  0.50748  0.20916  1.0000
  H   H451      1.0  0.50573  0.83817  0.09052  1.0000
  H   H452      1.0  0.50088  0.83172  0.99963  1.0000
  C   C376      1.0  0.55643  0.49439  0.22697  1.0000
  C   C377      1.0  0.48776  0.83950  0.01326  1.0000
  H   H453      1.0  0.54582  0.86912  0.27688  1.0000
  H   H454      1.0  0.61200  0.96711  0.46796  1.0000
  H   H455      1.0  0.52716  0.91975  0.25594  1.0000
  H   H456      1.0  0.37328  0.53273  0.30905  1.0000
  H   H457      1.0  0.37835  0.92958  0.28798  1.0000
  H   H458      1.0  0.60247  0.50706  0.20108  1.0000
  H   H459      1.0  0.60889  0.98648  0.34219  1.0000
  H   H460      1.0  0.60710  0.93573  0.28156  1.0000
  S   S104      1.0  0.49035  0.49786  0.15393  1.0000
  C   C378      1.0  0.57705  0.95831  0.20001  1.0000
  C   C379      1.0  0.64893  0.49531  0.43967  1.0000
  C   C380      1.0  0.39186  0.49836  0.23756  1.0000
  H   H461      1.0  0.42333  0.53665  0.07619  1.0000
  H   H462      1.0  0.50567  0.87442  0.06089  1.0000
  C   C381      1.0  0.43418  0.55600  0.31281  1.0000
  N   N26       1.0  0.43826  0.86890  0.22557  1.0000
  C   C382      1.0  0.45698  0.88010  0.23815  1.0000
  C   C383      1.0  0.43712  0.82932  0.22813  1.0000
  C   C384      1.0  0.43777  0.87934  0.19013  1.0000
  C   C385      1.0  0.42206  0.88515  0.24366  1.0000
  C   C386      1.0  0.42436  0.91192  0.26813  1.0000
  C   C387      1.0  0.40319  0.87516  0.23616  1.0000
  C   C388      1.0  0.40871  0.92705  0.28430  1.0000
  C   C389      1.0  0.38766  0.89068  0.25235  1.0000
  C   C390      1.0  0.39042  0.91652  0.27642  1.0000
  H   H463      1.0  0.45828  0.87340  0.26488  1.0000
  H   H464      1.0  0.46882  0.86661  0.22464  1.0000
  H   H465      1.0  0.45951  0.90936  0.23460  1.0000
  H   H466      1.0  0.43639  0.82046  0.25452  1.0000
  H   H467      1.0  0.44971  0.81656  0.21613  1.0000
  H   H468      1.0  0.42462  0.81804  0.21557  1.0000
  H   H469      1.0  0.38234  0.96332  0.20013  1.0000
  C   C391      1.0  0.59071  0.49803  0.21671  1.0000
  H   H470      1.0  0.49131  0.68620  0.06572  1.0000
  H   H471      1.0  0.60136  0.93446  0.37427  1.0000
  H   H472      1.0  0.35941  0.50801  0.33938  1.0000
  H   H473      1.0  0.47549  0.82697  0.00084  1.0000
  C   C392      1.0  0.59555  0.96184  0.21239  1.0000
  H   H474      1.0  0.38150  0.56969  0.35776  1.0000
  C   C393      1.0  0.56622  0.90283  0.30105  1.0000
  C   C394      1.0  0.33776  0.49137  0.43963  1.0000
  C   C395      1.0  0.49313  0.97098  0.00532  1.0000
  C   C396      1.0  0.44099  0.52780  0.29384  1.0000
  C   C397      1.0  0.56359  0.98475  0.20612  1.0000
  H   H475      1.0  0.46563  0.71967  0.09320  1.0000
  H   H476      1.0  0.44958  0.86709  0.17562  1.0000
  S   S105      1.0  0.49039  0.94257  0.04151  1.0000
  C   C398      1.0  0.37355  0.50981  0.32675  1.0000
  C   C399      1.0  0.53937  0.92464  0.27112  1.0000
  H   H477      1.0  0.41587  0.49528  0.14148  1.0000
  C   C400      1.0  0.50263  0.76972  0.03709  1.0000
  H   H478      1.0  0.51364  0.78254  0.02208  1.0000
  C   C401      1.0  0.65161  0.52389  0.46166  1.0000
  C   C402      1.0  0.59538  0.98282  0.32894  1.0000
  C   C403      1.0  0.57198  0.50559  0.20714  1.0000
  C   C404      1.0  0.55000  0.89628  0.28271  1.0000
  H   H479      1.0  0.44847  0.53097  0.07731  1.0000
  S   S106      1.0  0.49536  0.98570  0.13799  1.0000
  H   H480      1.0  0.64880  0.50022  0.41324  1.0000
  H   H481      1.0  0.65142  0.51428  0.20454  1.0000
  C   C405      1.0  0.39388  0.97620  0.21272  1.0000
  C   C406      1.0  0.41270  0.97126  0.20098  1.0000
  H   H482      1.0  0.40185  0.49284  0.10559  1.0000
  S   S107      1.0  0.45214  0.98055  0.20481  1.0000
  C   C407      1.0  0.62653  0.97581  0.47060  1.0000
  S   S108      1.0  0.53985  0.98185  0.19151  1.0000
  H   H483      1.0  0.60631  0.49878  0.44972  1.0000
  S   S109      1.0  0.65148  0.98585  0.32569  1.0000
  H   H484      1.0  0.53654  0.98152  0.26859  1.0000
  C   C408      1.0  0.41448  0.49094  0.31289  1.0000
  Fe  Fe60      1.0  0.63747  0.94731  0.65863  1.0000
  S   S110      1.0  0.63011  0.92101  0.61031  1.0000
  C   C409      1.0  0.56315  0.52045  0.87382  1.0000
  C   C410      1.0  0.58707  0.51170  0.69697  1.0000
  C   C411      1.0  0.55120  0.51235  0.94552  1.0000
  S   S111      1.0  0.60144  0.52995  0.66325  1.0000
  H   H485      1.0  0.57765  0.64593  0.68884  1.0000
  C   C412      1.0  0.59457  0.50102  0.72725  1.0000
  C   C413      1.0  0.33284  0.77465  0.63871  1.0000
  C   C414      1.0  0.65125  0.51820  0.49616  1.0000
  H   H486      1.0  0.50401  0.93814  0.75939  1.0000
  H   H487      1.0  0.33927  0.54408  0.50863  1.0000
  H   H488      1.0  0.63801  0.68655  0.61211  1.0000
  H   H489      1.0  0.58573  0.69921  0.66339  1.0000
  Fe  Fe61      1.0  0.64881  0.87552  0.62718  1.0000
  Fe  Fe62      1.0  0.63258  0.54226  0.64643  1.0000
  C   C415      1.0  0.64765  0.77504  0.62735  1.0000
  S   S112      1.0  0.63477  0.58906  0.61050  1.0000
  C   C416      1.0  0.59759  0.71031  0.67631  1.0000
  Fe  Fe63      1.0  0.35960  0.94282  0.64109  1.0000
  S   S113      1.0  0.36260  0.89323  0.60975  1.0000
  H   H490      1.0  0.61945  0.52712  0.55737  1.0000
  Fe  Fe64      1.0  0.33500  0.87432  0.63311  1.0000
  H   H491      1.0  0.59150  0.76300  0.65736  1.0000
  Fe  Fe65      1.0  0.34471  0.92172  0.57268  1.0000
  H   H492      1.0  0.59013  0.60512  0.68351  1.0000
  Fe  Fe66      1.0  0.34157  0.52532  0.59150  1.0000
  S   S114      1.0  0.32763  0.81827  0.65405  1.0000
  S   S115      1.0  0.35110  0.91864  0.51732  1.0000
  Fe  Fe67      1.0  0.34013  0.60251  0.61801  1.0000
  C   C417      1.0  0.59554  0.98499  0.70907  1.0000
  S   S116      1.0  0.34733  0.66058  0.60234  1.0000
  Fe  Fe68      1.0  0.35158  0.54040  0.66379  1.0000
  S   S117      1.0  0.36959  0.52847  0.70979  1.0000
  S   S118      1.0  0.36331  0.56113  0.61494  1.0000
  C   C418      1.0  0.62808  0.74368  0.70682  1.0000
  H   H493      1.0  0.63729  0.63729  0.70282  1.0000
  C   C419      1.0  0.50138  0.93414  0.69545  1.0000
  H   H494      1.0  0.39465  0.94969  0.54410  1.0000
  C   C420      1.0  0.34087  0.70402  0.61665  1.0000
  C   C421      1.0  0.34716  0.73431  0.59832  1.0000
  C   C422      1.0  0.34317  0.76932  0.60918  1.0000
  H   H495      1.0  0.35532  0.73064  0.57560  1.0000
  H   H496      1.0  0.34824  0.79216  0.59481  1.0000
  H   H497      1.0  0.64028  0.75658  0.71758  1.0000
  H   H498      1.0  0.41761  0.88957  0.67885  1.0000
  S   S119      1.0  0.33258  0.92248  0.66701  1.0000
  H   H499      1.0  0.63547  0.69234  0.72463  1.0000
  H   H500      1.0  0.40245  0.51121  0.66595  1.0000
  H   H501      1.0  0.60720  0.52398  0.50453  1.0000
  C   C423      1.0  0.48290  0.98070  0.71997  1.0000
  C   C424      1.0  0.44723  0.89635  0.66597  1.0000
  H   H502      1.0  0.61848  0.79219  0.68417  1.0000
  H   H503      1.0  0.47173  0.53777  0.95251  1.0000
  H   H504      1.0  0.60188  0.61116  0.73826  1.0000
  H   H505      1.0  0.37219  0.75697  0.75114  1.0000
  S   S120      1.0  0.34295  0.97189  0.60223  1.0000
  H   H506      1.0  0.56587  0.51191  0.84769  1.0000
  H   H507      1.0  0.61632  0.64823  0.75000  1.0000
  C   C425      1.0  0.32644  0.74438  0.65694  1.0000
  C   C426      1.0  0.42475  0.49452  0.69853  1.0000
  H   H508      1.0  0.37702  0.75112  0.64546  1.0000
  H   H509      1.0  0.37908  0.68683  0.64806  1.0000
  S   S121      1.0  0.32919  0.58337  0.66784  1.0000
  H   H510      1.0  0.55253  0.94236  0.70777  1.0000
  H   H511      1.0  0.40712  0.64126  0.71532  1.0000
  H   H512      1.0  0.47647  0.90708  0.65834  1.0000
  C   C427      1.0  0.48814  0.49028  0.94463  1.0000
  C   C428      1.0  0.61581  0.76381  0.68799  1.0000
  S   S122      1.0  0.38811  0.96956  0.65545  1.0000
  C   C429      1.0  0.54777  0.52309  0.97821  1.0000
  H   H513      1.0  0.44578  0.88478  0.64162  1.0000
  H   H514      1.0  0.60965  0.50329  0.73085  1.0000
  C   C430      1.0  0.46484  0.90935  0.67597  1.0000
  H   H515      1.0  0.39401  0.60175  0.72802  1.0000
  H   H516      1.0  0.53218  0.55702  0.85874  1.0000
  H   H517      1.0  0.51484  0.94559  0.70493  1.0000
  H   H518      1.0  0.37458  0.69202  0.75568  1.0000
  C   C431      1.0  0.60063  0.74718  0.67277  1.0000
  H   H519      1.0  0.32549  0.68650  0.66054  1.0000
  H   H520      1.0  0.56744  0.50935  0.56466  1.0000
  C   C432      1.0  0.52544  0.54933  0.92752  1.0000
  C   C433      1.0  0.39631  0.97810  0.72290  1.0000
  N   N27       1.0  0.60747  0.64972  0.69914  1.0000
  H   H521      1.0  0.42378  0.98592  0.54838  1.0000
  H   H522      1.0  0.50359  0.90495  0.69256  1.0000
  C   C434      1.0  0.60992  0.68893  0.69529  1.0000
  H   H523      1.0  0.59632  0.54675  0.55344  1.0000
  H   H524      1.0  0.51083  0.57816  0.96624  1.0000
  H   H525      1.0  0.62674  0.74754  0.59868  1.0000
  H   H526      1.0  0.58548  0.93743  0.68533  1.0000
  C   C435      1.0  0.60412  0.64050  0.73459  1.0000
  H   H527      1.0  0.53356  0.51702  0.83489  1.0000
  N   N28       1.0  0.37736  0.64301  0.70556  1.0000
  C   C436      1.0  0.35935  0.63052  0.72165  1.0000
  C   C437      1.0  0.37931  0.62457  0.67324  1.0000
  C   C438      1.0  0.39335  0.63152  0.72614  1.0000
  C   C439      1.0  0.37722  0.68248  0.70250  1.0000
  C   C440      1.0  0.37804  0.70068  0.67141  1.0000
  C   C441      1.0  0.37539  0.70395  0.73123  1.0000
  C   C442      1.0  0.37681  0.73789  0.66947  1.0000
  C   C443      1.0  0.37401  0.74115  0.72894  1.0000
  C   C444      1.0  0.37456  0.75805  0.69807  1.0000
  H   H528      1.0  0.34697  0.64040  0.70784  1.0000
  H   H529      1.0  0.35834  0.60078  0.72267  1.0000
  H   H530      1.0  0.35775  0.63975  0.74761  1.0000
  H   H531      1.0  0.36716  0.63033  0.65709  1.0000
  H   H532      1.0  0.37964  0.59499  0.67639  1.0000
  H   H533      1.0  0.39267  0.63237  0.65977  1.0000
  H   H534      1.0  0.39215  0.64138  0.75195  1.0000
  S   S123      1.0  0.61972  0.98257  0.69426  1.0000
  C   C445      1.0  0.33039  0.70934  0.64604  1.0000
  H   H535      1.0  0.38256  0.96624  0.72848  1.0000
  S   S124      1.0  0.65015  0.50716  0.61247  1.0000
  H   H536      1.0  0.37297  0.78678  0.69619  1.0000
  C   C446      1.0  0.60458  0.52659  0.56717  1.0000
  H   H537      1.0  0.49049  0.89808  0.75190  1.0000
  C   C447      1.0  0.48996  0.92776  0.75154  1.0000
  C   C448      1.0  0.56733  0.50825  0.69315  1.0000
  C   C449      1.0  0.33961  0.52011  0.49382  1.0000
  C   C450      1.0  0.40637  0.50677  0.69138  1.0000
  H   H538      1.0  0.62835  0.95571  0.52092  1.0000
  C   C451      1.0  0.45051  0.92713  0.72830  1.0000
  C   C452      1.0  0.64508  0.70966  0.62220  1.0000
  N   N29       1.0  0.48506  0.94146  0.71823  1.0000
  C   C453      1.0  0.56294  0.96244  0.71400  1.0000
  C   C454      1.0  0.43135  0.89875  0.68695  1.0000
  C   C455      1.0  0.63874  0.74438  0.61452  1.0000
  C   C456      1.0  0.48049  0.51800  0.96411  1.0000
  C   C457      1.0  0.54003  0.52489  0.91915  1.0000
  S   S125      1.0  0.63809  0.81802  0.61856  1.0000
  C   C458      1.0  0.53061  0.52746  0.86029  1.0000
  H   H539      1.0  0.56120  0.51644  0.67006  1.0000
  H   H540      1.0  0.62886  0.64085  0.66170  1.0000
  C   C459      1.0  0.34860  0.95612  0.49080  1.0000
  C   C460      1.0  0.46698  0.92532  0.70757  1.0000
  H   H541      1.0  0.56242  0.49348  0.94117  1.0000
  H   H542      1.0  0.59345  0.63972  0.65322  1.0000
  C   C461      1.0  0.55531  0.49416  0.71885  1.0000
  C   C462      1.0  0.43306  0.91374  0.71817  1.0000
  H   H543      1.0  0.62304  0.60208  0.68694  1.0000
  H   H544      1.0  0.42063  0.91620  0.73424  1.0000
  C   C463      1.0  0.62486  0.63167  0.68722  1.0000
  C   C464      1.0  0.41711  0.49460  0.75705  1.0000
  C   C465      1.0  0.48829  0.95738  0.97406  1.0000
  C   C466      1.0  0.59142  0.63472  0.68032  1.0000
  C   C467      1.0  0.62523  0.70684  0.71052  1.0000
  H   H545      1.0  0.38874  0.51151  0.77007  1.0000
  N   N30       1.0  0.59601  0.49027  0.56508  1.0000
  H   H546      1.0  0.40902  0.97188  0.49846  1.0000
  C   C468      1.0  0.39315  0.51300  0.71704  1.0000
  H   H547      1.0  0.51580  0.55951  0.90950  1.0000
  H   H548      1.0  0.49962  0.94676  0.67070  1.0000
  C   C469      1.0  0.52235  0.56029  0.96024  1.0000
  H   H549      1.0  0.56604  0.54970  0.87510  1.0000
  H   H550      1.0  0.59141  0.65432  0.74474  1.0000
  H   H551      1.0  0.60501  0.53598  0.59320  1.0000
  S   S126      1.0  0.33105  0.50179  0.64034  1.0000
  C   C470      1.0  0.58171  0.95952  0.70118  1.0000
  H   H552      1.0  0.45080  0.94018  0.75211  1.0000
  C   C471      1.0  0.39875  0.50689  0.74990  1.0000
  N   N31       1.0  0.54345  0.51183  0.88500  1.0000
  H   H553      1.0  0.51553  0.52055  0.86624  1.0000
  H   H554      1.0  0.38704  0.96172  0.58472  1.0000
  H   H555      1.0  0.48289  0.93032  0.97245  1.0000
  H   H556      1.0  0.57666  0.50264  0.60543  1.0000
  H   H557      1.0  0.47976  0.93621  0.77125  1.0000
  C   C472      1.0  0.60145  0.49721  0.50263  1.0000
  C   C473      1.0  0.63575  0.96936  0.50064  1.0000
  S   S127      1.0  0.49481  0.49005  0.80590  1.0000
  H   H558      1.0  0.48640  0.96734  0.92115  1.0000
  H   H559      1.0  0.37220  0.97010  0.55015  1.0000
  C   C474      1.0  0.40227  0.98286  0.68980  1.0000
  H   H560      1.0  0.40340  0.98447  0.77439  1.0000
  H   H561      1.0  0.43472  0.48966  0.67836  1.0000
  H   H562      1.0  0.54023  0.49171  0.71524  1.0000
  C   C475      1.0  0.38706  0.97057  0.55833  1.0000
  H   H563      1.0  0.57381  0.50668  0.88896  1.0000
  C   C476      1.0  0.49025  0.97841  0.94474  1.0000
  C   C477      1.0  0.57659  0.49186  0.57972  1.0000
  S   S128      1.0  0.31959  0.56806  0.59011  1.0000
  C   C478      1.0  0.53334  0.54693  0.98556  1.0000
  C   C479      1.0  0.43033  0.48828  0.73139  1.0000
  H   H564      1.0  0.42101  0.48995  0.78245  1.0000
  S   S129      1.0  0.48323  0.48904  0.90110  1.0000
  Fe  Fe69      1.0  0.67842  0.01849  0.32374  1.0000
  C   C480      1.0  0.84867  0.25543  0.48145  1.0000
  S   S130      1.0  0.66774  0.05525  0.36344  1.0000
  C   C481      1.0  0.85716  0.48397  0.48415  1.0000
  Fe  Fe70      1.0  0.67451  0.42014  0.31572  1.0000
  S   S131      1.0  0.70662  0.42499  0.30684  1.0000
  S   S132      1.0  0.66486  0.37932  0.35399  1.0000
  C   C482      1.0  0.97191  0.23456  0.12943  1.0000
  C   C483      1.0  0.84553  0.29202  0.48563  1.0000
  S   S133      1.0  0.96937  0.06459  0.10967  1.0000
  S   S134      1.0  0.66823  0.05427  0.28265  1.0000
  H   H565      1.0  0.94804  0.07653  0.19860  1.0000
  Fe  Fe71      1.0  0.97198  0.02895  0.15464  1.0000
  H   H566      1.0  0.71510  0.07336  0.34376  1.0000
  H   H567      1.0  0.94013  0.11728  0.13403  1.0000
  S   S135      1.0  0.97079  0.41065  0.11959  1.0000
  Fe  Fe72      1.0  0.96573  0.44974  0.16189  1.0000
  H   H568      1.0  0.70200  0.41330  0.46743  1.0000
  H   H569      1.0  0.87689  0.03476  0.20113  1.0000
  H   H570      1.0  0.70966  0.46378  0.22851  1.0000
  C   C484      1.0  0.90922  0.10833  0.23725  1.0000
  H   H571      1.0  0.70098  0.13978  0.28277  1.0000
  H   H572      1.0  0.91818  0.12800  0.24876  1.0000
  H   H573      1.0  0.67826  0.00825  0.48079  1.0000
  H   H574      1.0  0.96767  0.45712  0.01378  1.0000
  H   H575      1.0  0.94882  0.47704  0.10372  1.0000
  H   H576      1.0  0.93748  0.46894  0.24356  1.0000
  C   C485      1.0  0.94611  0.10604  0.19826  1.0000
  H   H577      1.0  0.91415  0.48434  0.28824  1.0000
  C   C486      1.0  0.88329  0.06585  0.24390  1.0000
  C   C487      1.0  0.75889  0.47250  0.29999  1.0000
  H   H578      1.0  0.96777  0.29184  0.12615  1.0000
  C   C488      1.0  0.69436  0.43197  0.45106  1.0000
  H   H579      1.0  0.67500  0.13060  0.44558  1.0000
  H   H580      1.0  0.92767  0.16660  0.20832  1.0000
  Fe  Fe73      1.0  0.65620  0.08984  0.32301  1.0000
  H   H581      1.0  0.94633  0.47467  0.05969  1.0000
  H   H582      1.0  0.91509  0.10977  0.13578  1.0000
  C   C489      1.0  0.65617  0.19091  0.32476  1.0000
  C   C490      1.0  0.92842  0.99552  0.20616  1.0000
  H   H583      1.0  0.91201  0.16299  0.17400  1.0000
  H   H584      1.0  0.94735  0.11557  0.22409  1.0000
  H   H585      1.0  0.93121  0.07441  0.14657  1.0000
  H   H586      1.0  0.67931  0.21838  0.34792  1.0000
  H   H587      1.0  0.74693  0.41917  0.30109  1.0000
  H   H588      1.0  0.87268  0.05246  0.25959  1.0000
  S   S136      1.0  0.97647  0.16119  0.13231  1.0000
  C   C491      1.0  0.74893  0.47989  0.46120  1.0000
  N   N32       1.0  0.92780  0.11538  0.18357  1.0000
  S   S137      1.0  0.70689  0.99549  0.33941  1.0000
  S   S138      1.0  0.66589  0.14781  0.33248  1.0000
  H   H589      1.0  0.77675  0.04669  0.33690  1.0000
  C   C492      1.0  0.91218  0.09866  0.20357  1.0000
  H   H590      1.0  0.71864  0.38871  0.41674  1.0000
  C   C493      1.0  0.92384  0.47948  0.23722  1.0000
  H   H591      1.0  0.65847  0.46156  0.23383  1.0000
  C   C494      1.0  0.91951  0.00576  0.26408  1.0000
  C   C495      1.0  0.73541  0.46877  0.39774  1.0000
  H   H592      1.0  0.77391  0.07597  0.23454  1.0000
  C   C496      1.0  0.72493  0.45833  0.30599  1.0000
  H   H593      1.0  0.95916  0.22820  0.11630  1.0000
  H   H594      1.0  0.95823  0.11825  0.18392  1.0000
  C   C497      1.0  0.92601  0.15487  0.18337  1.0000
  H   H595      1.0  0.69092  0.45682  0.46487  1.0000
  H   H596      1.0  0.71488  0.40963  0.37735  1.0000
  H   H597      1.0  0.66221  0.01857  0.42782  1.0000
  C   C498      1.0  0.85543  0.01218  0.47326  1.0000
  H   H598      1.0  0.85475  0.36555  0.48456  1.0000
  H   H599      1.0  0.68069  0.45542  0.25332  1.0000
  C   C499      1.0  0.92846  0.10361  0.14849  1.0000
  S   S139      1.0  0.98544  0.42080  0.19599  1.0000
  N   N33       1.0  0.70530  0.44000  0.41991  1.0000
  C   C500      1.0  0.90000  0.07170  0.19099  1.0000
  C   C501      1.0  0.97678  0.27083  0.13493  1.0000
  H   H600      1.0  0.66702  0.27938  0.33783  1.0000
  H   H601      1.0  0.74682  0.07628  0.34881  1.0000
  H   H602      1.0  0.71188  0.10695  0.25715  1.0000
  C   C502      1.0  0.73424  0.99092  0.28837  1.0000
  H   H603      1.0  0.70897  0.06157  0.30254  1.0000
  H   H604      1.0  0.72385  0.14924  0.26472  1.0000
  H   H605      1.0  0.93721  0.16794  0.16726  1.0000
  C   C503      1.0  0.70870  0.40566  0.40278  1.0000
  H   H606      1.0  0.72354  0.00004  0.27169  1.0000
  H   H607      1.0  0.79040  0.04605  0.28014  1.0000
  H   H608      1.0  0.69626  0.09588  0.32441  1.0000
  H   H609      1.0  0.73146  0.13011  0.35421  1.0000
  S   S140      1.0  0.94398  0.00043  0.17071  1.0000
  H   H610      1.0  0.89333  0.09910  0.28292  1.0000
  C   C504      1.0  0.98344  0.20653  0.14041  1.0000
  H   H611      1.0  0.85518  0.98978  0.42398  1.0000
  H   H612      1.0  0.74411  0.10597  0.24456  1.0000
  H   H613      1.0  0.71277  0.15422  0.33572  1.0000
  C   C505      1.0  0.74385  0.44737  0.30254  1.0000
  C   C506      1.0  0.88571  0.05587  0.21094  1.0000
  H   H614      1.0  0.98279  0.23300  0.02631  1.0000
  N   N34       1.0  0.72392  0.11162  0.30558  1.0000
  C   C507      1.0  0.72640  0.14044  0.33016  1.0000
  C   C508      1.0  0.71490  0.12756  0.27613  1.0000
  C   C509      1.0  0.71053  0.08451  0.31970  1.0000
  C   C510      1.0  0.74236  0.09467  0.29810  1.0000
  C   C511      1.0  0.75071  0.09399  0.26568  1.0000
  C   C512      1.0  0.75241  0.07753  0.32368  1.0000
  C   C513      1.0  0.76793  0.07689  0.25950  1.0000
  C   C514      1.0  0.76961  0.06060  0.31720  1.0000
  C   C515      1.0  0.77734  0.06020  0.28517  1.0000
  H   H615      1.0  0.73683  0.16091  0.32086  1.0000
  C   C516      1.0  0.69324  0.46263  0.39890  1.0000
  C   C517      1.0  0.72372  0.45815  0.42526  1.0000
  C   C518      1.0  0.66609  0.22150  0.33534  1.0000
  C   C519      1.0  0.97816  0.46879  0.99697  1.0000
  H   H616      1.0  0.84865  0.30904  0.46445  1.0000
  C   C520      1.0  0.89502  0.09203  0.25704  1.0000
  H   H617      1.0  0.90152  0.06158  0.16612  1.0000
  H   H618      1.0  0.86539  0.03330  0.46640  1.0000
  H   H619      1.0  0.83045  0.36000  0.47159  1.0000
  H   H620      1.0  0.66912  0.08748  0.42942  1.0000
  H   H621      1.0  0.67890  0.45050  0.39605  1.0000
  C   C521      1.0  0.91946  0.48407  0.20378  1.0000
  C   C522      1.0  0.67386  0.46833  0.23177  1.0000
  C   C523      1.0  0.66514  0.11620  0.42923  1.0000
  C   C524      1.0  0.65915  0.25624  0.32965  1.0000
  C   C525      1.0  0.73099  0.46436  0.45732  1.0000
  H   H622      1.0  0.67930  0.45576  0.20860  1.0000
  S   S141      1.0  0.65437  0.39816  0.27820  1.0000
  H   H623      1.0  0.68052  0.41864  0.44603  1.0000
  H   H624      1.0  0.69535  0.39005  0.39992  1.0000
  H   H625      1.0  0.77327  0.46351  0.29611  1.0000
  H   H626      1.0  0.66808  0.12700  0.40377  1.0000
  H   H627      1.0  0.73103  0.46433  0.37269  1.0000
  C   C526      1.0  0.93239  0.01039  0.23697  1.0000
  H   H628      1.0  0.80255  0.47443  0.48550  1.0000
  H   H629      1.0  0.85395  0.24554  0.45784  1.0000
  H   H630      1.0  0.94542  0.02530  0.24002  1.0000
  H   H631      1.0  0.72323  0.45701  0.47975  1.0000
  S   S142      1.0  0.93567  0.47350  0.17017  1.0000
  H   H632      1.0  0.69921  0.46630  0.37334  1.0000
  H   H633      1.0  0.74240  0.48313  0.22493  1.0000
  H   H634      1.0  0.92279  0.01746  0.28771  1.0000
  C   C527      1.0  0.66384  0.99898  0.47801  1.0000
  S   S143      1.0  0.65455  0.46281  0.33299  1.0000
  C   C528      1.0  0.81781  0.47727  0.48509  1.0000
  H   H635      1.0  0.98596  0.35044  0.04990  1.0000
  C   C529      1.0  0.65474  0.00497  0.44793  1.0000
  C   C530      1.0  0.75320  0.48462  0.40190  1.0000
  H   H636      1.0  0.87243  0.48637  0.48359  1.0000
  H   H637      1.0  0.96850  0.48767  0.07678  1.0000
  H   H638      1.0  0.75449  0.48376  0.48572  1.0000
  H   H639      1.0  0.82051  0.45760  0.53513  1.0000
  Fe  Fe74      1.0  0.84374  0.04872  0.58727  1.0000
  C   C531      1.0  0.84769  0.35666  0.54912  1.0000
  S   S144      1.0  0.85659  0.04075  0.53564  1.0000
  Fe  Fe75      1.0  0.83946  0.10803  0.63979  1.0000
  S   S145      1.0  0.82704  0.06861  0.67732  1.0000
  S   S146      1.0  0.84957  0.16453  0.65377  1.0000
  Fe  Fe76      1.0  0.85015  0.03095  0.66022  1.0000
  C   C532      1.0  0.74011  0.01762  0.63599  1.0000
  Fe  Fe77      1.0  0.80971  0.04678  0.63533  1.0000
  H   H640      1.0  0.94223  0.44436  0.82928  1.0000
  S   S147      1.0  0.86328  0.07133  0.62529  1.0000
  S   S148      1.0  0.82107  0.08864  0.59882  1.0000
  Fe  Fe78      1.0  0.81384  0.45473  0.64655  1.0000
  S   S149      1.0  0.81589  0.41965  0.60173  1.0000
  H   H641      1.0  0.81219  0.37869  0.53533  1.0000
  Fe  Fe79      1.0  0.85444  0.43509  0.66883  1.0000
  S   S150      1.0  0.85835  0.39809  0.62541  1.0000
  S   S151      1.0  0.88062  0.43622  0.70220  1.0000
  Fe  Fe80      1.0  0.84539  0.44153  0.59516  1.0000
  H   H642      1.0  0.84603  0.38576  0.55354  1.0000
  Fe  Fe81      1.0  0.82864  0.37859  0.63577  1.0000
  S   S152      1.0  0.81758  0.32161  0.62687  1.0000
  S   S153      1.0  0.82503  0.41263  0.68154  1.0000
  N   N35       1.0  0.83542  0.34413  0.52218  1.0000
  H   H643      1.0  0.67806  0.02855  0.78902  1.0000
  S   S154      1.0  0.83169  0.00586  0.62120  1.0000
  C   C533      1.0  0.81535  0.34979  0.53232  1.0000
  C   C534      1.0  0.84043  0.20792  0.64572  1.0000
  C   C535      1.0  0.85096  0.23822  0.65522  1.0000
  C   C536      1.0  0.84425  0.27315  0.64980  1.0000
  C   C537      1.0  0.82677  0.27826  0.63502  1.0000
  C   C538      1.0  0.81627  0.24796  0.62541  1.0000
  C   C539      1.0  0.82305  0.21305  0.63061  1.0000
  H   H644      1.0  0.86442  0.23468  0.66692  1.0000
  H   H645      1.0  0.85253  0.29607  0.65728  1.0000
  H   H646      1.0  0.80274  0.25151  0.61394  1.0000
  H   H647      1.0  0.81472  0.19013  0.62326  1.0000
  H   H648      1.0  0.81161  0.33697  0.55662  1.0000
  C   C540      1.0  0.91444  0.45370  0.73146  1.0000
  C   C541      1.0  0.89831  0.46712  0.71595  1.0000
  H   H649      1.0  0.92675  0.48102  0.56647  1.0000
  H   H650      1.0  0.91602  0.42512  0.73400  1.0000
  H   H651      1.0  0.86616  0.45965  0.77531  1.0000
  C   C542      1.0  0.92456  0.47331  0.88317  1.0000
  C   C543      1.0  0.93425  0.46410  0.64980  1.0000
  S   S155      1.0  0.84298  0.47953  0.63767  1.0000
  H   H652      1.0  0.93671  0.02427  0.68783  1.0000
  H   H653      1.0  0.65970  0.05092  0.74095  1.0000
  C   C544      1.0  0.73517  0.45863  0.64375  1.0000
  C   C545      1.0  0.75514  0.45967  0.64528  1.0000
  H   H654      1.0  0.94096  0.46576  0.75493  1.0000
  H   H655      1.0  0.72804  0.43352  0.63895  1.0000
  H   H656      1.0  0.76319  0.43552  0.64176  1.0000
  H   H657      1.0  0.84763  0.20317  0.50430  1.0000
  H   H658      1.0  0.65929  0.09424  0.54955  1.0000
  H   H659      1.0  0.88368  0.41092  0.80165  1.0000
  C   C546      1.0  0.88795  0.43841  0.80582  1.0000
  C   C547      1.0  0.87799  0.46586  0.79102  1.0000
  N   N36       1.0  0.88689  0.11631  0.71995  1.0000
  C   C548      1.0  0.86755  0.10029  0.72115  1.0000
  C   C549      1.0  0.88532  0.15373  0.73143  1.0000
  C   C550      1.0  0.89356  0.11669  0.68481  1.0000
  C   C551      1.0  0.90055  0.09675  0.74040  1.0000
  C   C552      1.0  0.91977  0.10827  0.74126  1.0000
  C   C553      1.0  0.89547  0.06578  0.75943  1.0000
  C   C554      1.0  0.93312  0.08948  0.75930  1.0000
  C   C555      1.0  0.90889  0.04755  0.77777  1.0000
  C   C556      1.0  0.92770  0.05910  0.77741  1.0000
  H   H660      1.0  0.86133  0.10003  0.74672  1.0000
  H   H661      1.0  0.85761  0.11567  0.70568  1.0000
  H   H662      1.0  0.86751  0.07252  0.71147  1.0000
  H   H663      1.0  0.88081  0.15463  0.75802  1.0000
  H   H664      1.0  0.87471  0.16881  0.71696  1.0000
  H   H665      1.0  0.89889  0.16883  0.72856  1.0000
  H   H666      1.0  0.89537  0.08907  0.67551  1.0000
  H   H667      1.0  0.88334  0.13016  0.66847  1.0000
  H   H668      1.0  0.90725  0.13116  0.68101  1.0000
  H   H669      1.0  0.92469  0.13157  0.72749  1.0000
  H   H670      1.0  0.88135  0.05435  0.75987  1.0000
  H   H671      1.0  0.91118  0.42391  0.83531  1.0000
  C   C557      1.0  0.83512  0.28039  0.54230  1.0000
  H   H672      1.0  0.94783  0.09805  0.75886  1.0000
  H   H673      1.0  0.80557  0.33869  0.51371  1.0000
  H   H674      1.0  0.71391  0.09264  0.68708  1.0000
  C   C558      1.0  0.69599  0.05282  0.71146  1.0000
  H   H675      1.0  0.82989  0.28872  0.56631  1.0000
  H   H676      1.0  0.84428  0.34307  0.57316  1.0000
  H   H677      1.0  0.74375  0.06259  0.70039  1.0000
  C   C559      1.0  0.90668  0.01235  0.69065  1.0000
  C   C560      1.0  0.71342  0.06799  0.70136  1.0000
  H   H678      1.0  0.91143  0.48299  0.89574  1.0000
  C   C561      1.0  0.73028  0.05124  0.70899  1.0000
  C   C562      1.0  0.92857  0.47681  0.74378  1.0000
  H   H679      1.0  0.95673  0.47756  0.84792  1.0000
  C   C563      1.0  0.94920  0.47387  0.67010  1.0000
  H   H680      1.0  0.88180  0.00133  0.62690  1.0000
  C   C564      1.0  0.72980  0.01911  0.72658  1.0000
  C   C565      1.0  0.83866  0.30562  0.51641  1.0000
  C   C566      1.0  0.83836  0.24397  0.53793  1.0000
  C   C567      1.0  0.82796  0.46766  0.51324  1.0000
  H   H681      1.0  0.90344  0.02950  0.67002  1.0000
  C   C568      1.0  0.71249  0.00371  0.73683  1.0000
  H   H682      1.0  0.83705  0.39585  0.49795  1.0000
  H   H683      1.0  0.73726  0.04267  0.62365  1.0000
  C   C569      1.0  0.94380  0.47357  0.83310  1.0000
  H   H684      1.0  0.92383  0.44367  0.88259  1.0000
  C   C570      1.0  0.69502  0.02015  0.72973  1.0000
  S   S156      1.0  0.86091  0.45740  0.54730  1.0000
  C   C571      1.0  0.65988  0.02330  0.73104  1.0000
  H   H685      1.0  0.68351  0.06702  0.70433  1.0000
  H   H686      1.0  0.93678  0.48008  0.89911  1.0000
  H   H687      1.0  0.89214  0.43610  0.59183  1.0000
  H   H688      1.0  0.91638  0.42661  0.59924  1.0000
  H   H689      1.0  0.74294  0.00553  0.73142  1.0000
  S   S157      1.0  0.69923  0.48683  0.64485  1.0000
  C   C572      1.0  0.92565  0.00905  0.70068  1.0000
  C   C573      1.0  0.91001  0.48194  0.82972  1.0000
  H   H690      1.0  0.66396  0.12798  0.49787  1.0000
  C   C574      1.0  0.84512  0.23148  0.50755  1.0000
  N   N37       1.0  0.67689  0.00349  0.74140  1.0000
  H   H691      1.0  0.90484  0.02345  0.79139  1.0000
  C   C575      1.0  0.90370  0.44620  0.82494  1.0000
  H   H692      1.0  0.86289  0.35191  0.54308  1.0000
  H   H693      1.0  0.65886  0.02432  0.70353  1.0000
  H   H694      1.0  0.95872  0.47438  0.95674  1.0000
  S   S158      1.0  0.77717  0.04129  0.63377  1.0000
  C   C576      1.0  0.83961  0.36711  0.49265  1.0000
  C   C577      1.0  0.84769  0.47083  0.51283  1.0000
  C   C578      1.0  0.84836  0.00978  0.50608  1.0000
  H   H695      1.0  0.89526  0.00498  0.58872  1.0000
  C   C579      1.0  0.75886  0.00962  0.64426  1.0000
  H   H696      1.0  0.93072  0.43599  0.64917  1.0000
  H   H697      1.0  0.78633  0.00517  0.54269  1.0000
  C   C580      1.0  0.67638  0.00150  0.77811  1.0000
  H   H698      1.0  0.93818  0.04392  0.79057  1.0000
  C   C581      1.0  0.97314  0.47852  0.96436  1.0000
  H   H699      1.0  0.89957  0.43149  0.63358  1.0000
  H   H700      1.0  0.83567  0.22538  0.55836  1.0000
  C   C582      1.0  0.90405  0.44204  0.60863  1.0000
  N   N38       1.0  0.90838  0.48095  0.60972  1.0000
  S   S159      1.0  0.86766  0.99683  0.69619  1.0000
  H   H701      1.0  0.95652  0.45368  0.68410  1.0000
  H   H702      1.0  0.71065  0.00063  0.63764  1.0000
  H   H703      1.0  0.72521  0.00270  0.57412  1.0000
  C   C583      1.0  0.89208  0.99318  0.70711  1.0000
  H   H704      1.0  0.87038  0.99805  0.58768  1.0000
  C   C584      1.0  0.72497  0.99380  0.64386  1.0000
  H   H705      1.0  0.66273  0.98979  0.78779  1.0000
  C   C585      1.0  0.88324  0.99061  0.60136  1.0000
  H   H706      1.0  0.90198  0.48520  0.55781  1.0000
  H   H707      1.0  0.75658  0.99031  0.57142  1.0000
  H   H708      1.0  0.71198  0.00143  0.53687  1.0000
  C   C586      1.0  0.77553  0.99015  0.52984  1.0000
  H   H709      1.0  0.94658  0.48619  0.80840  1.0000
  Fe  Fe82      1.0  0.81577  0.94293  0.30842  1.0000
  S   S160      1.0  0.81491  0.89657  0.34395  1.0000
  S   S161      1.0  0.82200  0.49910  0.32578  1.0000
  Fe  Fe83      1.0  0.85948  0.94987  0.31074  1.0000
  S   S162      1.0  0.86121  0.90393  0.34725  1.0000
  C   C587      1.0  0.91885  0.71056  0.29967  1.0000
  Fe  Fe84      1.0  0.84008  0.87527  0.31571  1.0000
  S   S163      1.0  0.84270  0.81936  0.29286  1.0000
  Fe  Fe85      1.0  0.83596  0.92868  0.37303  1.0000
  S   S164      1.0  0.82979  0.92743  0.42873  1.0000
  S   S165      1.0  0.83979  0.91991  0.27771  1.0000
  C   C588      1.0  0.84695  0.49428  0.45616  1.0000
  Fe  Fe86      1.0  0.84704  0.53353  0.30782  1.0000
  S   S166      1.0  0.84951  0.56071  0.35758  1.0000
  C   C589      1.0  0.75997  0.49001  0.43357  1.0000
  Fe  Fe87      1.0  0.80347  0.54417  0.30921  1.0000
  S   S167      1.0  0.80430  0.57285  0.35761  1.0000
  S   S168      1.0  0.77321  0.54137  0.28942  1.0000
  Fe  Fe88      1.0  0.82997  0.60239  0.33743  1.0000
  S   S169      1.0  0.83455  0.66074  0.35351  1.0000
  Fe  Fe89      1.0  0.82360  0.52927  0.37369  1.0000
  H   H710      1.0  0.69131  0.48956  0.40992  1.0000
  S   S170      1.0  0.82826  0.57687  0.28713  1.0000
  C   C590      1.0  0.82721  0.49095  0.45657  1.0000
  C   C591      1.0  0.83987  0.77553  0.31019  1.0000
  C   C592      1.0  0.84049  0.74580  0.28899  1.0000
  C   C593      1.0  0.83853  0.71054  0.30157  1.0000
  C   C594      1.0  0.83614  0.70451  0.33568  1.0000
  C   C595      1.0  0.83563  0.73426  0.35685  1.0000
  C   C596      1.0  0.83730  0.76951  0.34424  1.0000
  H   H711      1.0  0.84241  0.75004  0.26259  1.0000
  H   H712      1.0  0.83900  0.68806  0.28491  1.0000
  H   H713      1.0  0.83382  0.72999  0.38329  1.0000
  H   H714      1.0  0.83672  0.79196  0.36094  1.0000
  C   C597      1.0  0.77365  0.56259  0.48491  1.0000
  C   C598      1.0  0.95646  0.54776  0.10579  1.0000
  H   H715      1.0  0.97213  0.54599  0.10396  1.0000
  H   H716      1.0  0.74064  0.97110  0.36949  1.0000
  C   C599      1.0  0.83700  0.95987  0.45780  1.0000
  H   H717      1.0  0.92074  0.55627  0.08650  1.0000
  C   C600      1.0  0.73131  0.50295  0.22466  1.0000
  H   H718      1.0  0.77392  0.50175  0.43661  1.0000
  H   H719      1.0  0.65362  0.55072  0.45192  1.0000
  H   H720      1.0  0.77492  0.57277  0.45969  1.0000
  H   H721      1.0  0.90317  0.57252  0.27534  1.0000
  N   N39       1.0  0.67721  0.50757  0.23142  1.0000
  H   H722      1.0  0.72612  0.59280  0.22520  1.0000
  C   C601      1.0  0.88655  0.67832  0.32818  1.0000
  S   S171      1.0  0.87633  0.51300  0.28874  1.0000
  H   H723      1.0  0.88070  0.72986  0.34886  1.0000
  C   C602      1.0  0.72129  0.49495  0.30812  1.0000
  C   C603      1.0  0.66908  0.52183  0.26278  1.0000
  S   S172      1.0  0.83540  0.97653  0.33893  1.0000
  C   C604      1.0  0.73633  0.52015  0.30483  1.0000
  C   C605      1.0  0.97721  0.55998  0.00503  1.0000
  C   C606      1.0  0.89039  0.71446  0.33356  1.0000
  H   H724      1.0  0.73326  0.54839  0.30477  1.0000
  H   H725      1.0  0.93149  0.72309  0.28887  1.0000
  H   H726      1.0  0.87399  0.66697  0.34012  1.0000
  H   H727      1.0  0.88905  0.82745  0.40498  1.0000
  N   N40       1.0  0.94693  0.52806  0.07898  1.0000
  H   H728      1.0  0.90803  0.60165  0.34606  1.0000
  N   N41       1.0  0.77657  0.84885  0.27817  1.0000
  C   C607      1.0  0.79582  0.86058  0.26683  1.0000
  C   C608      1.0  0.76290  0.86488  0.25510  1.0000
  C   C609      1.0  0.77247  0.86365  0.31151  1.0000
  C   C610      1.0  0.77565  0.80931  0.27997  1.0000
  C   C611      1.0  0.76198  0.78866  0.26297  1.0000
  C   C612      1.0  0.78866  0.79026  0.29954  1.0000
  H   H729      1.0  0.97412  0.97399  0.02012  1.0000
  C   C613      1.0  0.78816  0.75298  0.30169  1.0000
  C   C614      1.0  0.77468  0.73352  0.28459  1.0000
  H   H730      1.0  0.80682  0.85373  0.28483  1.0000
  H   H731      1.0  0.79994  0.84791  0.24292  1.0000
  H   H732      1.0  0.79683  0.89007  0.26326  1.0000
  H   H733      1.0  0.76533  0.85540  0.22931  1.0000
  H   H734      1.0  0.76429  0.89466  0.25432  1.0000
  H   H735      1.0  0.74798  0.85898  0.26302  1.0000
  H   H736      1.0  0.78227  0.85350  0.33039  1.0000
  H   H737      1.0  0.77378  0.89336  0.31153  1.0000
  H   H738      1.0  0.89780  0.50159  0.17084  1.0000
  H   H739      1.0  0.75144  0.80068  0.24769  1.0000
  H   H740      1.0  0.79942  0.80404  0.31336  1.0000
  H   H741      1.0  0.95280  0.57657  0.10533  1.0000
  H   H742      1.0  0.79832  0.73908  0.31671  1.0000
  H   H743      1.0  0.85431  0.50465  0.43426  1.0000
  C   C615      1.0  0.89400  0.59939  0.33428  1.0000
  C   C616      1.0  0.92625  0.52856  0.08664  1.0000
  C   C617      1.0  0.75522  0.50914  0.30029  1.0000
  H   H744      1.0  0.76194  0.49231  0.38041  1.0000
  H   H745      1.0  0.92288  0.51710  0.11178  1.0000
  C   C618      1.0  0.76232  0.96702  0.33114  1.0000
  C   C619      1.0  0.69752  0.51777  0.22824  1.0000
  H   H746      1.0  0.87449  0.51698  0.21550  1.0000
  C   C620      1.0  0.93882  0.55494  0.02290  1.0000
  H   H747      1.0  0.90958  0.75851  0.32395  1.0000
  C   C621      1.0  0.89848  0.97136  0.23015  1.0000
  H   H748      1.0  0.77304  0.95808  0.34789  1.0000
  H   H749      1.0  0.98286  0.53784  0.05224  1.0000
  C   C622      1.0  0.90732  0.60101  0.27915  1.0000
  C   C623      1.0  0.95234  0.54384  0.04629  1.0000
  H   H750      1.0  0.95236  0.53678  0.13078  1.0000
  H   H751      1.0  0.75786  0.85647  0.32035  1.0000
  H   H752      1.0  0.87504  0.79678  0.35723  1.0000
  S   S173      1.0  0.81351  0.50352  0.42245  1.0000
  C   C624      1.0  0.73624  0.53907  0.22400  1.0000
  C   C625      1.0  0.76161  0.75130  0.26533  1.0000
  H   H753      1.0  0.88533  0.95685  0.22702  1.0000
  H   H754      1.0  0.92378  0.55348  0.02806  1.0000
  S   S174      1.0  0.78980  0.96234  0.28073  1.0000
  H   H755      1.0  0.67275  0.51351  0.17917  1.0000
  C   C626      1.0  0.72215  0.56474  0.22518  1.0000
  H   H756      1.0  0.92189  0.60042  0.28897  1.0000
  C   C627      1.0  0.76679  0.97127  0.29740  1.0000
  H   H757      1.0  0.73769  0.93647  0.48254  1.0000
  H   H758      1.0  0.87365  0.63242  0.26524  1.0000
  H   H759      1.0  0.70691  0.50396  0.31111  1.0000
  C   C628      1.0  0.70306  0.55437  0.22718  1.0000
  H   H760      1.0  0.89081  0.57038  0.33100  1.0000
  C   C629      1.0  0.89859  0.65720  0.30787  1.0000
  H   H761      1.0  0.92510  0.66048  0.27830  1.0000
  N   N42       1.0  0.90660  0.87079  0.27984  1.0000
  C   C630      1.0  0.91402  0.84087  0.25964  1.0000
  C   C631      1.0  0.88880  0.88340  0.26519  1.0000
  C   C632      1.0  0.92067  0.90059  0.27725  1.0000
  C   C633      1.0  0.90264  0.85849  0.31432  1.0000
  C   C634      1.0  0.91048  0.87551  0.34235  1.0000
  C   C635      1.0  0.89004  0.82927  0.32072  1.0000
  C   C636      1.0  0.90574  0.86402  0.37460  1.0000
  C   C637      1.0  0.88530  0.81821  0.35304  1.0000
  C   C638      1.0  0.89312  0.83556  0.37994  1.0000
  H   H762      1.0  0.90335  0.81911  0.25675  1.0000
  H   H763      1.0  0.91814  0.84985  0.23406  1.0000
  H   H764      1.0  0.92674  0.82916  0.27105  1.0000
  H   H765      1.0  0.87759  0.86227  0.26487  1.0000
  H   H766      1.0  0.89109  0.89278  0.23916  1.0000
  H   H767      1.0  0.88293  0.90616  0.27953  1.0000
  H   H768      1.0  0.91564  0.92463  0.29077  1.0000
  H   H769      1.0  0.93460  0.89278  0.28714  1.0000
  H   H770      1.0  0.92323  0.90957  0.25110  1.0000
  H   H771      1.0  0.91992  0.89835  0.34017  1.0000
  H   H772      1.0  0.88317  0.81549  0.30079  1.0000
  H   H773      1.0  0.91149  0.87794  0.39564  1.0000
  C   C639      1.0  0.76503  0.96021  0.48080  1.0000
  H   H774      1.0  0.66945  0.55148  0.26348  1.0000
  H   H775      1.0  0.90764  0.61388  0.25421  1.0000
  H   H776      1.0  0.77440  0.70458  0.28635  1.0000
  H   H777      1.0  0.88320  0.60946  0.35229  1.0000
  H   H778      1.0  0.87117  0.58789  0.28174  1.0000
  C   C640      1.0  0.91500  0.67439  0.29382  1.0000
  H   H779      1.0  0.86338  0.62469  0.30579  1.0000
  C   C641      1.0  0.89250  0.50180  0.25526  1.0000
  S   S175      1.0  0.88694  0.98104  0.29640  1.0000
  N   N43       1.0  0.89390  0.61909  0.30227  1.0000
  C   C642      1.0  0.90246  0.98625  0.26094  1.0000
  C   C643      1.0  0.87474  0.61600  0.28818  1.0000
  C   C644      1.0  0.90654  0.73056  0.31942  1.0000
  H   H780      1.0  0.75106  0.54709  0.22365  1.0000
  H   H781      1.0  0.75111  0.73598  0.25216  1.0000
  H   H782      1.0  0.69267  0.57528  0.22848  1.0000
  H   H783      1.0  0.66681  0.55228  0.20303  1.0000
  C   C645      1.0  0.90152  0.49792  0.19644  1.0000
  C   C646      1.0  0.72977  0.98658  0.32212  1.0000
  H   H784      1.0  0.91817  0.51195  0.06899  1.0000
  H   H785      1.0  0.76779  0.95191  0.45547  1.0000
  C   C647      1.0  0.66666  0.52261  0.20331  1.0000
  C   C648      1.0  0.94450  0.56781  0.99149  1.0000
  H   H786      1.0  0.67695  0.51189  0.28445  1.0000
  C   C649      1.0  0.97172  0.54689  0.03636  1.0000
  C   C650      1.0  0.71229  0.49224  0.22686  1.0000
  C   C651      1.0  0.88818  0.50670  0.22184  1.0000
  H   H787      1.0  0.90807  0.96441  0.17936  1.0000
  C   C652      1.0  0.91139  0.97590  0.20307  1.0000
  H   H788      1.0  0.79224  0.98615  0.48477  1.0000
  C   C653      1.0  0.74393  0.97456  0.34334  1.0000
  C   C654      1.0  0.75262  0.98311  0.27610  1.0000
  C   C655      1.0  0.95291  0.49029  0.07981  1.0000
  H   H789      1.0  0.65393  0.51365  0.26655  1.0000
  C   C656      1.0  0.84967  0.98755  0.44915  1.0000
  C   C657      1.0  0.91050  0.48832  0.26262  1.0000
  C   C658      1.0  0.98221  0.97912  0.99746  1.0000
  H   H790      1.0  0.75592  0.98659  0.24997  1.0000
  Fe  Fe90      1.0  0.67994  0.92773  0.64985  1.0000
  S   S176      1.0  0.67508  0.89879  0.60225  1.0000
  S   S177      1.0  0.70973  0.93078  0.67117  1.0000
  Fe  Fe91      1.0  0.67601  0.52859  0.63824  1.0000
  C   C659      1.0  0.65440  0.98131  0.50453  1.0000
  S   S178      1.0  0.68038  0.57495  0.60327  1.0000
  H   H791      1.0  0.88632  0.48977  0.64615  1.0000
  N   N44       1.0  0.97471  0.82594  0.89494  1.0000
  S   S179      1.0  0.96644  0.91323  0.81486  1.0000
  C   C660      1.0  0.75607  0.56191  0.50167  1.0000
  C   C661      1.0  0.98023  0.74476  0.78489  1.0000
  H   H792      1.0  0.85564  0.94132  0.59948  1.0000
  Fe  Fe92      1.0  0.97421  0.95242  0.77410  1.0000
  H   H793      1.0  0.80094  0.52766  0.54479  1.0000
  Fe  Fe93      1.0  0.97240  0.54565  0.78377  1.0000
  S   S180      1.0  0.94378  0.54492  0.75697  1.0000
  S   S181      1.0  0.97374  0.57610  0.83176  1.0000
  C   C662      1.0  0.75412  0.54840  0.53466  1.0000
  C   C663      1.0  0.78835  0.53712  0.53274  1.0000
  S   S182      1.0  0.78981  0.49508  0.65406  1.0000
  C   C664      1.0  0.89694  0.97005  0.73325  1.0000
  H   H794      1.0  0.68114  0.73255  0.67215  1.0000
  C   C665      1.0  0.91596  0.96642  0.74304  1.0000
  S   S183      1.0  0.98199  0.81860  0.78698  1.0000
  C   C666      1.0  0.91061  0.52736  0.72551  1.0000
  C   C667      1.0  0.90114  0.92333  0.65253  1.0000
  H   H795      1.0  0.90893  0.55596  0.72327  1.0000
  H   H796      1.0  0.97123  0.86444  0.93413  1.0000
  C   C668      1.0  0.92670  0.51395  0.74118  1.0000
  C   C669      1.0  0.91323  0.49297  0.57542  1.0000
  Fe  Fe94      1.0  0.65709  0.94570  0.58891  1.0000
  C   C670      1.0  0.74776  0.95141  0.49679  1.0000
  C   C671      1.0  0.74708  0.95363  0.66881  1.0000
  H   H797      1.0  0.93427  0.54155  0.82959  1.0000
  C   C672      1.0  0.92976  0.52645  0.63592  1.0000
  C   C673      1.0  0.66932  0.73569  0.65590  1.0000
  C   C674      1.0  0.66037  0.70505  0.64314  1.0000
  H   H798      1.0  0.94364  0.53270  0.86932  1.0000
  C   C675      1.0  0.73674  0.57182  0.58180  1.0000
  H   H799      1.0  0.71848  0.90523  0.52050  1.0000
  H   H800      1.0  0.67724  0.96700  0.70084  1.0000
  C   C676      1.0  0.75379  0.52280  0.65663  1.0000
  C   C677      1.0  0.93480  0.93039  0.66098  1.0000
  H   H801      1.0  0.72579  0.54589  0.65873  1.0000
  H   H802      1.0  0.96779  0.74886  0.77031  1.0000
  C   C678      1.0  0.96364  0.57009  0.98251  1.0000
  C   C679      1.0  0.86783  0.93508  0.61547  1.0000
  H   H803      1.0  0.74989  0.92885  0.68165  1.0000
  H   H804      1.0  0.88783  0.91345  0.66286  1.0000
  H   H805      1.0  0.93401  0.57561  0.97377  1.0000
  H   H806      1.0  0.74820  0.56463  0.59892  1.0000
  C   C680      1.0  0.88861  0.93864  0.56776  1.0000
  H   H807      1.0  0.90370  0.53716  0.81490  1.0000
  C   C681      1.0  0.92073  0.95599  0.61230  1.0000
  C   C682      1.0  0.73027  0.93070  0.57806  1.0000
  H   H808      1.0  0.86872  0.90546  0.61693  1.0000
  H   H809      1.0  0.88588  0.95486  0.74615  1.0000
  H   H810      1.0  0.77070  0.52660  0.57514  1.0000
  C   C683      1.0  0.66310  0.77042  0.64796  1.0000
  H   H811      1.0  0.96802  0.57904  0.95784  1.0000
  N   N45       1.0  0.72603  0.95228  0.54821  1.0000
  H   H812      1.0  0.89126  0.90940  0.56736  1.0000
  C   C684      1.0  0.72436  0.48970  0.64829  1.0000
  H   H813      1.0  0.94823  0.56379  0.66033  1.0000
  C   C685      1.0  0.97665  0.71165  0.88105  1.0000
  H   H814      1.0  0.96151  0.84060  0.84919  1.0000
  C   C686      1.0  0.78972  0.55014  0.50036  1.0000
  H   H815      1.0  0.91477  0.52249  0.57344  1.0000
  N   N46       1.0  0.92696  0.48938  0.84957  1.0000
  H   H816      1.0  0.94699  0.92664  0.67642  1.0000
  H   H817      1.0  0.91575  0.90289  0.69484  1.0000
  H   H818      1.0  0.72333  0.57133  0.59691  1.0000
  H   H819      1.0  0.73753  0.90550  0.57124  1.0000
  H   H820      1.0  0.73958  0.94515  0.59532  1.0000
  H   H821      1.0  0.67007  0.79358  0.65820  1.0000
  H   H822      1.0  0.82999  0.98010  0.53984  1.0000
  H   H823      1.0  0.95863  0.82275  0.94079  1.0000
  C   C687      1.0  0.76462  0.49180  0.65186  1.0000
  H   H824      1.0  0.68603  0.94836  0.73801  1.0000
  H   H825      1.0  0.95988  0.87365  0.88066  1.0000
  H   H826      1.0  0.92265  0.54782  0.62334  1.0000
  H   H827      1.0  0.68781  0.98450  0.78783  1.0000
  C   C688      1.0  0.90247  0.94300  0.62224  1.0000
  S   S184      1.0  0.65815  0.56007  0.67498  1.0000
  H   H828      1.0  0.72052  0.58638  0.52501  1.0000
  C   C689      1.0  0.97770  0.96062  0.96809  1.0000
  C   C690      1.0  0.73181  0.51048  0.56584  1.0000
  C   C691      1.0  0.93099  0.52810  0.85384  1.0000
  N   N47       1.0  0.88577  0.95141  0.60223  1.0000
  C   C692      1.0  0.83002  0.95731  0.49070  1.0000
  H   H829      1.0  0.96535  0.51720  0.69050  1.0000
  C   C693      1.0  0.94451  0.53592  0.65672  1.0000
  C   C694      1.0  0.83553  0.98230  0.51469  1.0000
  H   H830      1.0  0.69917  0.92489  0.54282  1.0000
  C   C695      1.0  0.93660  0.94978  0.63149  1.0000
  H   H831      1.0  0.74427  0.57215  0.48820  1.0000
  H   H832      1.0  0.76092  0.54776  0.66206  1.0000
  H   H833      1.0  0.70576  0.55546  0.54748  1.0000
  C   C696      1.0  0.91714  0.91704  0.67135  1.0000
  H   H834      1.0  0.95232  0.78254  0.85386  1.0000
  H   H835      1.0  0.71793  0.54067  0.51098  1.0000
  H   H836      1.0  0.88413  0.51523  0.70178  1.0000
  H   H837      1.0  0.95428  0.71859  0.84671  1.0000
  C   C697      1.0  0.75837  0.98146  0.54609  1.0000
  H   H838      1.0  0.82024  0.93590  0.49762  1.0000
  C   C698      1.0  0.77088  0.53639  0.54979  1.0000
  S   S185      1.0  0.66842  0.66187  0.65527  1.0000
  C   C699      1.0  0.95425  0.50967  0.67369  1.0000
  S   S186      1.0  0.66318  0.97551  0.63564  1.0000
  C   C700      1.0  0.67525  0.96676  0.72818  1.0000
  Fe  Fe95      1.0  0.66084  0.60544  0.63747  1.0000
  C   C701      1.0  0.73384  0.52185  0.65473  1.0000
  C   C702      1.0  0.97473  0.78666  0.89059  1.0000
  C   C703      1.0  0.96240  0.76863  0.86875  1.0000
  C   C704      1.0  0.72836  0.96159  0.66035  1.0000
  C   C705      1.0  0.71939  0.55792  0.53312  1.0000
  H   H839      1.0  0.92279  0.97183  0.59000  1.0000
  C   C706      1.0  0.74393  0.96169  0.53013  1.0000
  H   H840      1.0  0.89237  0.52852  0.62159  1.0000
  H   H841      1.0  0.90067  0.95234  0.55464  1.0000
  H   H842      1.0  0.77654  0.97076  0.66731  1.0000
  S   S187      1.0  0.66646  0.97621  0.54214  1.0000
  C   C707      1.0  0.95963  0.84421  0.87645  1.0000
  N   N48       1.0  0.73578  0.54725  0.55324  1.0000
  H   H843      1.0  0.71718  0.92339  0.59269  1.0000
  H   H844      1.0  0.73949  0.59987  0.57348  1.0000
  H   H845      1.0  0.66112  0.95437  0.73400  1.0000
  H   H846      1.0  0.86404  0.94557  0.64053  1.0000
  H   H847      1.0  0.87598  0.94393  0.55242  1.0000
  S   S188      1.0  0.98144  0.94211  0.90178  1.0000
  C   C708      1.0  0.71246  0.93123  0.52836  1.0000
  C   C709      1.0  0.76226  0.97734  0.66065  1.0000
  H   H848      1.0  0.91891  0.54184  0.86617  1.0000
  H   H849      1.0  0.95032  0.96073  0.62392  1.0000
  S   S189      1.0  0.65489  0.90087  0.67642  1.0000
  H   H850      1.0  0.97811  0.68691  0.78258  1.0000
  H   H851      1.0  0.91933  0.94862  0.76323  1.0000
  C   C710      1.0  0.97198  0.83492  0.93047  1.0000
  H   H852      1.0  0.71778  0.50844  0.57908  1.0000
  C   C711      1.0  0.96335  0.73165  0.86435  1.0000
  H   H853      1.0  0.94529  0.83433  0.88427  1.0000
  H   H854      1.0  0.73185  0.49081  0.54538  1.0000
  H   H855      1.0  0.70315  0.97918  0.57368  1.0000
  Fe  Fe96      1.0  0.65401  0.55485  0.57914  1.0000
  S   S190      1.0  0.97899  0.50613  0.90085  1.0000
  C   C712      1.0  0.89082  0.49901  0.62087  1.0000
  S   S191      1.0  0.95489  0.98349  0.73843  1.0000
  H   H856      1.0  0.70792  0.94641  0.50614  1.0000
  C   C713      1.0  0.71626  0.98533  0.55868  1.0000
  H   H857      1.0  0.87895  0.49331  0.60398  1.0000
  H   H858      1.0  0.71289  0.97837  0.74979  1.0000
  C   C714      1.0  0.89961  0.50932  0.81398  1.0000
  C   C715      1.0  0.98607  0.70947  0.79177  1.0000
  H   H859      1.0  0.87636  0.52234  0.78258  1.0000
  H   H860      1.0  0.98382  0.82571  0.94581  1.0000
  C   C716      1.0  0.88378  0.50120  0.79515  1.0000
  C   C717      1.0  0.89654  0.50424  0.71297  1.0000
  C   C718      1.0  0.92408  0.49022  0.63192  1.0000
  C   C719      1.0  0.77887  0.97950  0.49728  1.0000
  H   H861      1.0  0.96611  0.94149  0.96868  1.0000
  H   H862      1.0  0.74230  0.50158  0.58412  1.0000
  H   H863      1.0  0.97792  0.68326  0.87630  1.0000
  H   H864      1.0  0.80329  0.55064  0.48713  1.0000
  S   S192      1.0  0.65336  0.55548  0.52270  1.0000
  C   C720      1.0  0.93052  0.98610  0.72695  1.0000
