data_image0
_chemical_formula_structural       FeS2FeSHFe2S3HSHCHFeS2FeCFeS2FeHS2H3CHC6HCH2C6H4C4H5SC6H4C3HCHNH2CHSCH3C4HCNCHCSHCH4C4H3FeCH5CHC2H3SH3NC9H6C3H2NHCHCHCH4CFeHSHCHC3H3CHCH2SHSCSCHSH3CHC6H4FeS2FeS2Fe2S3FeSFeHSH2C6H4C6H5CH3C2H2NH2FeSHCHC6NC9H14CH2NCHC3HCH2CH3CH2SH2C2HCHNHC2H4CHC2H2C2HSFeS2FeS2FeS2FeSFeS3CS2C6H4C6H6C2H4C6H7NC3H4C2H4FeCH2NCH2CHCNC7HCH6CH3C2H2C3H9NC6H5NSH2C2H2C2H4CH3FeS2FeS2FeS2FeSFeS3FeS2C6H4C6H4C6H5C3H3C3NH4CH2C2H2C2HCH2C2H5NC6HCHCHCH8NHCNC9H13SH2C2HC3HC4HCH2CH3CH6FeS2FeSFeSFeS3HSFe2SC8H4C6H4S3HSH2SHC2H2C6H5CHC3NH2NCSH4CHCH3CHC2H2CSH2CHCHCH7FeHCHNH2CNC9H10CH2C2H2CHCHNHCFeH3CNC2H5CHCSH3FeS2FeSFeSFeS3FeSHSCFeS2H3CSCH2SC2FeH3CFeC3HCH2C6H4C6H2CHC6H6CHCHC3HC3S2H2C4HCH2NHCFeHCH3SH2SHNC9H11C2H2CHSC2FeH4NH8CH3SFeS2FeS2FeSFeS3HS2FeS2C6H4C6H4C6H5C3H5CH3CNHCH4SHCHC2HFeHCHCNC3HC2HNC4H7NHCHCHCH3CHC4FeCHCHCHCHC2H2CH3CH3CHC2HC2H3CH4CH3CHCHCFeS2FeSFeSFeS3CSFeHSNHC6H4C6H4SCSCSFeHSC2H3C6H5NH2CHSHCH3NFeC2FeC2H2C2H3CH2CH2CHSH3C2H5C2H3C3SHNC9H14CH2SC2H3CH3FeS2FeSFeSFeS3FeSFeS3HC2SHFeHSCS2HC2H2CSHCH2CH3C6H4C6H3C7H4C2N2HC6H2FeH6NH6CHC2H2CH2CHCFeC2H4CH4CHCH3CH2SCHNCH2C2H2CH3C3H2C2H2CH2CHFeHCH3SFeSHFeS2FeSFeS3FeS2FeSFeCSFeS2FeHSC6H2SCNC2H2C6H4C6H4C4HCH7NH4CH2CH3SC2H2NHFeH3CHCHC2H2SCH5CH2NC9H5CH5C2H2CHCFeC2HSHSC2HSH5C6H5SFeS2FeS2FeSFeS2HS2C8H4C6H4SHCH3NC8H5NH4CNC6H2CH11C3H3C2HC2HC2NC2SC3FeH2CHC2HC2H11FeC3H2CHFeC2HCHCH2CH2C3HCH4CHSC2SHFeS2FeS2FeSFeS3HC2FeS2C6H4C6H4FeC3H4C6H8CHSHCH3CH3C3H2CNC3H5NC4H2SH2CH4SHC3HCH3C3H3C2SH3CHC3HCH
_chemical_formula_sum              "Fe96 S192 H864 C720 N48"
_cell_length_a       42.8029
_cell_length_b       42.5431
_cell_length_c       46.4571
_cell_angle_alpha    90.2209
_cell_angle_beta     89.673
_cell_angle_gamma    89.6595

_space_group_name_H-M_alt    "P 1"
_space_group_IT_number       1

loop_
  _space_group_symop_operation_xyz
  'x, y, z'

loop_
  _atom_site_type_symbol
  _atom_site_label
  _atom_site_symmetry_multiplicity
  _atom_site_fract_x
  _atom_site_fract_y
  _atom_site_fract_z
  _atom_site_occupancy
  Fe  Fe1       1.0  0.29912  0.27026  0.09180  1.0000
  S   S1        1.0  0.28859  0.22111  0.07770  1.0000
  S   S2        1.0  0.28376  0.29186  0.13484  1.0000
  Fe  Fe2       1.0  0.34572  0.27981  0.04181  1.0000
  S   S3        1.0  0.33908  0.23017  0.02516  1.0000
  H   H1        1.0  0.05366  0.06253  0.19071  1.0000
  Fe  Fe3       1.0  0.28786  0.24026  0.03230  1.0000
  Fe  Fe4       1.0  0.34059  0.21530  0.07172  1.0000
  S   S4        1.0  0.36340  0.17619  0.09829  1.0000
  S   S5        1.0  0.29434  0.29033  0.04704  1.0000
  S   S6        1.0  0.35126  0.26405  0.08756  1.0000
  H   H2        1.0  0.29453  0.10557  0.10056  1.0000
  S   S7        1.0  0.44756  0.43738  0.05088  1.0000
  H   H3        1.0  0.12599  0.28588  0.24954  1.0000
  C   C1        1.0  0.10712  0.35567  0.33038  1.0000
  H   H4        1.0  0.08485  0.32129  0.20569  1.0000
  Fe  Fe5       1.0  0.47993  0.03077  0.09697  1.0000
  S   S8        1.0  0.47474  0.03689  0.14453  1.0000
  S   S9        1.0  0.45713  0.06443  0.06515  1.0000
  Fe  Fe6       1.0  0.12807  0.26530  0.31942  1.0000
  C   C2        1.0  0.49299  0.15685  0.11284  1.0000
  Fe  Fe7       1.0  0.17155  0.24598  0.26947  1.0000
  S   S10       1.0  0.19646  0.21002  0.29644  1.0000
  S   S11       1.0  0.17482  0.24945  0.22049  1.0000
  Fe  Fe8       1.0  0.14856  0.19631  0.31220  1.0000
  H   H5        1.0  0.43883  0.21731  0.07305  1.0000
  S   S12       1.0  0.12368  0.23004  0.28349  1.0000
  S   S13       1.0  0.17392  0.28390  0.30342  1.0000
  H   H6        1.0  0.31946  0.00529  0.12791  1.0000
  H   H7        1.0  0.12957  0.34602  0.32418  1.0000
  H   H8        1.0  0.08263  0.17246  0.28848  1.0000
  C   C3        1.0  0.10108  0.10346  0.20792  1.0000
  H   H9        1.0  0.08554  0.05870  0.16498  1.0000
  C   C4        1.0  0.04648  0.10144  0.28060  1.0000
  C   C5        1.0  0.05153  0.13400  0.27908  1.0000
  C   C6        1.0  0.07916  0.14737  0.28976  1.0000
  C   C7        1.0  0.10201  0.12831  0.30229  1.0000
  C   C8        1.0  0.09697  0.09570  0.30387  1.0000
  C   C9        1.0  0.06936  0.08226  0.29302  1.0000
  H   H10       1.0  0.11460  0.34791  0.19374  1.0000
  C   C10       1.0  0.11425  0.39089  0.25628  1.0000
  H   H11       1.0  0.02453  0.38285  0.26536  1.0000
  H   H12       1.0  0.06551  0.05726  0.29487  1.0000
  C   C11       1.0  0.25401  0.27866  0.15862  1.0000
  C   C12       1.0  0.22982  0.25920  0.14934  1.0000
  C   C13       1.0  0.20596  0.25036  0.16866  1.0000
  C   C14       1.0  0.20628  0.26031  0.19758  1.0000
  C   C15       1.0  0.23072  0.27937  0.20701  1.0000
  C   C16       1.0  0.25433  0.28864  0.18755  1.0000
  H   H13       1.0  0.22911  0.25160  0.12710  1.0000
  H   H14       1.0  0.18703  0.23581  0.16109  1.0000
  H   H15       1.0  0.23126  0.28730  0.22914  1.0000
  H   H16       1.0  0.27292  0.30374  0.19492  1.0000
  C   C17       1.0  0.42800  0.40256  0.04041  1.0000
  C   C18       1.0  0.40969  0.38659  0.06084  1.0000
  C   C19       1.0  0.39390  0.35872  0.05345  1.0000
  C   C20       1.0  0.39637  0.34653  0.02553  1.0000
  H   H17       1.0  0.49038  0.14033  0.17045  1.0000
  H   H18       1.0  0.16585  0.31754  0.23174  1.0000
  H   H19       1.0  0.40793  0.39563  0.08259  1.0000
  H   H20       1.0  0.38013  0.34648  0.06942  1.0000
  H   H21       1.0  0.31535  0.06121  0.12792  1.0000
  S   S14       1.0  0.13734  0.14426  0.31560  1.0000
  C   C21       1.0  0.38987  0.14576  0.08829  1.0000
  C   C22       1.0  0.39928  0.14064  0.05977  1.0000
  C   C23       1.0  0.41998  0.11570  0.05301  1.0000
  C   C24       1.0  0.43150  0.09578  0.07464  1.0000
  C   C25       1.0  0.42219  0.10103  0.10314  1.0000
  C   C26       1.0  0.40145  0.12583  0.10990  1.0000
  H   H22       1.0  0.39049  0.15575  0.04293  1.0000
  H   H23       1.0  0.42702  0.11179  0.03087  1.0000
  H   H24       1.0  0.43078  0.08584  0.11990  1.0000
  H   H25       1.0  0.39427  0.12956  0.13200  1.0000
  C   C27       1.0  0.10020  0.36181  0.24865  1.0000
  C   C28       1.0  0.36290  0.05610  0.06872  1.0000
  C   C29       1.0  0.12090  0.02099  0.19812  1.0000
  H   H26       1.0  0.46188  0.17252  0.04631  1.0000
  C   C30       1.0  0.10995  0.32737  0.20787  1.0000
  H   H27       1.0  0.34802  0.22833  0.14470  1.0000
  N   N1        1.0  0.09656  0.04368  0.20805  1.0000
  H   H28       1.0  0.13911  0.39466  0.25496  1.0000
  H   H29       1.0  0.12363  0.30695  0.19918  1.0000
  C   C31       1.0  0.14875  0.10067  0.24865  1.0000
  H   H30       1.0  0.49455  0.13419  0.07012  1.0000
  S   S15       1.0  0.06983  0.44309  0.34204  1.0000
  C   C32       1.0  0.45431  0.20098  0.08394  1.0000
  H   H31       1.0  0.45059  0.22472  0.12459  1.0000
  H   H32       1.0  0.06421  0.02495  0.17682  1.0000
  H   H33       1.0  0.11448  0.08081  0.31365  1.0000
  C   C33       1.0  0.37300  0.03361  0.14303  1.0000
  C   C34       1.0  0.35145  0.04825  0.09658  1.0000
  C   C35       1.0  0.07412  0.04786  0.18405  1.0000
  C   C36       1.0  0.46082  0.20496  0.11305  1.0000
  H   H34       1.0  0.38928  0.05385  0.14168  1.0000
  C   C37       1.0  0.46734  0.17571  0.06891  1.0000
  N   N2        1.0  0.11844  0.33433  0.23811  1.0000
  C   C38       1.0  0.11127  0.30640  0.25591  1.0000
  H   H35       1.0  0.08674  0.29843  0.25387  1.0000
  C   C39       1.0  0.11477  0.13108  0.21821  1.0000
  S   S16       1.0  0.37798  0.31102  0.01518  1.0000
  H   H36       1.0  0.38478  0.01499  0.15590  1.0000
  C   C40       1.0  0.07399  0.40159  0.34073  1.0000
  H   H37       1.0  0.16080  0.34401  0.26139  1.0000
  H   H38       1.0  0.16625  0.09991  0.26545  1.0000
  H   H39       1.0  0.14312  0.05113  0.24803  1.0000
  H   H40       1.0  0.05047  0.43235  0.27915  1.0000
  C   C41       1.0  0.06720  0.35995  0.25154  1.0000
  C   C42       1.0  0.10305  0.38848  0.33274  1.0000
  C   C43       1.0  0.15284  0.33896  0.23907  1.0000
  C   C44       1.0  0.06406  0.41314  0.26994  1.0000
  H   H41       1.0  0.14833  0.15116  0.24719  1.0000
  H   H42       1.0  0.32299  0.23259  0.27342  1.0000
  H   H43       1.0  0.09469  0.02444  0.25107  1.0000
  Fe  Fe9       1.0  0.47468  0.46974  0.02115  1.0000
  C   C45       1.0  0.04954  0.38517  0.26230  1.0000
  H   H44       1.0  0.25547  0.20282  0.19157  1.0000
  H   H45       1.0  0.26584  0.22776  0.27975  1.0000
  H   H46       1.0  0.35861  0.23615  0.18100  1.0000
  H   H47       1.0  0.23288  0.21247  0.23851  1.0000
  H   H48       1.0  0.08229  0.10638  0.19279  1.0000
  C   C46       1.0  0.09626  0.41607  0.26675  1.0000
  H   H49       1.0  0.10738  0.43770  0.27354  1.0000
  C   C47       1.0  0.07929  0.02968  0.23248  1.0000
  C   C48       1.0  0.32590  0.06635  0.10732  1.0000
  H   H50       1.0  0.16046  0.35824  0.22458  1.0000
  H   H51       1.0  0.34752  0.22198  0.22670  1.0000
  H   H52       1.0  0.05481  0.33874  0.24602  1.0000
  S   S17       1.0  0.01077  0.08635  0.26739  1.0000
  H   H53       1.0  0.11526  0.31136  0.27912  1.0000
  H   H54       1.0  0.32383  0.25347  0.16661  1.0000
  H   H55       1.0  0.03388  0.14903  0.26970  1.0000
  N   N3        1.0  0.31953  0.20427  0.17616  1.0000
  C   C49       1.0  0.34053  0.17664  0.17913  1.0000
  C   C50       1.0  0.29713  0.19722  0.15273  1.0000
  C   C51       1.0  0.33833  0.23167  0.16685  1.0000
  C   C52       1.0  0.30425  0.21104  0.20422  1.0000
  C   C53       1.0  0.32247  0.21969  0.22843  1.0000
  C   C54       1.0  0.27145  0.20852  0.20869  1.0000
  C   C55       1.0  0.30870  0.22566  0.25531  1.0000
  C   C56       1.0  0.25801  0.21418  0.23574  1.0000
  C   C57       1.0  0.27652  0.22290  0.25895  1.0000
  H   H56       1.0  0.35963  0.18092  0.19471  1.0000
  H   H57       1.0  0.32733  0.15569  0.18656  1.0000
  H   H58       1.0  0.35199  0.17041  0.15826  1.0000
  H   H59       1.0  0.28288  0.17609  0.15748  1.0000
  H   H60       1.0  0.30938  0.19224  0.13200  1.0000
  H   H61       1.0  0.28135  0.21759  0.14863  1.0000
  C   C58       1.0  0.11112  0.07340  0.21771  1.0000
  C   C59       1.0  0.32569  0.09898  0.06476  1.0000
  C   C60       1.0  0.13856  0.12968  0.23847  1.0000
  H   H62       1.0  0.38232  0.04391  0.05863  1.0000
  H   H63       1.0  0.41185  0.02586  0.09786  1.0000
  N   N4        1.0  0.36461  0.02217  0.11385  1.0000
  H   H64       1.0  0.10637  0.15381  0.21103  1.0000
  C   C61       1.0  0.31353  0.09154  0.09173  1.0000
  H   H65       1.0  0.12250  0.40386  0.32828  1.0000
  C   C62       1.0  0.34998  0.08101  0.05314  1.0000
  H   H66       1.0  0.31650  0.11890  0.05293  1.0000
  C   C63       1.0  0.13522  0.07292  0.23859  1.0000
  H   H67       1.0  0.06056  0.04589  0.24038  1.0000
  H   H68       1.0  0.48462  0.18767  0.14982  1.0000
  H   H69       1.0  0.47230  0.11178  0.14741  1.0000
  H   H70       1.0  0.38570  0.45978  0.04382  1.0000
  C   C64       1.0  0.48010  0.18346  0.12730  1.0000
  Fe  Fe10      1.0  0.19497  0.24641  0.33193  1.0000
  H   H71       1.0  0.35955  0.08706  0.03222  1.0000
  S   S18       1.0  0.08577  0.29415  0.33372  1.0000
  H   H72       1.0  0.35236  0.04100  0.15595  1.0000
  C   C65       1.0  0.08208  0.33563  0.33611  1.0000
  H   H73       1.0  0.13627  0.03167  0.18146  1.0000
  C   C66       1.0  0.48623  0.15376  0.08301  1.0000
  C   C67       1.0  0.37132  0.47914  0.03456  1.0000
  C   C68       1.0  0.49508  0.12189  0.15402  1.0000
  H   H74       1.0  0.34924  0.47990  0.04729  1.0000
  H   H75       1.0  0.99829  0.46071  0.03065  1.0000
  H   H76       1.0  0.06808  0.00722  0.22612  1.0000
  C   C69       1.0  0.39325  0.00796  0.10097  1.0000
  H   H77       1.0  0.13590  0.01245  0.21593  1.0000
  C   C70       1.0  0.43006  0.39066  0.01237  1.0000
  H   H78       1.0  0.36517  0.42385  0.01100  1.0000
  H   H79       1.0  0.32712  0.44203  0.01032  1.0000
  S   S19       1.0  0.25417  0.22333  0.49146  1.0000
  H   H80       1.0  0.40495  0.07581  0.66646  1.0000
  S   S20       1.0  0.47117  0.03779  0.64114  1.0000
  C   C71       1.0  0.30661  0.34328  0.61621  1.0000
  S   S21       1.0  0.23645  0.26073  0.35957  1.0000
  C   C72       1.0  0.38273  0.12596  0.63240  1.0000
  H   H81       1.0  0.35835  0.14730  0.55024  1.0000
  S   S22       1.0  0.02583  0.47463  0.41152  1.0000
  H   H82       1.0  0.37119  0.21806  0.43726  1.0000
  H   H83       1.0  0.32636  0.16116  0.51018  1.0000
  H   H84       1.0  0.33106  0.39721  0.63812  1.0000
  C   C73       1.0  0.33327  0.18352  0.44016  1.0000
  H   H85       1.0  0.38064  0.29892  0.63700  1.0000
  C   C74       1.0  0.23961  0.25180  0.39677  1.0000
  C   C75       1.0  0.22032  0.22959  0.40992  1.0000
  C   C76       1.0  0.22490  0.22152  0.43901  1.0000
  C   C77       1.0  0.24865  0.23560  0.45533  1.0000
  C   C78       1.0  0.26747  0.25837  0.44237  1.0000
  C   C79       1.0  0.26289  0.26645  0.41325  1.0000
  H   H86       1.0  0.20243  0.21797  0.39752  1.0000
  H   H87       1.0  0.21022  0.20388  0.44883  1.0000
  H   H88       1.0  0.28583  0.26940  0.45464  1.0000
  H   H89       1.0  0.27796  0.28365  0.40329  1.0000
  Fe  Fe11      1.0  0.29899  0.24637  0.58982  1.0000
  S   S23       1.0  0.30670  0.20740  0.55761  1.0000
  S   S24       1.0  0.28272  0.22946  0.63396  1.0000
  Fe  Fe12      1.0  0.32779  0.29531  0.54908  1.0000
  S   S25       1.0  0.33791  0.25975  0.51418  1.0000
  S   S26       1.0  0.33411  0.34820  0.54340  1.0000
  Fe  Fe13      1.0  0.28973  0.24161  0.52396  1.0000
  Fe  Fe14      1.0  0.35389  0.22823  0.55038  1.0000
  S   S27       1.0  0.40015  0.20156  0.54973  1.0000
  S   S28       1.0  0.27822  0.27893  0.55692  1.0000
  S   S29       1.0  0.34759  0.26540  0.58447  1.0000
  Fe  Fe15      1.0  0.47534  0.46933  0.51317  1.0000
  S   S30       1.0  0.46137  0.42538  0.53805  1.0000
  Fe  Fe16      1.0  0.46608  0.03244  0.59335  1.0000
  H   H90       1.0  0.34372  0.19441  0.61932  1.0000
  S   S31       1.0  0.42444  0.05544  0.57092  1.0000
  H   H91       1.0  0.29628  0.16253  0.48371  1.0000
  H   H92       1.0  0.40917  0.06595  0.62877  1.0000
  C   C80       1.0  0.42611  0.40359  0.53653  1.0000
  C   C81       1.0  0.42641  0.37196  0.54528  1.0000
  C   C82       1.0  0.39867  0.35426  0.54625  1.0000
  C   C83       1.0  0.37012  0.36831  0.53920  1.0000
  C   C84       1.0  0.36977  0.39994  0.53042  1.0000
  C   C85       1.0  0.39765  0.41742  0.52876  1.0000
  H   H93       1.0  0.44828  0.36109  0.55143  1.0000
  H   H94       1.0  0.39936  0.32997  0.55302  1.0000
  H   H95       1.0  0.34779  0.41106  0.52506  1.0000
  H   H96       1.0  0.39704  0.44181  0.52238  1.0000
  C   C86       1.0  0.40583  0.16119  0.55777  1.0000
  C   C87       1.0  0.43586  0.15048  0.56520  1.0000
  C   C88       1.0  0.44174  0.11832  0.57022  1.0000
  C   C89       1.0  0.41781  0.09640  0.56690  1.0000
  C   C90       1.0  0.38777  0.10712  0.55944  1.0000
  C   C91       1.0  0.38164  0.13938  0.55547  1.0000
  H   H97       1.0  0.45475  0.16715  0.56696  1.0000
  H   H98       1.0  0.46500  0.11041  0.57581  1.0000
  H   H99       1.0  0.36911  0.09039  0.55664  1.0000
  H   H100      1.0  0.35992  0.37184  0.60172  1.0000
  H   H101      1.0  0.09013  0.42274  0.40790  1.0000
  C   C92       1.0  0.24452  0.27674  0.65707  1.0000
  H   H102      1.0  0.30792  0.32114  0.60340  1.0000
  H   H103      1.0  0.30453  0.36293  0.60051  1.0000
  H   H104      1.0  0.29858  0.15956  0.62615  1.0000
  C   C93       1.0  0.39464  0.06224  0.64836  1.0000
  C   C94       1.0  0.31948  0.17224  0.48951  1.0000
  H   H105      1.0  0.35090  0.37828  0.66746  1.0000
  H   H106      1.0  0.30909  0.37674  0.66462  1.0000
  N   N5        1.0  0.34337  0.16730  0.46673  1.0000
  H   H107      1.0  0.27310  0.18288  0.39142  1.0000
  H   H108      1.0  0.29052  0.15629  0.43492  1.0000
  Fe  Fe17      1.0  0.03014  0.47110  0.36323  1.0000
  S   S32       1.0  0.14908  0.22995  0.34978  1.0000
  H   H109      1.0  0.24876  0.28975  0.63751  1.0000
  C   C95       1.0  0.34675  0.13306  0.46123  1.0000
  H   H110      1.0  0.03359  0.33339  0.34872  1.0000
  C   C96       1.0  0.33681  0.31909  0.65403  1.0000
  C   C97       1.0  0.04900  0.38154  0.34651  1.0000
  C   C98       1.0  0.32206  0.14996  0.62799  1.0000
  C   C99       1.0  0.34371  0.06288  0.66971  1.0000
  C   C100      1.0  0.33122  0.37593  0.65204  1.0000
  C   C101      1.0  0.29504  0.18955  0.40124  1.0000
  N   N6        1.0  0.14854  0.30969  0.40875  1.0000
  C   C102      1.0  0.12731  0.28229  0.41130  1.0000
  C   C103      1.0  0.16577  0.30637  0.38115  1.0000
  C   C104      1.0  0.17123  0.30780  0.43277  1.0000
  C   C105      1.0  0.13206  0.34042  0.40937  1.0000
  C   C106      1.0  0.14925  0.36883  0.40783  1.0000
  C   C107      1.0  0.09893  0.34322  0.41066  1.0000
  C   C108      1.0  0.13424  0.39813  0.40750  1.0000
  C   C109      1.0  0.08422  0.37268  0.41066  1.0000
  C   C110      1.0  0.10179  0.40004  0.40891  1.0000
  H   H111      1.0  0.11081  0.28103  0.39283  1.0000
  H   H112      1.0  0.14047  0.25960  0.41119  1.0000
  H   H113      1.0  0.11365  0.28311  0.43174  1.0000
  H   H114      1.0  0.14954  0.30823  0.36258  1.0000
  H   H115      1.0  0.17794  0.28328  0.37964  1.0000
  H   H116      1.0  0.18416  0.32443  0.37839  1.0000
  H   H117      1.0  0.15943  0.31176  0.45391  1.0000
  H   H118      1.0  0.18307  0.28439  0.43358  1.0000
  H   H119      1.0  0.19031  0.32525  0.43074  1.0000
  H   H120      1.0  0.17445  0.36855  0.40634  1.0000
  H   H121      1.0  0.08372  0.32308  0.41097  1.0000
  H   H122      1.0  0.14773  0.41953  0.40570  1.0000
  H   H123      1.0  0.36305  0.05760  0.59882  1.0000
  H   H124      1.0  0.39745  0.17314  0.62243  1.0000
  C   C111      1.0  0.37370  0.17867  0.47812  1.0000
  H   H125      1.0  0.39293  0.17562  0.46213  1.0000
  H   H126      1.0  0.37238  0.20381  0.48484  1.0000
  N   N7        1.0  0.33450  0.34667  0.63475  1.0000
  C   C112      1.0  0.33964  0.22381  0.40282  1.0000
  H   H127      1.0  0.38101  0.25316  0.66782  1.0000
  C   C113      1.0  0.34750  0.16976  0.62421  1.0000
  C   C114      1.0  0.35013  0.20890  0.42780  1.0000
  C   C115      1.0  0.37773  0.15778  0.62630  1.0000
  H   H128      1.0  0.28449  0.34257  0.62881  1.0000
  C   C116      1.0  0.30524  0.17452  0.42621  1.0000
  H   H129      1.0  0.38093  0.16557  0.49773  1.0000
  H   H130      1.0  0.32418  0.12184  0.45570  1.0000
  C   C117      1.0  0.35725  0.10510  0.63675  1.0000
  H   H131      1.0  0.05892  0.37434  0.41105  1.0000
  H   H132      1.0  0.35245  0.24352  0.39404  1.0000
  H   H133      1.0  0.31578  0.19774  0.49360  1.0000
  C   C118      1.0  0.31225  0.21406  0.38951  1.0000
  H   H134      1.0  0.36340  0.12846  0.44318  1.0000
  H   H135      1.0  0.35566  0.12043  0.48055  1.0000
  S   S33       1.0  0.47411  0.47134  0.46484  1.0000
  H   H136      1.0  0.38409  0.35323  0.62805  1.0000
  H   H137      1.0  0.40680  0.11826  0.63298  1.0000
  C   C119      1.0  0.25778  0.24681  0.66035  1.0000
  C   C120      1.0  0.36171  0.29684  0.65232  1.0000
  H   H138      1.0  0.36482  0.33056  0.60032  1.0000
  C   C121      1.0  0.36213  0.35061  0.61559  1.0000
  H   H139      1.0  0.30366  0.22624  0.37063  1.0000
  N   N8        1.0  0.36155  0.07127  0.64335  1.0000
  H   H140      1.0  0.35318  0.02643  0.62291  1.0000
  C   C122      1.0  0.32674  0.11806  0.63396  1.0000
  C   C123      1.0  0.35001  0.05209  0.61896  1.0000
  H   H141      1.0  0.31806  0.06492  0.66674  1.0000
  H   H142      1.0  0.32482  0.05623  0.61467  1.0000
  H   H143      1.0  0.39722  0.03680  0.65363  1.0000
  H   H144      1.0  0.30621  0.10363  0.63618  1.0000
  C   C124      1.0  0.36231  0.27031  0.67003  1.0000
  H   H145      1.0  0.38069  0.48038  0.48265  1.0000
  C   C125      1.0  0.36024  0.49415  0.47693  1.0000
  C   C126      1.0  0.33624  0.49895  0.49685  1.0000
  H   H146      1.0  0.33803  0.48858  0.51807  1.0000
  H   H147      1.0  0.02651  0.39131  0.35259  1.0000
  C   C127      1.0  0.05307  0.34872  0.34421  1.0000
  C   C128      1.0  0.31305  0.31328  0.67478  1.0000
  H   H148      1.0  0.28660  0.26409  0.90843  1.0000
  S   S34       1.0  0.47673  0.46794  0.97279  1.0000
  Fe  Fe18      1.0  0.01494  0.02467  0.77671  1.0000
  S   S35       1.0  0.03080  0.06069  0.80981  1.0000
  S   S36       1.0  0.01054  0.03712  0.73003  1.0000
  Fe  Fe19      1.0  0.13488  0.27251  0.82388  1.0000
  S   S37       1.0  0.15029  0.22714  0.84472  1.0000
  S   S38       1.0  0.09548  0.29973  0.84618  1.0000
  Fe  Fe20      1.0  0.18241  0.26554  0.77392  1.0000
  S   S39       1.0  0.20181  0.22074  0.79191  1.0000
  S   S40       1.0  0.19710  0.29081  0.73262  1.0000
  Fe  Fe21      1.0  0.15138  0.20729  0.79951  1.0000
  S   S41       1.0  0.13504  0.16141  0.77887  1.0000
  Fe  Fe22      1.0  0.19901  0.24436  0.83556  1.0000
  S   S42       1.0  0.24039  0.24806  0.86642  1.0000
  S   S43       1.0  0.13217  0.25138  0.77953  1.0000
  S   S44       1.0  0.18333  0.29062  0.81675  1.0000
  C   C129      1.0  0.11773  0.23573  0.96537  1.0000
  S   S45       1.0  0.06606  0.44552  0.83000  1.0000
  S   S46       1.0  0.02952  0.47414  0.90292  1.0000
  C   C130      1.0  0.07543  0.40566  0.83730  1.0000
  C   C131      1.0  0.10307  0.39258  0.82574  1.0000
  C   C132      1.0  0.11009  0.36040  0.82923  1.0000
  C   C133      1.0  0.08923  0.34088  0.84382  1.0000
  C   C134      1.0  0.06212  0.35414  0.85621  1.0000
  C   C135      1.0  0.05527  0.38640  0.85306  1.0000
  H   H149      1.0  0.11888  0.40738  0.81374  1.0000
  H   H150      1.0  0.13133  0.35054  0.82030  1.0000
  H   H151      1.0  0.04593  0.33925  0.86770  1.0000
  H   H152      1.0  0.03394  0.39616  0.86207  1.0000
  C   C136      1.0  0.05822  0.09019  0.80081  1.0000
  C   C137      1.0  0.06946  0.11045  0.82235  1.0000
  C   C138      1.0  0.09209  0.13342  0.81590  1.0000
  C   C139      1.0  0.10374  0.13616  0.78783  1.0000
  C   C140      1.0  0.09181  0.11648  0.76620  1.0000
  C   C141      1.0  0.06911  0.09371  0.77259  1.0000
  H   H153      1.0  0.06099  0.10806  0.84421  1.0000
  H   H154      1.0  0.10121  0.14831  0.83278  1.0000
  H   H155      1.0  0.10051  0.11870  0.74439  1.0000
  H   H156      1.0  0.06033  0.07867  0.75573  1.0000
  H   H157      1.0  0.15218  0.06108  0.72112  1.0000
  H   H158      1.0  0.03544  0.40843  0.77396  1.0000
  C   C142      1.0  0.22015  0.27315  0.70492  1.0000
  C   C143      1.0  0.23319  0.24315  0.70801  1.0000
  H   H159      1.0  0.12944  0.06696  0.78625  1.0000
  H   H160      1.0  0.33865  0.24441  0.70330  1.0000
  H   H161      1.0  0.41237  0.45684  0.99812  1.0000
  H   H162      1.0  0.22899  0.23000  0.72752  1.0000
  C   C144      1.0  0.24226  0.24079  0.90412  1.0000
  C   C145      1.0  0.21867  0.22483  0.91896  1.0000
  C   C146      1.0  0.22109  0.21997  0.94891  1.0000
  C   C147      1.0  0.24677  0.23138  0.96452  1.0000
  C   C148      1.0  0.27033  0.24735  0.94968  1.0000
  C   C149      1.0  0.26814  0.25183  0.91966  1.0000
  H   H163      1.0  0.19876  0.21589  0.90735  1.0000
  H   H164      1.0  0.20291  0.20726  0.96008  1.0000
  H   H165      1.0  0.29030  0.25617  0.96132  1.0000
  H   H166      1.0  0.19066  0.31215  0.87821  1.0000
  H   H167      1.0  0.21510  0.29432  0.93340  1.0000
  H   H168      1.0  0.14424  0.34585  0.94106  1.0000
  H   H169      1.0  0.11187  0.28215  0.90669  1.0000
  N   N9        1.0  0.14138  0.02959  0.75615  1.0000
  C   C150      1.0  0.11318  0.01301  0.76685  1.0000
  C   C151      1.0  0.02646  0.45853  0.97939  1.0000
  C   C152      1.0  0.13284  0.04616  0.72930  1.0000
  H   H170      1.0  0.15606  0.23511  0.99517  1.0000
  H   H171      1.0  0.10314  0.32484  0.70339  1.0000
  H   H172      1.0  0.08353  0.24103  0.93199  1.0000
  H   H173      1.0  0.15139  0.37836  0.70615  1.0000
  C   C153      1.0  0.10560  0.24918  0.94050  1.0000
  C   C154      1.0  0.19818  0.02034  0.74428  1.0000
  H   H174      1.0  0.09407  0.02971  0.77298  1.0000
  H   H175      1.0  0.16658  0.07117  0.77027  1.0000
  H   H176      1.0  0.16057  0.04168  0.79754  1.0000
  H   H177      1.0  0.39368  0.46720  0.96517  1.0000
  Fe  Fe23      1.0  0.02815  0.47228  0.85474  1.0000
  C   C155      1.0  0.31416  0.28696  0.69266  1.0000
  H   H178      1.0  0.11215  0.06173  0.73250  1.0000
  H   H179      1.0  0.34866  0.43496  0.97758  1.0000
  N   N10       1.0  0.01204  0.48680  0.99292  1.0000
  C   C156      1.0  0.39573  0.47382  0.98824  1.0000
  H   H180      1.0  0.12681  0.02913  0.71190  1.0000
  H   H181      1.0  0.01933  0.20529  0.82092  1.0000
  C   C157      1.0  0.12205  0.27275  0.92615  1.0000
  H   H182      1.0  0.04390  0.46460  0.96258  1.0000
  C   C158      1.0  0.15003  0.05319  0.77841  1.0000
  N   N11       1.0  0.12269  0.35365  0.73699  1.0000
  C   C159      1.0  0.12371  0.32551  0.71790  1.0000
  C   C160      1.0  0.12936  0.38149  0.71877  1.0000
  C   C161      1.0  0.14796  0.35094  0.75850  1.0000
  C   C162      1.0  0.09231  0.35580  0.75234  1.0000
  C   C163      1.0  0.07523  0.38448  0.75515  1.0000
  C   C164      1.0  0.08000  0.32924  0.76681  1.0000
  C   C165      1.0  0.04739  0.38604  0.77103  1.0000
  H   H183      1.0  0.34336  0.47661  0.94798  1.0000
  C   C166      1.0  0.00449  0.18619  0.81391  1.0000
  H   H184      1.0  0.11019  0.38573  0.70313  1.0000
  H   H185      1.0  0.09249  0.30715  0.76722  1.0000
  H   H186      1.0  0.35028  0.07835  0.68808  1.0000
  H   H187      1.0  0.13281  0.40307  0.73198  1.0000
  H   H188      1.0  0.14526  0.32481  0.70431  1.0000
  H   H189      1.0  0.20239  0.04536  0.74465  1.0000
  C   C167      1.0  0.22593  0.28988  0.67934  1.0000
  H   H190      1.0  0.17146  0.35011  0.74811  1.0000
  H   H191      1.0  0.14760  0.37119  0.77372  1.0000
  H   H192      1.0  0.08327  0.40632  0.74612  1.0000
  C   C168      1.0  0.01535  0.16497  0.79324  1.0000
  C   C169      1.0  0.03579  0.35937  0.78456  1.0000
  H   H193      1.0  0.00867  0.44353  0.96861  1.0000
  H   H194      1.0  0.41640  0.35347  0.98337  1.0000
  C   C170      1.0  0.16289  0.26957  0.96194  1.0000
  C   C171      1.0  0.14627  0.24596  0.97609  1.0000
  C   C172      1.0  0.15134  0.28354  0.93630  1.0000
  H   H195      1.0  0.15258  0.29545  0.87747  1.0000
  H   H196      1.0  0.44414  0.40261  0.99646  1.0000
  H   H197      1.0  0.10519  0.21712  0.97622  1.0000
  H   H198      1.0  0.18473  0.27265  0.89015  1.0000
  H   H199      1.0  0.12753  0.33398  0.90735  1.0000
  H   H200      1.0  0.19715  0.32506  0.95501  1.0000
  H   H201      1.0  0.18518  0.27570  0.97118  1.0000
  H   H202      1.0  0.21232  0.33334  0.91992  1.0000
  H   H203      1.0  0.16265  0.35618  0.90740  1.0000
  N   N12       1.0  0.16872  0.30780  0.92010  1.0000
  C   C173      1.0  0.17436  0.29664  0.89025  1.0000
  C   C174      1.0  0.14998  0.33721  0.91900  1.0000
  C   C175      1.0  0.19958  0.31544  0.93280  1.0000
  C   C176      1.0  0.05204  0.33102  0.78243  1.0000
  C   C177      1.0  0.35084  0.44248  0.00039  1.0000
  C   C178      1.0  0.34478  0.49841  0.99058  1.0000
  H   H204      1.0  0.12454  0.30309  0.73010  1.0000
  H   H205      1.0  0.14583  0.32908  0.77144  1.0000
  H   H206      1.0  0.03872  0.44387  0.99562  1.0000
  H   H207      1.0  0.29533  0.28264  0.70788  1.0000
  H   H208      1.0  0.03873  0.16755  0.78438  1.0000
  N   N13       1.0  0.36521  0.47402  0.00343  1.0000
  S   S47       1.0  0.24789  0.22580  0.00248  1.0000
  H   H209      1.0  0.01487  0.36103  0.79775  1.0000
  H   H210      1.0  0.04383  0.31066  0.79418  1.0000
  C   C179      1.0  0.16796  0.00811  0.74988  1.0000
  C   C180      1.0  0.41435  0.36277  0.00502  1.0000
  H   H211      1.0  0.21592  0.31307  0.67670  1.0000
  H   H212      1.0  0.00693  0.12411  0.76871  1.0000
  C   C181      1.0  0.33855  0.26534  0.69008  1.0000
  C   C182      1.0  0.25194  0.23015  0.68590  1.0000
  H   H213      1.0  0.24631  0.01049  0.73330  1.0000
  H   H214      1.0  0.29288  0.32851  0.67685  1.0000
  H   H215      1.0  0.40658  0.49751  0.98889  1.0000
  H   H216      1.0  0.26209  0.20702  0.68868  1.0000
  C   C183      1.0  0.33556  0.49599  0.96134  1.0000
  H   H217      1.0  0.34819  0.03807  0.67626  1.0000
  H   H218      1.0  0.12987  0.83492  0.20616  1.0000
  H   H219      1.0  0.01963  0.50550  0.05089  1.0000
  Fe  Fe24      1.0  0.01066  0.98029  0.21712  1.0000
  S   S48       1.0  0.01677  0.98799  0.26456  1.0000
  S   S49       1.0  0.04679  0.95658  0.18785  1.0000
  Fe  Fe25      1.0  0.26157  0.81439  0.22043  1.0000
  S   S50       1.0  0.21144  0.80915  0.20754  1.0000
  S   S51       1.0  0.28880  0.78703  0.25440  1.0000
  Fe  Fe26      1.0  0.27602  0.85801  0.16893  1.0000
  S   S52       1.0  0.22636  0.85611  0.15248  1.0000
  S   S53       1.0  0.31655  0.87677  0.14189  1.0000
  Fe  Fe27      1.0  0.21239  0.86144  0.19937  1.0000
  S   S54       1.0  0.17651  0.89250  0.22286  1.0000
  Fe  Fe28      1.0  0.22919  0.80417  0.16183  1.0000
  S   S55       1.0  0.21653  0.76038  0.13588  1.0000
  S   S56       1.0  0.26214  0.86693  0.21499  1.0000
  S   S57       1.0  0.27911  0.80590  0.17550  1.0000
  Fe  Fe29      1.0  0.46796  0.98449  0.14546  1.0000
  S   S58       1.0  0.42833  0.96836  0.17480  1.0000
  S   S59       1.0  0.47032  0.97872  0.09738  1.0000
  C   C184      1.0  0.34686  0.90308  0.15129  1.0000
  C   C185      1.0  0.34673  0.91986  0.17725  1.0000
  C   C186      1.0  0.37180  0.93983  0.18404  1.0000
  C   C187      1.0  0.39703  0.94356  0.16485  1.0000
  C   C188      1.0  0.39684  0.92733  0.13862  1.0000
  C   C189      1.0  0.37187  0.90719  0.13193  1.0000
  H   H220      1.0  0.32732  0.91752  0.19208  1.0000
  H   H221      1.0  0.37171  0.95240  0.20433  1.0000
  H   H222      1.0  0.41621  0.92977  0.12375  1.0000
  H   H223      1.0  0.37214  0.89442  0.11174  1.0000
  C   C190      1.0  0.08268  0.93870  0.19805  1.0000
  C   C191      1.0  0.10103  0.92346  0.17692  1.0000
  C   C192      1.0  0.12992  0.90938  0.18396  1.0000
  C   C193      1.0  0.14084  0.91057  0.21226  1.0000
  C   C194      1.0  0.12263  0.92613  0.23330  1.0000
  C   C195      1.0  0.09368  0.94002  0.22632  1.0000
  H   H224      1.0  0.09282  0.92244  0.15495  1.0000
  H   H225      1.0  0.14366  0.89753  0.16754  1.0000
  H   H226      1.0  0.13086  0.92712  0.25526  1.0000
  H   H227      1.0  0.08003  0.95174  0.24284  1.0000
  C   C196      1.0  0.21872  0.74968  0.03685  1.0000
  C   C197      1.0  0.21623  0.72335  0.05468  1.0000
  C   C198      1.0  0.21553  0.72706  0.08489  1.0000
  C   C199      1.0  0.21779  0.75701  0.09767  1.0000
  C   C200      1.0  0.22089  0.78326  0.07986  1.0000
  C   C201      1.0  0.22112  0.77960  0.04965  1.0000
  H   H228      1.0  0.21424  0.70020  0.04517  1.0000
  H   H229      1.0  0.21306  0.70658  0.09841  1.0000
  H   H230      1.0  0.22269  0.80646  0.08932  1.0000
  H   H231      1.0  0.22306  0.80014  0.03612  1.0000
  H   H232      1.0  0.34788  0.80081  0.03333  1.0000
  C   C202      1.0  0.24126  0.77881  0.29460  1.0000
  C   C203      1.0  0.27214  0.77209  0.28670  1.0000
  C   C204      1.0  0.29026  0.75272  0.30468  1.0000
  H   H233      1.0  0.18212  0.74270  0.22603  1.0000
  H   H234      1.0  0.22711  0.79390  0.28118  1.0000
  H   H235      1.0  0.31418  0.74737  0.29878  1.0000
  C   C205      1.0  0.34100  0.99699  0.11671  1.0000
  C   C206      1.0  0.21321  0.65732  0.29471  1.0000
  C   C207      1.0  0.10788  0.84129  0.21641  1.0000
  N   N14       1.0  0.31786  0.74559  0.02050  1.0000
  H   H236      1.0  0.28368  0.76416  0.11548  1.0000
  H   H237      1.0  0.02987  0.59051  0.33386  1.0000
  H   H238      1.0  0.22433  0.61600  0.27000  1.0000
  H   H239      1.0  0.36211  0.72391  0.02985  1.0000
  C   C208      1.0  0.35052  0.73744  0.01239  1.0000
  H   H240      1.0  0.12834  0.84610  0.25817  1.0000
  H   H241      1.0  0.00343  0.82496  0.25946  1.0000
  C   C209      1.0  0.05300  0.85459  0.21295  1.0000
  C   C210      1.0  0.07905  0.85740  0.25905  1.0000
  H   H242      1.0  0.21261  0.64503  0.31513  1.0000
  H   H243      1.0  0.31318  0.81379  0.11876  1.0000
  C   C211      1.0  0.10693  0.84761  0.24582  1.0000
  C   C212      1.0  0.21987  0.64110  0.26927  1.0000
  H   H244      1.0  0.16744  0.70787  0.20892  1.0000
  C   C213      1.0  0.30004  0.71573  0.02133  1.0000
  H   H245      1.0  0.20262  0.70209  0.31392  1.0000
  H   H246      1.0  0.38851  0.99645  0.07990  1.0000
  C   C214      1.0  0.24657  0.74653  0.33799  1.0000
  C   C215      1.0  0.08100  0.84483  0.19999  1.0000
  H   H247      1.0  0.34094  0.53004  0.02804  1.0000
  H   H248      1.0  0.44440  0.91148  0.21985  1.0000
  H   H249      1.0  0.44106  0.85513  0.14354  1.0000
  H   H250      1.0  0.08213  0.84091  0.17692  1.0000
  H   H251      1.0  0.03299  0.85773  0.19915  1.0000
  N   N15       1.0  0.21735  0.70803  0.21433  1.0000
  C   C216      1.0  0.18728  0.72465  0.20929  1.0000
  C   C217      1.0  0.24259  0.73163  0.21643  1.0000
  C   C218      1.0  0.22398  0.68822  0.18856  1.0000
  C   C219      1.0  0.21560  0.69007  0.24155  1.0000
  C   C220      1.0  0.20875  0.70574  0.26790  1.0000
  C   C221      1.0  0.06069  0.53272  0.04764  1.0000
  H   H252      1.0  0.20462  0.77133  0.32590  1.0000
  C   C222      1.0  0.02017  0.61484  0.33491  1.0000
  H   H253      1.0  0.35011  0.97672  0.12931  1.0000
  C   C223      1.0  0.22108  0.65707  0.24298  1.0000
  H   H254      1.0  0.18738  0.73743  0.18836  1.0000
  C   C224      1.0  0.22859  0.76606  0.32005  1.0000
  H   H255      1.0  0.23776  0.74946  0.23343  1.0000
  H   H256      1.0  0.24566  0.74479  0.19592  1.0000
  H   H257      1.0  0.26538  0.72044  0.22184  1.0000
  H   H258      1.0  0.20549  0.67031  0.18526  1.0000
  H   H259      1.0  0.22475  0.70254  0.16849  1.0000
  H   H260      1.0  0.24714  0.67634  0.19010  1.0000
  H   H261      1.0  0.20469  0.73082  0.26863  1.0000
  H   H262      1.0  0.03015  0.92011  0.24487  1.0000
  N   N16       1.0  0.02126  0.87199  0.25594  1.0000
  H   H263      1.0  0.08028  0.86255  0.28177  1.0000
  C   C225      1.0  0.33273  0.80955  0.07626  1.0000
  N   N17       1.0  0.37011  0.83133  0.21809  1.0000
  C   C226      1.0  0.34302  0.85257  0.22288  1.0000
  C   C227      1.0  0.35926  0.80467  0.20004  1.0000
  C   C228      1.0  0.37983  0.81822  0.24625  1.0000
  C   C229      1.0  0.39616  0.84917  0.20494  1.0000
  C   C230      1.0  0.41018  0.87435  0.22021  1.0000
  C   C231      1.0  0.40802  0.84266  0.17683  1.0000
  C   C232      1.0  0.43470  0.89164  0.20827  1.0000
  C   C233      1.0  0.43266  0.86005  0.16517  1.0000
  C   C234      1.0  0.44598  0.88444  0.18086  1.0000
  H   H264      1.0  0.33389  0.86149  0.20209  1.0000
  H   H265      1.0  0.32349  0.84030  0.23399  1.0000
  H   H266      1.0  0.34883  0.87331  0.23638  1.0000
  H   H267      1.0  0.37841  0.78743  0.19584  1.0000
  H   H268      1.0  0.34977  0.81304  0.17911  1.0000
  H   H269      1.0  0.33993  0.79158  0.21073  1.0000
  H   H270      1.0  0.36114  0.80335  0.25596  1.0000
  H   H271      1.0  0.40124  0.80344  0.24388  1.0000
  H   H272      1.0  0.38468  0.83685  0.26242  1.0000
  H   H273      1.0  0.40187  0.88135  0.24129  1.0000
  H   H274      1.0  0.39841  0.82463  0.16317  1.0000
  H   H275      1.0  0.46438  0.89855  0.17139  1.0000
  H   H276      1.0  0.38478  0.50107  0.03835  1.0000
  S   S60       1.0  0.46087  0.52085  0.02330  1.0000
  H   H277      1.0  0.33397  0.98784  0.09521  1.0000
  H   H278      1.0  0.02970  0.85567  0.29918  1.0000
  C   C235      1.0  0.03719  0.51380  0.03605  1.0000
  C   C236      1.0  0.02302  0.87746  0.28752  1.0000
  H   H279      1.0  0.28506  0.73264  0.07205  1.0000
  C   C237      1.0  0.05111  0.86112  0.24291  1.0000
  C   C238      1.0  0.29925  0.75353  0.07229  1.0000
  C   C239      1.0  0.29820  0.77152  0.09755  1.0000
  H   H280      1.0  0.34514  0.83167  0.07783  1.0000
  C   C240      1.0  0.20755  0.68953  0.29399  1.0000
  C   C241      1.0  0.31725  0.76317  0.04809  1.0000
  C   C242      1.0  0.31473  0.79951  0.09945  1.0000
  C   C243      1.0  0.27757  0.73999  0.33021  1.0000
  H   H281      1.0  0.22656  0.64308  0.22419  1.0000
  C   C244      1.0  0.01166  0.90203  0.24251  1.0000
  H   H282      1.0  0.30931  0.69931  0.03783  1.0000
  H   H283      1.0  0.40332  0.98938  0.11501  1.0000
  C   C245      1.0  0.33410  0.79170  0.05093  1.0000
  H   H284      1.0  0.10223  0.55956  0.03894  1.0000
  H   H285      1.0  0.27480  0.71993  0.02545  1.0000
  H   H286      1.0  0.03981  0.89651  0.29281  1.0000
  C   C246      1.0  0.08419  0.54470  0.02999  1.0000
  H   H287      1.0  0.03213  0.62905  0.31814  1.0000
  H   H288      1.0  0.00699  0.89968  0.21908  1.0000
  H   H289      1.0  0.37467  0.61426  0.01173  1.0000
  H   H290      1.0  0.06060  0.53832  0.07042  1.0000
  H   H291      1.0  0.11042  0.99942  0.18857  1.0000
  H   H292      1.0  0.00008  0.88523  0.29665  1.0000
  Fe  Fe30      1.0  0.21825  0.64493  0.44214  1.0000
  S   S61       1.0  0.26015  0.65249  0.41340  1.0000
  S   S62       1.0  0.19529  0.59741  0.43443  1.0000
  Fe  Fe31      1.0  0.22840  0.70760  0.47450  1.0000
  S   S63       1.0  0.27012  0.71946  0.44716  1.0000
  Fe  Fe32      1.0  0.24226  0.70238  0.40919  1.0000
  S   S64       1.0  0.22825  0.72973  0.36873  1.0000
  Fe  Fe33      1.0  0.28427  0.66874  0.45382  1.0000
  S   S65       1.0  0.33033  0.65562  0.47548  1.0000
  S   S66       1.0  0.19921  0.69367  0.43624  1.0000
  S   S67       1.0  0.24359  0.65794  0.48288  1.0000
  H   H293      1.0  0.05495  0.68453  0.38083  1.0000
  S   S68       1.0  0.42828  0.54824  0.44213  1.0000
  Fe  Fe34      1.0  0.02629  0.52703  0.40473  1.0000
  Fe  Fe35      1.0  0.25116  0.79850  0.66787  1.0000
  S   S69       1.0  0.04969  0.56629  0.43023  1.0000
  C   C247      1.0  0.25100  0.52920  0.45643  1.0000
  C   C248      1.0  0.16290  0.84020  0.62013  1.0000
  C   C249      1.0  0.35441  0.62299  0.46630  1.0000
  C   C250      1.0  0.35826  0.61308  0.43777  1.0000
  C   C251      1.0  0.38040  0.58954  0.43088  1.0000
  C   C252      1.0  0.39845  0.57524  0.45245  1.0000
  C   C253      1.0  0.39342  0.58403  0.48116  1.0000
  C   C254      1.0  0.37193  0.60821  0.48796  1.0000
  H   H294      1.0  0.34520  0.62450  0.42086  1.0000
  H   H295      1.0  0.38408  0.58285  0.40861  1.0000
  H   H296      1.0  0.40652  0.57269  0.49808  1.0000
  H   H297      1.0  0.36897  0.61558  0.51013  1.0000
  C   C255      1.0  0.15456  0.59030  0.43160  1.0000
  C   C256      1.0  0.14445  0.56175  0.41954  1.0000
  C   C257      1.0  0.11240  0.55439  0.41824  1.0000
  C   C258      1.0  0.09015  0.57525  0.42964  1.0000
  C   C259      1.0  0.10022  0.60392  0.44147  1.0000
  C   C260      1.0  0.13223  0.61159  0.44220  1.0000
  H   H298      1.0  0.16151  0.54509  0.41133  1.0000
  H   H299      1.0  0.10499  0.53223  0.40912  1.0000
  H   H300      1.0  0.08321  0.62014  0.45050  1.0000
  H   H301      1.0  0.13967  0.63353  0.45172  1.0000
  S   S70       1.0  0.21316  0.74493  0.50732  1.0000
  S   S71       1.0  0.46111  0.52018  0.51954  1.0000
  S   S72       1.0  0.23755  0.84653  0.65284  1.0000
  H   H302      1.0  0.14919  0.85643  0.60638  1.0000
  S   S73       1.0  0.24894  0.75407  0.64029  1.0000
  H   H303      1.0  0.49538  0.92192  0.64028  1.0000
  H   H304      1.0  0.21900  0.79758  0.54579  1.0000
  S   S74       1.0  0.46528  0.97945  0.59510  1.0000
  H   H305      1.0  0.31503  0.83966  0.60459  1.0000
  C   C261      1.0  0.39097  0.94653  0.64326  1.0000
  C   C262      1.0  0.36117  0.93338  0.63892  1.0000
  H   H306      1.0  0.40125  0.96138  0.62695  1.0000
  H   H307      1.0  0.34874  0.93834  0.61922  1.0000
  C   C263      1.0  0.22460  0.74723  0.54394  1.0000
  C   C264      1.0  0.23221  0.72036  0.55973  1.0000
  C   C265      1.0  0.23950  0.72292  0.58920  1.0000
  C   C266      1.0  0.23980  0.75234  0.60309  1.0000
  C   C267      1.0  0.23279  0.77929  0.58717  1.0000
  C   C268      1.0  0.22493  0.77668  0.55782  1.0000
  H   H308      1.0  0.23173  0.69753  0.54940  1.0000
  H   H309      1.0  0.24481  0.70193  0.60136  1.0000
  H   H310      1.0  0.23334  0.80211  0.59744  1.0000
  H   H311      1.0  0.49270  0.63767  0.53838  1.0000
  H   H312      1.0  0.37706  0.50369  0.43430  1.0000
  C   C269      1.0  0.34735  0.91379  0.65972  1.0000
  H   H313      1.0  0.16717  0.74861  0.61130  1.0000
  C   C270      1.0  0.14325  0.79232  0.59840  1.0000
  C   C271      1.0  0.12599  0.79051  0.54803  1.0000
  C   C272      1.0  0.11522  0.81725  0.63794  1.0000
  N   N18       1.0  0.27898  0.54954  0.45453  1.0000
  H   H314      1.0  0.28134  0.54437  0.40829  1.0000
  H   H315      1.0  0.33250  0.53539  0.42073  1.0000
  N   N19       1.0  0.14655  0.81013  0.62567  1.0000
  C   C273      1.0  0.35808  0.50722  0.44960  1.0000
  S   S75       1.0  0.03335  0.52361  0.35707  1.0000
  H   H316      1.0  0.18580  0.83594  0.60924  1.0000
  H   H317      1.0  0.49331  0.59435  0.50630  1.0000
  H   H318      1.0  0.11522  0.80193  0.52974  1.0000
  H   H319      1.0  0.32778  0.84455  0.55278  1.0000
  C   C274      1.0  0.12814  0.80626  0.57443  1.0000
  H   H320      1.0  0.46009  0.58582  0.48468  1.0000
  C   C275      1.0  0.30721  0.53096  0.46189  1.0000
  H   H321      1.0  0.22937  0.54202  0.44994  1.0000
  H   H322      1.0  0.07303  0.63827  0.35712  1.0000
  H   H323      1.0  0.29162  0.72489  0.34369  1.0000
  C   C276      1.0  0.27511  0.57614  0.47501  1.0000
  H   H324      1.0  0.01136  0.58563  0.38431  1.0000
  C   C277      1.0  0.05731  0.62542  0.37208  1.0000
  C   C278      1.0  0.13826  0.76030  0.54487  1.0000
  H   H325      1.0  0.29998  0.57939  0.42242  1.0000
  H   H326      1.0  0.16219  0.72219  0.56543  1.0000
  C   C279      1.0  0.45538  0.87547  0.65128  1.0000
  S   S76       1.0  0.30958  0.89816  0.65290  1.0000
  H   H327      1.0  0.48421  0.60068  0.44300  1.0000
  H   H328      1.0  0.29592  0.59173  0.47468  1.0000
  C   C280      1.0  0.40729  0.94046  0.66866  1.0000
  H   H329      1.0  0.25431  0.59079  0.46959  1.0000
  C   C281      1.0  0.27994  0.56305  0.42507  1.0000
  H   H330      1.0  0.33347  0.79780  0.52239  1.0000
  C   C282      1.0  0.31004  0.51700  0.48951  1.0000
  H   H331      1.0  0.30760  0.78715  0.62595  1.0000
  H   H332      1.0  0.31219  0.74002  0.59709  1.0000
  H   H333      1.0  0.11835  0.82968  0.57579  1.0000
  H   H334      1.0  0.29196  0.51989  0.50563  1.0000
  H   H335      1.0  0.10190  0.79529  0.64193  1.0000
  H   H336      1.0  0.15306  0.77059  0.65418  1.0000
  H   H337      1.0  0.43475  0.62918  0.45681  1.0000
  Fe  Fe36      1.0  0.46306  0.52291  0.47118  1.0000
  H   H338      1.0  0.16682  0.80692  0.66804  1.0000
  C   C283      1.0  0.15223  0.74552  0.56820  1.0000
  H   H339      1.0  0.18882  0.78756  0.64038  1.0000
  N   N20       1.0  0.47857  0.63259  0.47915  1.0000
  H   H340      1.0  0.45201  0.66723  0.45558  1.0000
  H   H341      1.0  0.43383  0.65392  0.48822  1.0000
  C   C284      1.0  0.33214  0.52552  0.44208  1.0000
  N   N21       1.0  0.32737  0.73575  0.53772  1.0000
  C   C285      1.0  0.30596  0.73795  0.51281  1.0000
  C   C286      1.0  0.35991  0.73385  0.52670  1.0000
  C   C287      1.0  0.32058  0.70569  0.55265  1.0000
  C   C288      1.0  0.32370  0.76389  0.55641  1.0000
  C   C289      1.0  0.31644  0.76203  0.58628  1.0000
  C   C290      1.0  0.32791  0.79447  0.54488  1.0000
  C   C291      1.0  0.31360  0.78913  0.60329  1.0000
  C   C292      1.0  0.32480  0.82141  0.56209  1.0000
  C   C293      1.0  0.31764  0.81875  0.59126  1.0000
  H   H342      1.0  0.28144  0.74163  0.52001  1.0000
  H   H343      1.0  0.31178  0.75752  0.49803  1.0000
  H   H344      1.0  0.30656  0.71612  0.49952  1.0000
  H   H345      1.0  0.37687  0.73268  0.54476  1.0000
  H   H346      1.0  0.36610  0.75449  0.51328  1.0000
  H   H347      1.0  0.36351  0.71262  0.51285  1.0000
  H   H348      1.0  0.32295  0.68508  0.53784  1.0000
  H   H349      1.0  0.33688  0.70148  0.57082  1.0000
  H   H350      1.0  0.29620  0.70532  0.56102  1.0000
  H   H351      1.0  0.27152  0.56831  0.49753  1.0000
  C   C294      1.0  0.00515  0.61101  0.38490  1.0000
  H   H352      1.0  0.44589  0.89439  0.63731  1.0000
  H   H353      1.0  0.03398  0.73763  0.38100  1.0000
  C   C295      1.0  0.16460  0.79292  0.64791  1.0000
  C   C296      1.0  0.44852  0.64638  0.46955  1.0000
  H   H354      1.0  0.13753  0.74846  0.52416  1.0000
  H   H355      1.0  0.25846  0.57702  0.42034  1.0000
  C   C297      1.0  0.48929  0.88013  0.59540  1.0000
  H   H356      1.0  0.13869  0.97067  0.67276  1.0000
  C   C298      1.0  0.15495  0.76117  0.59459  1.0000
  H   H357      1.0  0.47574  0.90152  0.59793  1.0000
  N   N22       1.0  0.02395  0.62908  0.36392  1.0000
  H   H358      1.0  0.10099  0.83232  0.62350  1.0000
  C   C299      1.0  0.03133  0.68768  0.37328  1.0000
  Fe  Fe37      1.0  0.47283  0.98510  0.64235  1.0000
  H   H359      1.0  0.16737  0.85341  0.64045  1.0000
  H   H360      1.0  0.44364  0.85316  0.64525  1.0000
  H   H361      1.0  0.24666  0.52066  0.47865  1.0000
  C   C300      1.0  0.01277  0.66209  0.36376  1.0000
  N   N23       1.0  0.48990  0.87247  0.64904  1.0000
  C   C301      1.0  0.49665  0.65695  0.49457  1.0000
  C   C302      1.0  0.01950  0.71845  0.37355  1.0000
  H   H362      1.0  0.06479  0.60024  0.37178  1.0000
  H   H363      1.0  0.00894  0.61949  0.40733  1.0000
  H   H364      1.0  0.06156  0.63355  0.39453  1.0000
  H   H365      1.0  0.45531  0.61054  0.51528  1.0000
  H   H366      1.0  0.11694  0.83019  0.65882  1.0000
  C   C303      1.0  0.47157  0.60475  0.49724  1.0000
  H   H367      1.0  0.25347  0.50828  0.44211  1.0000
  C   C304      1.0  0.49603  0.62109  0.45338  1.0000
  S   S77       1.0  0.44527  0.95587  0.67485  1.0000
  H   H368      1.0  0.49121  0.88614  0.54942  1.0000
  H   H369      1.0  0.49040  0.82657  0.66856  1.0000
  H   H370      1.0  0.44775  0.88193  0.67351  1.0000
  Fe  Fe38      1.0  0.21310  0.63780  0.94684  1.0000
  S   S78       1.0  0.25594  0.63701  0.91849  1.0000
  S   S79       1.0  0.18600  0.59188  0.94326  1.0000
  Fe  Fe39      1.0  0.22879  0.70336  0.97039  1.0000
  S   S80       1.0  0.27169  0.70713  0.94220  1.0000
  Fe  Fe40      1.0  0.24233  0.68670  0.90678  1.0000
  S   S81       1.0  0.23694  0.69669  0.85853  1.0000
  Fe  Fe41      1.0  0.28158  0.65736  0.95619  1.0000
  S   S82       1.0  0.32755  0.64530  0.97863  1.0000
  S   S83       1.0  0.19837  0.68654  0.93375  1.0000
  S   S84       1.0  0.23980  0.65459  0.98572  1.0000
  Fe  Fe42      1.0  0.46571  0.51982  0.97540  1.0000
  S   S85       1.0  0.42994  0.54176  0.94542  1.0000
  H   H371      1.0  0.19693  0.88918  0.79254  1.0000
  S   S86       1.0  0.04019  0.97900  0.76902  1.0000
  C   C305      1.0  0.39346  0.92099  0.68955  1.0000
  Fe  Fe43      1.0  0.26311  0.82142  0.72996  1.0000
  S   S87       1.0  0.22143  0.80163  0.70782  1.0000
  S   S88       1.0  0.27248  0.81314  0.77786  1.0000
  H   H372      1.0  0.44678  0.61160  0.94401  1.0000
  H   H373      1.0  0.18656  0.85578  0.83699  1.0000
  H   H374      1.0  0.10299  0.99763  0.74997  1.0000
  C   C306      1.0  0.31554  0.54831  0.99298  1.0000
  S   S89       1.0  0.25136  0.87172  0.71850  1.0000
  C   C307      1.0  0.33443  0.52554  0.00602  1.0000
  H   H375      1.0  0.14212  0.96354  0.74989  1.0000
  H   H376      1.0  0.45933  0.64931  0.93246  1.0000
  S   S90       1.0  0.04087  0.56524  0.92551  1.0000
  C   C308      1.0  0.30661  0.54496  0.96438  1.0000
  C   C309      1.0  0.08944  0.84401  0.81196  1.0000
  Fe  Fe44      1.0  0.21089  0.85130  0.69449  1.0000
  H   H377      1.0  0.35343  0.89268  0.70133  1.0000
  H   H378      1.0  0.40580  0.91618  0.70932  1.0000
  H   H379      1.0  0.30314  0.75305  0.97667  1.0000
  C   C310      1.0  0.14331  0.85374  0.79566  1.0000
  Fe  Fe45      1.0  0.03364  0.98994  0.72239  1.0000
  C   C311      1.0  0.13755  0.89656  0.70041  1.0000
  C   C312      1.0  0.10752  0.89754  0.71270  1.0000
  C   C313      1.0  0.08901  0.92488  0.71121  1.0000
  H   H380      1.0  0.43672  0.64500  0.96543  1.0000
  C   C314      1.0  0.06110  0.51887  0.98891  1.0000
  H   H381      1.0  0.09843  0.87700  0.72350  1.0000
  H   H382      1.0  0.06590  0.92527  0.72081  1.0000
  C   C315      1.0  0.24662  0.72970  0.83677  1.0000
  C   C316      1.0  0.26132  0.75638  0.84786  1.0000
  C   C317      1.0  0.26901  0.78163  0.82951  1.0000
  C   C318      1.0  0.26208  0.78061  0.79992  1.0000
  C   C319      1.0  0.24690  0.75416  0.78893  1.0000
  C   C320      1.0  0.23929  0.72888  0.80725  1.0000
  H   H383      1.0  0.26713  0.75741  0.87047  1.0000
  H   H384      1.0  0.28075  0.80195  0.83828  1.0000
  H   H385      1.0  0.24153  0.75290  0.76623  1.0000
  H   H386      1.0  0.22805  0.70834  0.79837  1.0000
  C   C321      1.0  0.35420  0.61473  0.96944  1.0000
  C   C322      1.0  0.35551  0.60161  0.94182  1.0000
  C   C323      1.0  0.37839  0.57874  0.93502  1.0000
  C   C324      1.0  0.39984  0.56842  0.95581  1.0000
  C   C325      1.0  0.39799  0.58095  0.98365  1.0000
  C   C326      1.0  0.37556  0.60429  0.99028  1.0000
  H   H387      1.0  0.33934  0.60954  0.92553  1.0000
  H   H388      1.0  0.37967  0.56925  0.91339  1.0000
  C   C327      1.0  0.30413  0.76558  0.99768  1.0000
  H   H389      1.0  0.23881  0.95299  0.72983  1.0000
  C   C328      1.0  0.14557  0.58593  0.93718  1.0000
  C   C329      1.0  0.13600  0.55811  0.92345  1.0000
  C   C330      1.0  0.10409  0.55182  0.91904  1.0000
  C   C331      1.0  0.08135  0.57297  0.92903  1.0000
  C   C332      1.0  0.09088  0.60068  0.94299  1.0000
  C   C333      1.0  0.12284  0.60738  0.94671  1.0000
  H   H390      1.0  0.15341  0.54131  0.91613  1.0000
  H   H391      1.0  0.09712  0.53038  0.90831  1.0000
  H   H392      1.0  0.07343  0.61709  0.95096  1.0000
  H   H393      1.0  0.12985  0.62869  0.95762  1.0000
  H   H394      1.0  0.22199  0.85851  0.77939  1.0000
  H   H395      1.0  0.21436  0.82905  0.82080  1.0000
  C   C334      1.0  0.16444  0.97495  0.74734  1.0000
  H   H396      1.0  0.49238  0.85852  0.69365  1.0000
  C   C335      1.0  0.13229  0.88238  0.78349  1.0000
  H   H397      1.0  0.19084  0.87168  0.75734  1.0000
  C   C336      1.0  0.07949  0.87233  0.80006  1.0000
  C   C337      1.0  0.12081  0.83473  0.80978  1.0000
  C   C338      1.0  0.10088  0.89147  0.78593  1.0000
  H   H398      1.0  0.14725  0.89791  0.77145  1.0000
  C   C339      1.0  0.17779  0.81439  0.77495  1.0000
  C   C340      1.0  0.48443  0.69047  0.97349  1.0000
  C   C341      1.0  0.31671  0.51893  0.94854  1.0000
  S   S91       1.0  0.29463  0.81431  0.69106  1.0000
  S   S92       1.0  0.15949  0.86137  0.70339  1.0000
  H   H399      1.0  0.31761  0.78741  0.99397  1.0000
  H   H400      1.0  0.46765  0.58749  0.98644  1.0000
  C   C342      1.0  0.08440  0.53776  0.00070  1.0000
  C   C343      1.0  0.19724  0.86682  0.78006  1.0000
  C   C344      1.0  0.45575  0.63459  0.95193  1.0000
  C   C345      1.0  0.14882  0.92305  0.68606  1.0000
  H   H401      1.0  0.12722  0.81230  0.81892  1.0000
  C   C346      1.0  0.47821  0.61012  0.99341  1.0000
  H   H402      1.0  0.03667  0.59527  0.85246  1.0000
  H   H403      1.0  0.20234  0.80610  0.77186  1.0000
  N   N24       1.0  0.17627  0.84305  0.79317  1.0000
  H   H404      1.0  0.05276  0.62812  0.89345  1.0000
  C   C347      1.0  0.03667  0.50636  0.00617  1.0000
  Fe  Fe46      1.0  0.02060  0.52595  0.89805  1.0000
  H   H405      1.0  0.07258  0.82908  0.82270  1.0000
  C   C348      1.0  0.18903  0.83542  0.82200  1.0000
  H   H406      1.0  0.17745  0.81488  0.83205  1.0000
  H   H407      1.0  0.06219  0.51458  0.96595  1.0000
  H   H408      1.0  0.16781  0.81894  0.75325  1.0000
  S   S93       1.0  0.02250  0.52493  0.84972  1.0000
  H   H409      1.0  0.09279  0.91321  0.77627  1.0000
  H   H410      1.0  0.16471  0.79449  0.78452  1.0000
  S   S94       1.0  0.21898  0.74655  0.99860  1.0000
  H   H411      1.0  0.05505  0.87933  0.80145  1.0000
  N   N25       1.0  0.15213  0.64599  0.85492  1.0000
  C   C349      1.0  0.17133  0.64031  0.82864  1.0000
  C   C350      1.0  0.14909  0.68055  0.85877  1.0000
  C   C351      1.0  0.16952  0.63288  0.87966  1.0000
  C   C352      1.0  0.12070  0.63166  0.85375  1.0000
  C   C353      1.0  0.11080  0.61218  0.83059  1.0000
  C   C354      1.0  0.09894  0.63686  0.87647  1.0000
  C   C355      1.0  0.08076  0.59930  0.83022  1.0000
  C   C356      1.0  0.06891  0.62417  0.87568  1.0000
  C   C357      1.0  0.05985  0.60542  0.85265  1.0000
  H   H412      1.0  0.15970  0.64978  0.80912  1.0000
  H   H413      1.0  0.19453  0.65206  0.83008  1.0000
  H   H414      1.0  0.17645  0.61484  0.82551  1.0000
  H   H415      1.0  0.17219  0.69239  0.85794  1.0000
  H   H416      1.0  0.13884  0.68712  0.87999  1.0000
  H   H417      1.0  0.13424  0.69102  0.84169  1.0000
  H   H418      1.0  0.19387  0.64197  0.88061  1.0000
  H   H419      1.0  0.15834  0.63890  0.90060  1.0000
  H   H420      1.0  0.17097  0.60675  0.87849  1.0000
  H   H421      1.0  0.12581  0.60632  0.81261  1.0000
  H   H422      1.0  0.10513  0.65038  0.89531  1.0000
  C   C358      1.0  0.18986  0.95545  0.74040  1.0000
  C   C359      1.0  0.13000  0.95029  0.68407  1.0000
  H   H423      1.0  0.07364  0.58424  0.81257  1.0000
  H   H424      1.0  0.18654  0.93033  0.73800  1.0000
  C   C360      1.0  0.10005  0.95132  0.69669  1.0000
  H   H425      1.0  0.27980  0.77280  0.00342  1.0000
  S   S95       1.0  0.07692  0.98578  0.69405  1.0000
  C   C361      1.0  0.36374  0.90760  0.68508  1.0000
  C   C362      1.0  0.21929  0.96821  0.73556  1.0000
  Fe  Fe47      1.0  0.27965  0.86308  0.67799  1.0000
  H   H426      1.0  0.29240  0.56299  0.95430  1.0000
  H   H427      1.0  0.41408  0.57306  0.99998  1.0000
  H   H428      1.0  0.30832  0.56916  0.00486  1.0000
  H   H429      1.0  0.35145  0.72257  0.99254  1.0000
  N   N26       1.0  0.48516  0.63065  0.96846  1.0000
  H   H430      1.0  0.10254  0.54734  0.98689  1.0000
  H   H431      1.0  0.46272  0.69291  0.96199  1.0000
  H   H432      1.0  0.48741  0.74085  0.97866  1.0000
  H   H433      1.0  0.01153  0.51228  0.95276  1.0000
  H   H434      1.0  0.11844  0.99870  0.78623  1.0000
  H   H435      1.0  0.31027  0.51681  0.92608  1.0000
  H   H436      1.0  0.36488  0.75851  0.00783  1.0000
  H   H437      1.0  0.30124  0.70297  0.00041  1.0000
  C   C363      1.0  0.22344  0.00059  0.73748  1.0000
  H   H438      1.0  0.46158  0.62173  0.00865  1.0000
  H   H439      1.0  0.17184  0.92254  0.67633  1.0000
  H   H440      1.0  0.71870  0.20908  0.28792  1.0000
  S   S96       1.0  0.52602  0.47993  0.02641  1.0000
  Fe  Fe48      1.0  0.72803  0.21567  0.21356  1.0000
  S   S97       1.0  0.77901  0.20991  0.20377  1.0000
  S   S98       1.0  0.71409  0.25688  0.24269  1.0000
  Fe  Fe49      1.0  0.71071  0.16424  0.16987  1.0000
  S   S99       1.0  0.76112  0.15509  0.15735  1.0000
  S   S100      1.0  0.67574  0.13717  0.14257  1.0000
  Fe  Fe50      1.0  0.77016  0.15806  0.20475  1.0000
  S   S101      1.0  0.80274  0.12785  0.23145  1.0000
  Fe  Fe51      1.0  0.76567  0.20765  0.15709  1.0000
  S   S102      1.0  0.79595  0.23661  0.12684  1.0000
  S   S103      1.0  0.71949  0.16361  0.21772  1.0000
  S   S104      1.0  0.71499  0.21692  0.16645  1.0000
  H   H441      1.0  0.70923  0.25297  0.02590  1.0000
  S   S105      1.0  0.94690  0.02080  0.26491  1.0000
  S   S106      1.0  0.90436  0.02759  0.18894  1.0000
  Fe  Fe52      1.0  0.52638  0.02678  0.14682  1.0000
  S   S107      1.0  0.55586  0.05688  0.17702  1.0000
  S   S108      1.0  0.53209  0.02400  0.09893  1.0000
  C   C364      1.0  0.64330  0.11406  0.15310  1.0000
  C   C365      1.0  0.62778  0.09636  0.13200  1.0000
  C   C366      1.0  0.60152  0.07807  0.13909  1.0000
  C   C367      1.0  0.59024  0.07759  0.16739  1.0000
  C   C368      1.0  0.60590  0.09514  0.18856  1.0000
  C   C369      1.0  0.63240  0.11318  0.18152  1.0000
  H   H442      1.0  0.63610  0.09677  0.10996  1.0000
  H   H443      1.0  0.58997  0.06446  0.12260  1.0000
  H   H444      1.0  0.59732  0.09496  0.21052  1.0000
  H   H445      1.0  0.64402  0.12678  0.19797  1.0000
  C   C370      1.0  0.83171  0.10136  0.21847  1.0000
  C   C371      1.0  0.83232  0.09073  0.18991  1.0000
  C   C372      1.0  0.85473  0.06818  0.18109  1.0000
  C   C373      1.0  0.87691  0.05640  0.20060  1.0000
  C   C374      1.0  0.87658  0.06755  0.22894  1.0000
  C   C375      1.0  0.85400  0.08977  0.23783  1.0000
  H   H446      1.0  0.81504  0.09916  0.17489  1.0000
  H   H447      1.0  0.85472  0.05951  0.15917  1.0000
  H   H448      1.0  0.89355  0.05889  0.24414  1.0000
  H   H449      1.0  0.85376  0.09788  0.25994  1.0000
  C   C376      1.0  0.77664  0.25015  0.03026  1.0000
  C   C377      1.0  0.79102  0.27386  0.04629  1.0000
  C   C378      1.0  0.79686  0.26940  0.07587  1.0000
  C   C379      1.0  0.78745  0.24172  0.08986  1.0000
  C   C380      1.0  0.77275  0.21821  0.07388  1.0000
  C   C381      1.0  0.76789  0.22222  0.04415  1.0000
  H   H450      1.0  0.79821  0.29532  0.03579  1.0000
  H   H451      1.0  0.80858  0.28757  0.08799  1.0000
  H   H452      1.0  0.76578  0.19662  0.08428  1.0000
  H   H453      1.0  0.75708  0.20361  0.03185  1.0000
  H   H454      1.0  0.82249  0.32775  0.30960  1.0000
  C   C382      1.0  0.71287  0.28850  0.29444  1.0000
  C   C383      1.0  0.71510  0.25891  0.28090  1.0000
  C   C384      1.0  0.71707  0.23199  0.29801  1.0000
  H   H455      1.0  0.70768  0.22727  0.06792  1.0000
  H   H456      1.0  0.91412  0.19563  0.13873  1.0000
  H   H457      1.0  0.71116  0.30943  0.28138  1.0000
  H   H458      1.0  0.55522  0.15878  0.12038  1.0000
  H   H459      1.0  0.59595  0.47160  0.05158  1.0000
  C   C385      1.0  0.71589  0.23466  0.32828  1.0000
  H   H460      1.0  0.62542  0.48852  0.07489  1.0000
  H   H461      1.0  0.94238  0.08666  0.18809  1.0000
  H   H462      1.0  0.75800  0.00613  0.14886  1.0000
  C   C386      1.0  0.72434  0.08336  0.19675  1.0000
  N   N27       1.0  0.73170  0.05692  0.17682  1.0000
  H   H463      1.0  0.88917  0.14652  0.12138  1.0000
  C   C387      1.0  0.60821  0.49366  0.05764  1.0000
  H   H464      1.0  0.80081  0.19508  0.26932  1.0000
  H   H465      1.0  0.67833  0.33228  0.03638  1.0000
  H   H466      1.0  0.67087  0.26433  0.01449  1.0000
  H   H467      1.0  0.71723  0.07485  0.21843  1.0000
  S   S109      1.0  0.99354  0.02947  0.20880  1.0000
  H   H468      1.0  0.74470  0.09932  0.19920  1.0000
  C   C388      1.0  0.77480  0.04294  0.21241  1.0000
  H   H469      1.0  0.64367  0.30940  0.03894  1.0000
  C   C389      1.0  0.75845  0.03732  0.18631  1.0000
  C   C390      1.0  0.71226  0.29120  0.32471  1.0000
  H   H470      1.0  0.90015  0.19213  0.21267  1.0000
  Fe  Fe53      1.0  0.94495  0.01214  0.21735  1.0000
  H   H471      1.0  0.85148  0.16478  0.12137  1.0000
  C   C391      1.0  0.84815  0.17916  0.17646  1.0000
  H   H472      1.0  0.78095  0.24825  0.25744  1.0000
  C   C392      1.0  0.64047  0.26653  0.08595  1.0000
  N   N28       1.0  0.51254  0.13392  0.12868  1.0000
  C   C393      1.0  0.82535  0.23471  0.32887  1.0000
  C   C394      1.0  0.62756  0.24356  0.10392  1.0000
  C   C395      1.0  0.54141  0.14946  0.13881  1.0000
  H   H473      1.0  0.89677  0.21724  0.16806  1.0000
  C   C396      1.0  0.79826  0.26960  0.29620  1.0000
  C   C397      1.0  0.70325  0.03734  0.17445  1.0000
  H   H474      1.0  0.68449  0.18794  0.09925  1.0000
  N   N29       1.0  0.87741  0.17105  0.16081  1.0000
  C   C398      1.0  0.66599  0.31476  0.05007  1.0000
  C   C399      1.0  0.73875  0.07066  0.14820  1.0000
  C   C400      1.0  0.89173  0.20053  0.15025  1.0000
  C   C401      1.0  0.86855  0.15204  0.13524  1.0000
  H   H475      1.0  0.83723  0.15786  0.18578  1.0000
  H   H476      1.0  0.68250  0.05166  0.16798  1.0000
  H   H477      1.0  0.70582  0.01841  0.15804  1.0000
  H   H478      1.0  0.95744  0.11292  0.23335  1.0000
  H   H479      1.0  0.62702  0.28786  0.08335  1.0000
  H   H480      1.0  0.93615  0.16547  0.24533  1.0000
  H   H481      1.0  0.74085  0.05258  0.13098  1.0000
  N   N30       1.0  0.68523  0.28596  0.05422  1.0000
  H   H482      1.0  0.82902  0.18634  0.31485  1.0000
  C   C402      1.0  0.64343  0.21536  0.10870  1.0000
  H   H483      1.0  0.70455  0.09802  0.18877  1.0000
  C   C403      1.0  0.90885  0.16919  0.20647  1.0000
  H   H484      1.0  0.76853  0.06169  0.22715  1.0000
  C   C404      1.0  0.91243  0.12456  0.17406  1.0000
  H   H485      1.0  0.71053  0.30612  0.08968  1.0000
  H   H486      1.0  0.73099  0.27555  0.07115  1.0000
  H   H487      1.0  0.60525  0.24777  0.11445  1.0000
  C   C405      1.0  0.94167  0.12465  0.21857  1.0000
  H   H488      1.0  0.85185  0.19600  0.19442  1.0000
  C   C406      1.0  0.98791  0.47571  0.01358  1.0000
  C   C407      1.0  0.79381  0.24453  0.27719  1.0000
  C   C408      1.0  0.92955  0.15424  0.22529  1.0000
  C   C409      1.0  0.66996  0.26176  0.07227  1.0000
  Fe  Fe54      1.0  0.99650  0.03627  0.25665  1.0000
  C   C410      1.0  0.82068  0.20975  0.30965  1.0000
  H   H489      1.0  0.76101  0.08403  0.14868  1.0000
  C   C411      1.0  0.68520  0.23259  0.07740  1.0000
  H   H490      1.0  0.85721  0.12965  0.14175  1.0000
  C   C412      1.0  0.69239  0.27289  0.02522  1.0000
  H   H491      1.0  0.66085  0.32683  0.07087  1.0000
  C   C413      1.0  0.93327  0.10997  0.19296  1.0000
  H   H492      1.0  0.90652  0.11132  0.15502  1.0000
  C   C414      1.0  0.81411  0.26551  0.32270  1.0000
  C   C415      1.0  0.80108  0.02507  0.21979  1.0000
  H   H493      1.0  0.87589  0.21324  0.13515  1.0000
  H   H494      1.0  0.83068  0.19044  0.16204  1.0000
  C   C416      1.0  0.80485  0.21461  0.28392  1.0000
  H   H495      1.0  0.63372  0.19771  0.12292  1.0000
  H   H496      1.0  0.53602  0.08915  0.12378  1.0000
  H   H497      1.0  0.85849  0.30965  0.32071  1.0000
  C   C417      1.0  0.89941  0.15470  0.18034  1.0000
  H   H498      1.0  0.55676  0.13275  0.15070  1.0000
  H   H499      1.0  0.69754  0.02599  0.19537  1.0000
  H   H500      1.0  0.78849  0.29210  0.29017  1.0000
  C   C418      1.0  0.71483  0.29568  0.06799  1.0000
  H   H501      1.0  0.71997  0.08708  0.14107  1.0000
  C   C419      1.0  0.83521  0.31805  0.32839  1.0000
  C   C420      1.0  0.52210  0.10627  0.11104  1.0000
  H   H502      1.0  0.53638  0.16933  0.15373  1.0000
  C   C421      1.0  0.67211  0.20986  0.09534  1.0000
  C   C422      1.0  0.64885  0.48916  0.01941  1.0000
  H   H503      1.0  0.72775  0.31313  0.05471  1.0000
  H   H504      1.0  0.68225  0.41541  0.02063  1.0000
  H   H505      1.0  0.53705  0.11303  0.09243  1.0000
  C   C423      1.0  0.76945  0.01209  0.16880  1.0000
  H   H506      1.0  0.70334  0.29073  0.01088  1.0000
  H   H507      1.0  0.81392  0.03059  0.23922  1.0000
  H   H508      1.0  0.64144  0.44588  0.04422  1.0000
  H   H509      1.0  0.97514  0.49577  0.02377  1.0000
  C   C424      1.0  0.65489  0.45757  0.02777  1.0000
  H   H510      1.0  0.50143  0.09331  0.10288  1.0000
  H   H511      1.0  0.50834  0.10303  0.16535  1.0000
  H   H512      1.0  0.77312  0.31382  0.33276  1.0000
  C   C425      1.0  0.67840  0.43967  0.01439  1.0000
  H   H513      1.0  0.70986  0.31407  0.33475  1.0000
  C   C426      1.0  0.81191  0.00129  0.20158  1.0000
  H   H514      1.0  0.71655  0.21362  0.34128  1.0000
  C   C427      1.0  0.71352  0.26423  0.34179  1.0000
  Fe  Fe55      1.0  0.78055  0.34908  0.42682  1.0000
  S   S110      1.0  0.73195  0.35478  0.40853  1.0000
  S   S111      1.0  0.81992  0.37010  0.39951  1.0000
  Fe  Fe56      1.0  0.75855  0.30039  0.47196  1.0000
  S   S112      1.0  0.70937  0.30240  0.45597  1.0000
  Fe  Fe57      1.0  0.72939  0.30205  0.41112  1.0000
  S   S113      1.0  0.70902  0.26621  0.37981  1.0000
  Fe  Fe58      1.0  0.71580  0.35479  0.45484  1.0000
  S   S114      1.0  0.67742  0.38207  0.47851  1.0000
  S   S115      1.0  0.77831  0.29619  0.42709  1.0000
  S   S116      1.0  0.76471  0.35302  0.47325  1.0000
  C   C428      1.0  0.85269  0.18971  0.61399  1.0000
  S   S117      1.0  0.56245  0.46624  0.43714  1.0000
  Fe  Fe59      1.0  0.97380  0.47706  0.40313  1.0000
  H   H515      1.0  0.60631  0.27532  0.41925  1.0000
  S   S118      1.0  0.93722  0.45489  0.43260  1.0000
  N   N31       1.0  0.62505  0.31784  0.40124  1.0000
  H   H516      1.0  0.63514  0.29406  0.44146  1.0000
  C   C429      1.0  0.64561  0.40505  0.46605  1.0000
  C   C430      1.0  0.64304  0.41468  0.43740  1.0000
  C   C431      1.0  0.61737  0.43329  0.42880  1.0000
  C   C432      1.0  0.59409  0.44242  0.44869  1.0000
  C   C433      1.0  0.59665  0.43265  0.47729  1.0000
  C   C434      1.0  0.62234  0.41421  0.48591  1.0000
  H   H517      1.0  0.66102  0.40823  0.42201  1.0000
  H   H518      1.0  0.61557  0.44077  0.40663  1.0000
  H   H519      1.0  0.57871  0.43902  0.49272  1.0000
  H   H520      1.0  0.62408  0.40676  0.50810  1.0000
  C   C435      1.0  0.85251  0.39334  0.40945  1.0000
  C   C436      1.0  0.87416  0.40199  0.38802  1.0000
  C   C437      1.0  0.90044  0.42041  0.39475  1.0000
  C   C438      1.0  0.90522  0.43064  0.42304  1.0000
  C   C439      1.0  0.88351  0.42207  0.44444  1.0000
  C   C440      1.0  0.85731  0.40349  0.43774  1.0000
  H   H521      1.0  0.87071  0.39423  0.36608  1.0000
  H   H522      1.0  0.91706  0.42650  0.37809  1.0000
  H   H523      1.0  0.88701  0.42981  0.46640  1.0000
  H   H524      1.0  0.84088  0.39703  0.45445  1.0000
  S   S119      1.0  0.77283  0.26201  0.50364  1.0000
  C   C441      1.0  0.82321  0.22506  0.64380  1.0000
  S   S120      1.0  0.76430  0.16205  0.65192  1.0000
  C   C442      1.0  0.65679  0.09596  0.65643  1.0000
  S   S121      1.0  0.73890  0.25066  0.63732  1.0000
  Fe  Fe60      1.0  0.52325  0.03624  0.63289  1.0000
  H   H525      1.0  0.77738  0.21088  0.54334  1.0000
  S   S122      1.0  0.51795  0.03397  0.58464  1.0000
  C   C443      1.0  0.64576  0.06873  0.64262  1.0000
  C   C444      1.0  0.61351  0.06217  0.64145  1.0000
  H   H526      1.0  0.83747  0.22913  0.34852  1.0000
  H   H527      1.0  0.66229  0.05224  0.63324  1.0000
  H   H528      1.0  0.60540  0.04083  0.63128  1.0000
  C   C445      1.0  0.76211  0.25911  0.54054  1.0000
  C   C446      1.0  0.74924  0.28447  0.55585  1.0000
  C   C447      1.0  0.74216  0.28139  0.58539  1.0000
  C   C448      1.0  0.74769  0.25296  0.59992  1.0000
  C   C449      1.0  0.76014  0.22744  0.58449  1.0000
  C   C450      1.0  0.76746  0.23061  0.55504  1.0000
  H   H529      1.0  0.74506  0.30656  0.54502  1.0000
  H   H530      1.0  0.73247  0.30125  0.59708  1.0000
  H   H531      1.0  0.76431  0.20533  0.59517  1.0000
  H   H532      1.0  0.85224  0.21154  0.56306  1.0000
  H   H533      1.0  0.88361  0.21593  0.65641  1.0000
  N   N32       1.0  0.81777  0.29241  0.34275  1.0000
  H   H534      1.0  0.65215  0.35887  0.39153  1.0000
  H   H535      1.0  0.82221  0.26608  0.38216  1.0000
  C   C451      1.0  0.84676  0.23537  0.56937  1.0000
  H   H536      1.0  0.83505  0.28632  0.62557  1.0000
  S   S123      1.0  0.52683  0.48031  0.51551  1.0000
  H   H537      1.0  0.56884  0.36997  0.47375  1.0000
  C   C452      1.0  0.65381  0.33666  0.40405  1.0000
  H   H538      1.0  0.82576  0.20751  0.66131  1.0000
  H   H539      1.0  0.83154  0.18172  0.60224  1.0000
  H   H540      1.0  0.82791  0.30358  0.53543  1.0000
  N   N33       1.0  0.84960  0.22318  0.62300  1.0000
  Fe  Fe61      1.0  0.52473  0.48498  0.46764  1.0000
  C   C453      1.0  0.62259  0.30772  0.37066  1.0000
  C   C454      1.0  0.63513  0.11716  0.66827  1.0000
  Fe  Fe62      1.0  0.74645  0.20885  0.66703  1.0000
  C   C455      1.0  0.57550  0.34984  0.39246  1.0000
  C   C456      1.0  0.59192  0.08267  0.65442  1.0000
  H   H541      1.0  0.64012  0.47898  0.49059  1.0000
  H   H542      1.0  0.87719  0.25629  0.64715  1.0000
  C   C457      1.0  0.83480  0.28431  0.36954  1.0000
  C   C458      1.0  0.84131  0.25655  0.54697  1.0000
  H   H543      1.0  0.77229  0.28558  0.36134  1.0000
  H   H544      1.0  0.87374  0.18567  0.60028  1.0000
  H   H545      1.0  0.85862  0.47510  0.40425  1.0000
  C   C459      1.0  0.83329  0.28766  0.55294  1.0000
  H   H546      1.0  0.67457  0.32335  0.39606  1.0000
  H   H547      1.0  0.53047  0.39187  0.43972  1.0000
  C   C460      1.0  0.59514  0.34505  0.44106  1.0000
  H   H548      1.0  0.57623  0.34577  0.36954  1.0000
  H   H549      1.0  0.65842  0.34341  0.42681  1.0000
  C   C461      1.0  0.57050  0.36388  0.45109  1.0000
  H   H550      1.0  0.60251  0.48055  0.52843  1.0000
  S   S124      1.0  0.69778  0.10178  0.65900  1.0000
  H   H551      1.0  0.89911  0.23126  0.62317  1.0000
  H   H552      1.0  0.80062  0.22065  0.63295  1.0000
  H   H553      1.0  0.62346  0.32805  0.35568  1.0000
  C   C462      1.0  0.60293  0.11034  0.66754  1.0000
  C   C463      1.0  0.62843  0.28893  0.41886  1.0000
  H   H554      1.0  0.84206  0.24861  0.52474  1.0000
  H   H555      1.0  0.82122  0.24821  0.65476  1.0000
  H   H556      1.0  0.78807  0.32414  0.36702  1.0000
  H   H557      1.0  0.64255  0.29215  0.36412  1.0000
  H   H558      1.0  0.60077  0.29426  0.36688  1.0000
  C   C464      1.0  0.54880  0.37621  0.43194  1.0000
  C   C465      1.0  0.83118  0.29795  0.58136  1.0000
  H   H559      1.0  0.64730  0.27316  0.41037  1.0000
  H   H560      1.0  0.61240  0.33779  0.45664  1.0000
  H   H561      1.0  0.85542  0.17377  0.63283  1.0000
  C   C466      1.0  0.87866  0.23209  0.63808  1.0000
  C   C467      1.0  0.59816  0.33700  0.41147  1.0000
  C   C468      1.0  0.83689  0.27709  0.60394  1.0000
  S   S125      1.0  0.97809  0.47053  0.35513  1.0000
  H   H562      1.0  0.82453  0.32210  0.58588  1.0000
  N   N34       1.0  0.67108  0.17383  0.59140  1.0000
  C   C469      1.0  0.68386  0.14237  0.58350  1.0000
  C   C470      1.0  0.68605  0.18344  0.61872  1.0000
  C   C471      1.0  0.63703  0.17026  0.59650  1.0000
  C   C472      1.0  0.67657  0.19818  0.56923  1.0000
  C   C473      1.0  0.66615  0.22955  0.57393  1.0000
  C   C474      1.0  0.69257  0.19188  0.54286  1.0000
  C   C475      1.0  0.67151  0.25313  0.55364  1.0000
  C   C476      1.0  0.69776  0.21568  0.52271  1.0000
  C   C477      1.0  0.68727  0.24619  0.52809  1.0000
  H   H563      1.0  0.70970  0.14303  0.58062  1.0000
  H   H564      1.0  0.67932  0.12466  0.60065  1.0000
  H   H565      1.0  0.67292  0.13309  0.56355  1.0000
  H   H566      1.0  0.67580  0.20535  0.62796  1.0000
  H   H567      1.0  0.71139  0.18796  0.61541  1.0000
  H   H568      1.0  0.68369  0.16500  0.63551  1.0000
  H   H569      1.0  0.63198  0.15124  0.61231  1.0000
  H   H570      1.0  0.62608  0.19202  0.60535  1.0000
  H   H571      1.0  0.62470  0.16428  0.57617  1.0000
  H   H572      1.0  0.65431  0.23628  0.59363  1.0000
  H   H573      1.0  0.70186  0.16898  0.53746  1.0000
  H   H574      1.0  0.66417  0.27712  0.55805  1.0000
  H   H575      1.0  0.71096  0.21082  0.50315  1.0000
  H   H576      1.0  0.69237  0.26472  0.51283  1.0000
  C   C478      1.0  0.84425  0.24496  0.59868  1.0000
  H   H577      1.0  0.85898  0.27596  0.36484  1.0000
  H   H578      1.0  0.53463  0.37944  0.38789  1.0000
  S   S126      1.0  0.55138  0.07406  0.65638  1.0000
  C   C479      1.0  0.78649  0.30447  0.35128  1.0000
  C   C480      1.0  0.55130  0.36923  0.40271  1.0000
  H   H579      1.0  0.90959  0.48526  0.38089  1.0000
  H   H580      1.0  0.83705  0.30508  0.38411  1.0000
  H   H581      1.0  0.83700  0.48700  0.37306  1.0000
  C   C481      1.0  0.84838  0.49580  0.39299  1.0000
  H   H582      1.0  0.88764  0.49226  0.34920  1.0000
  H   H583      1.0  0.83910  0.33827  0.34333  1.0000
  H   H584      1.0  0.63043  0.49975  0.55073  1.0000
  Fe  Fe63      1.0  0.78025  0.36502  0.94692  1.0000
  S   S127      1.0  0.73632  0.36876  0.92082  1.0000
  S   S128      1.0  0.80771  0.41044  0.94220  1.0000
  Fe  Fe64      1.0  0.76334  0.29916  0.96748  1.0000
  S   S129      1.0  0.71919  0.29828  0.94130  1.0000
  Fe  Fe65      1.0  0.74764  0.31961  0.90573  1.0000
  S   S130      1.0  0.74556  0.31474  0.85674  1.0000
  Fe  Fe66      1.0  0.71163  0.34718  0.95837  1.0000
  S   S131      1.0  0.66454  0.35676  0.97971  1.0000
  S   S132      1.0  0.79279  0.31679  0.93024  1.0000
  S   S133      1.0  0.75438  0.34720  0.98619  1.0000
  Fe  Fe67      1.0  0.52717  0.48184  0.97805  1.0000
  S   S134      1.0  0.56820  0.46625  0.94996  1.0000
  Fe  Fe68      1.0  0.73865  0.18663  0.72974  1.0000
  S   S135      1.0  0.77765  0.21040  0.70601  1.0000
  S   S136      1.0  0.72361  0.19399  0.77673  1.0000
  S   S137      1.0  0.84562  0.15289  0.69155  1.0000
  H   H585      1.0  0.59460  0.32526  0.94034  1.0000
  C   C482      1.0  0.58621  0.07072  0.74886  1.0000
  C   C483      1.0  0.89523  0.43079  0.85676  1.0000
  S   S138      1.0  0.75550  0.13759  0.71835  1.0000
  H   H586      1.0  0.91711  0.42977  0.86842  1.0000
  Fe  Fe69      1.0  0.96498  0.01084  0.73215  1.0000
  H   H587      1.0  0.93319  0.15542  0.82722  1.0000
  S   S139      1.0  0.91549  0.02299  0.71728  1.0000
  C   C484      1.0  0.63926  0.29995  0.91224  1.0000
  S   S140      1.0  0.97649  0.46335  0.85272  1.0000
  S   S141      1.0  0.95445  0.43304  0.93071  1.0000
  H   H588      1.0  0.61791  0.28516  0.91310  1.0000
  C   C485      1.0  0.89749  0.11515  0.69824  1.0000
  C   C486      1.0  0.91349  0.08677  0.70389  1.0000
  H   H589      1.0  0.98196  0.07737  0.77238  1.0000
  H   H590      1.0  0.82275  0.09072  0.70824  1.0000
  C   C487      1.0  0.86467  0.11682  0.69970  1.0000
  S   S142      1.0  0.70567  0.18926  0.69197  1.0000
  H   H591      1.0  0.92666  0.06728  0.80786  1.0000
  C   C488      1.0  0.89680  0.05975  0.71123  1.0000
  H   H592      1.0  0.64484  0.30824  0.93442  1.0000
  H   H593      1.0  0.60215  0.10524  0.77802  1.0000
  C   C489      1.0  0.66494  0.34465  0.89217  1.0000
  H   H594      1.0  0.55242  0.36153  0.95148  1.0000
  H   H595      1.0  0.84977  0.34631  0.86385  1.0000
  H   H596      1.0  0.64939  0.29655  0.85680  1.0000
  C   C490      1.0  0.74071  0.28036  0.83522  1.0000
  C   C491      1.0  0.73105  0.25171  0.84687  1.0000
  C   C492      1.0  0.72614  0.22551  0.82870  1.0000
  C   C493      1.0  0.73132  0.22742  0.79878  1.0000
  C   C494      1.0  0.74137  0.25597  0.78722  1.0000
  C   C495      1.0  0.74577  0.28231  0.80531  1.0000
  H   H597      1.0  0.72708  0.24976  0.86980  1.0000
  H   H598      1.0  0.71840  0.20356  0.83792  1.0000
  H   H599      1.0  0.74525  0.25792  0.76426  1.0000
  H   H600      1.0  0.75305  0.30435  0.79598  1.0000
  C   C496      1.0  0.63921  0.38873  0.97219  1.0000
  C   C497      1.0  0.64490  0.40944  0.94948  1.0000
  C   C498      1.0  0.62324  0.43350  0.94334  1.0000
  C   C499      1.0  0.59599  0.43737  0.96004  1.0000
  C   C500      1.0  0.59085  0.41737  0.98338  1.0000
  C   C501      1.0  0.61228  0.39300  0.98926  1.0000
  H   H601      1.0  0.66578  0.40683  0.93648  1.0000
  H   H602      1.0  0.62741  0.44899  0.92532  1.0000
  H   H603      1.0  0.66502  0.36405  0.87623  1.0000
  C   C502      1.0  0.59045  0.34392  0.92516  1.0000
  C   C503      1.0  0.84858  0.41545  0.93777  1.0000
  C   C504      1.0  0.85978  0.44471  0.92836  1.0000
  C   C505      1.0  0.89207  0.45016  0.92538  1.0000
  C   C506      1.0  0.91357  0.42647  0.93217  1.0000
  C   C507      1.0  0.90238  0.39717  0.94148  1.0000
  C   C508      1.0  0.87003  0.39153  0.94396  1.0000
  H   H604      1.0  0.84337  0.46336  0.92351  1.0000
  H   H605      1.0  0.90033  0.47285  0.91830  1.0000
  H   H606      1.0  0.91884  0.37876  0.94695  1.0000
  H   H607      1.0  0.86176  0.36898  0.95141  1.0000
  C   C509      1.0  0.60909  0.34808  0.90000  1.0000
  C   C510      1.0  0.55957  0.39020  0.91421  1.0000
  N   N35       1.0  0.63534  0.32677  0.89215  1.0000
  N   N36       1.0  0.81937  0.38406  0.85017  1.0000
  H   H608      1.0  0.68114  0.12236  0.71740  1.0000
  C   C511      1.0  0.79012  0.39889  0.86103  1.0000
  C   C512      1.0  0.81293  0.36860  0.82214  1.0000
  C   C513      1.0  0.84370  0.40837  0.84638  1.0000
  C   C514      1.0  0.83874  0.43389  0.82724  1.0000
  C   C515      1.0  0.87269  0.40761  0.86119  1.0000
  C   C516      1.0  0.86136  0.45711  0.82322  1.0000
  H   H609      1.0  0.60775  0.30098  0.86165  1.0000
  H   H610      1.0  0.63056  0.33187  0.84597  1.0000
  Fe  Fe70      1.0  0.97718  0.46858  0.90080  1.0000
  H   H611      1.0  0.77166  0.38106  0.86507  1.0000
  H   H612      1.0  0.78012  0.41604  0.84564  1.0000
  H   H613      1.0  0.83463  0.35808  0.81281  1.0000
  H   H614      1.0  0.79548  0.34935  0.82445  1.0000
  H   H615      1.0  0.80317  0.38516  0.80607  1.0000
  H   H616      1.0  0.81727  0.43611  0.81530  1.0000
  N   N37       1.0  0.66504  0.11087  0.76013  1.0000
  H   H617      1.0  0.92791  0.10102  0.83092  1.0000
  H   H618      1.0  0.83174  0.36869  0.89287  1.0000
  H   H619      1.0  0.70534  0.08280  0.74726  1.0000
  H   H620      1.0  0.87850  0.38966  0.87667  1.0000
  H   H621      1.0  0.79428  0.41160  0.88167  1.0000
  H   H622      1.0  0.68938  0.15132  0.74416  1.0000
  C   C517      1.0  0.63047  0.31352  0.86292  1.0000
  H   H623      1.0  0.66907  0.35526  0.91373  1.0000
  C   C518      1.0  0.86400  0.06148  0.71274  1.0000
  C   C519      1.0  0.91553  0.12033  0.77714  1.0000
  H   H624      1.0  0.93862  0.08550  0.70160  1.0000
  H   H625      1.0  0.68538  0.32936  0.88673  1.0000
  C   C520      1.0  0.82820  0.35899  0.87081  1.0000
  H   H626      1.0  0.65895  0.28423  0.90555  1.0000
  H   H627      1.0  0.58639  0.12637  0.67756  1.0000
  C   C521      1.0  0.62361  0.04894  0.71525  1.0000
  H   H628      1.0  0.57287  0.41555  0.87636  1.0000
  C   C522      1.0  0.60189  0.37442  0.88247  1.0000
  Fe  Fe71      1.0  0.79287  0.16157  0.69252  1.0000
  C   C523      1.0  0.69079  0.48317  0.98337  1.0000
  C   C524      1.0  0.56599  0.36468  0.93192  1.0000
  H   H629      1.0  0.90174  0.13290  0.79395  1.0000
  H   H630      1.0  0.61537  0.37952  0.86335  1.0000
  H   H631      1.0  0.54121  0.40679  0.92006  1.0000
  H   H632      1.0  0.80959  0.34088  0.87271  1.0000
  C   C525      1.0  0.57754  0.39514  0.88960  1.0000
  H   H633      1.0  0.62882  0.03366  0.69709  1.0000
  H   H634      1.0  0.90701  0.47365  0.83482  1.0000
  H   H635      1.0  0.71421  0.43826  0.98174  1.0000
  H   H636      1.0  0.91060  0.13578  0.69219  1.0000
  C   C526      1.0  0.59326  0.05049  0.72607  1.0000
  H   H637      1.0  0.56241  0.07203  0.75694  1.0000
  C   C527      1.0  0.96621  0.13542  0.79610  1.0000
  H   H638      1.0  0.66955  0.06731  0.71626  1.0000
  H   H639      1.0  0.97642  0.49162  0.96042  1.0000
  H   H640      1.0  0.71239  0.10907  0.77608  1.0000
  C   C528      1.0  0.88955  0.45555  0.83795  1.0000
  H   H641      1.0  0.96329  0.07997  0.82243  1.0000
  H   H642      1.0  0.57500  0.03654  0.71627  1.0000
  S   S143      1.0  0.76923  0.25396  0.99294  1.0000
  C   C529      1.0  0.69425  0.09335  0.76674  1.0000
  H   H643      1.0  0.85718  0.47648  0.80859  1.0000
  N   N38       1.0  0.94605  0.10865  0.78791  1.0000
  C   C530      1.0  0.69633  0.45244  0.99229  1.0000
  H   H644      1.0  0.96469  0.10203  0.74509  1.0000
  H   H645      1.0  0.96648  0.19901  0.84202  1.0000
  C   C531      1.0  0.60940  0.08980  0.76073  1.0000
  C   C532      1.0  0.64687  0.06817  0.72664  1.0000
  H   H646      1.0  0.91884  0.13670  0.75872  1.0000
  H   H647      1.0  0.68973  0.07413  0.78238  1.0000
  C   C533      1.0  0.94065  0.08846  0.81340  1.0000
  H   H648      1.0  0.85084  0.04065  0.71811  1.0000
  H   H649      1.0  0.90052  0.10074  0.76933  1.0000
  H   H650      1.0  0.94413  0.06878  0.75895  1.0000
  C   C534      1.0  0.65600  0.12880  0.78646  1.0000
  C   C535      1.0  0.95989  0.08846  0.76502  1.0000
  C   C536      1.0  0.84799  0.08985  0.70714  1.0000
  H   H651      1.0  0.64983  0.11275  0.80446  1.0000
  H   H652      1.0  0.67543  0.14406  0.79413  1.0000
  C   C537      1.0  0.64054  0.08918  0.74981  1.0000
  C   C538      1.0  0.67175  0.13389  0.73717  1.0000
  H   H653      1.0  0.65030  0.14713  0.73103  1.0000
  H   H654      1.0  0.63611  0.14511  0.78239  1.0000
  C   C539      1.0  0.95585  0.15756  0.81708  1.0000
  H   H655      1.0  0.96993  0.46106  0.00259  1.0000
  H   H656      1.0  0.70449  0.49285  0.96585  1.0000
  C   C540      1.0  0.99664  0.13993  0.78437  1.0000
  H   H657      1.0  0.56987  0.42001  0.99629  1.0000
  Fe  Fe72      1.0  0.72521  0.14222  0.67891  1.0000
  H   H658      1.0  0.64310  0.13852  0.67840  1.0000
  C   C541      1.0  0.97476  0.18255  0.82577  1.0000
  H   H659      1.0  0.59058  0.49096  0.00173  1.0000
  H   H660      1.0  0.60770  0.37713  0.00690  1.0000
  H   H661      1.0  0.81405  0.70879  0.04862  1.0000
  S   S144      1.0  0.53088  0.56859  0.05362  1.0000
  Fe  Fe73      1.0  0.65657  0.70708  0.04678  1.0000
  S   S145      1.0  0.63890  0.75179  0.02656  1.0000
  H   H662      1.0  0.62813  0.75366  0.17878  1.0000
  Fe  Fe74      1.0  0.70302  0.74225  0.08613  1.0000
  S   S146      1.0  0.68876  0.78887  0.06754  1.0000
  S   S147      1.0  0.74450  0.74587  0.11701  1.0000
  Fe  Fe75      1.0  0.63949  0.77172  0.07168  1.0000
  S   S148      1.0  0.60142  0.79859  0.09656  1.0000
  Fe  Fe76      1.0  0.68979  0.76492  0.02411  1.0000
  S   S149      1.0  0.65362  0.72563  0.09232  1.0000
  S   S150      1.0  0.70752  0.71964  0.04232  1.0000
  S   S151      1.0  0.79590  0.70972  0.32805  1.0000
  Fe  Fe77      1.0  0.84702  0.77643  0.29616  1.0000
  S   S152      1.0  0.84998  0.72643  0.27954  1.0000
  S   S153      1.0  0.86849  0.81689  0.27084  1.0000
  Fe  Fe78      1.0  0.79732  0.72727  0.28214  1.0000
  S   S154      1.0  0.76168  0.70896  0.24960  1.0000
  Fe  Fe79      1.0  0.84851  0.71269  0.32649  1.0000
  C   C542      1.0  0.77273  0.77691  0.04281  1.0000
  S   S155      1.0  0.79455  0.77746  0.29627  1.0000
  Fe  Fe80      1.0  0.96666  0.97161  0.26753  1.0000
  S   S156      1.0  0.95337  0.93508  0.30117  1.0000
  S   S157      1.0  0.96154  0.96188  0.22029  1.0000
  Fe  Fe81      1.0  0.52223  0.97217  0.10406  1.0000
  H   H663      1.0  0.82580  0.79321  0.06805  1.0000
  S   S158      1.0  0.55350  0.93962  0.07714  1.0000
  C   C543      1.0  0.89289  0.84888  0.28009  1.0000
  C   C544      1.0  0.89937  0.87141  0.25888  1.0000
  C   C545      1.0  0.91802  0.89769  0.26499  1.0000
  C   C546      1.0  0.93048  0.90177  0.29248  1.0000
  C   C547      1.0  0.92445  0.87901  0.31366  1.0000
  C   C548      1.0  0.90577  0.85262  0.30752  1.0000
  H   H664      1.0  0.88957  0.86869  0.23759  1.0000
  H   H665      1.0  0.92219  0.91503  0.24854  1.0000
  S   S159      1.0  0.64358  0.66045  0.02583  1.0000
  C   C549      1.0  0.60197  0.61401  0.01293  1.0000
  N   N39       1.0  0.62347  0.50851  0.03232  1.0000
  C   C550      1.0  0.92253  0.60792  0.30790  1.0000
  C   C551      1.0  0.90483  0.63520  0.31435  1.0000
  H   H666      1.0  0.92816  0.60235  0.28571  1.0000
  H   H667      1.0  0.89701  0.65048  0.29723  1.0000
  C   C552      1.0  0.74852  0.73540  0.15392  1.0000
  C   C553      1.0  0.72633  0.71729  0.16845  1.0000
  C   C554      1.0  0.73078  0.70939  0.19765  1.0000
  C   C555      1.0  0.75739  0.71947  0.21273  1.0000
  C   C556      1.0  0.77962  0.73752  0.19815  1.0000
  C   C557      1.0  0.77519  0.74538  0.16895  1.0000
  H   H668      1.0  0.70610  0.70878  0.15708  1.0000
  H   H669      1.0  0.71355  0.69524  0.20865  1.0000
  H   H670      1.0  0.80027  0.74533  0.20937  1.0000
  H   H671      1.0  0.79263  0.75925  0.15795  1.0000
  C   C558      1.0  0.58908  0.83815  0.09125  1.0000
  C   C559      1.0  0.59998  0.85616  0.06822  1.0000
  C   C560      1.0  0.58895  0.88718  0.06442  1.0000
  C   C561      1.0  0.56716  0.90071  0.08368  1.0000
  C   C562      1.0  0.55661  0.88285  0.10700  1.0000
  C   C563      1.0  0.56743  0.85170  0.11066  1.0000
  H   H672      1.0  0.61655  0.84609  0.05307  1.0000
  H   H673      1.0  0.59721  0.90074  0.04628  1.0000
  H   H674      1.0  0.53983  0.89291  0.12194  1.0000
  H   H675      1.0  0.55876  0.83796  0.12849  1.0000
  C   C564      1.0  0.56100  0.59522  0.04479  1.0000
  C   C565      1.0  0.56954  0.61823  0.06499  1.0000
  C   C566      1.0  0.59416  0.63914  0.05919  1.0000
  C   C567      1.0  0.61077  0.63678  0.03328  1.0000
  H   H676      1.0  0.80163  0.84672  0.29634  1.0000
  C   C568      1.0  0.84853  0.57915  0.32870  1.0000
  H   H677      1.0  0.55723  0.61976  0.08537  1.0000
  H   H678      1.0  0.60079  0.65654  0.07504  1.0000
  H   H679      1.0  0.61619  0.80853  0.19202  1.0000
  H   H680      1.0  0.78014  0.72090  0.06898  1.0000
  H   H681      1.0  0.90141  0.83523  0.32394  1.0000
  H   H682      1.0  0.77304  0.83781  0.32311  1.0000
  H   H683      1.0  0.75288  0.79552  0.22005  1.0000
  N   N40       1.0  0.80966  0.86882  0.33754  1.0000
  H   H684      1.0  0.77732  0.71527  0.03113  1.0000
  H   H685      1.0  0.56267  0.68789  0.01537  1.0000
  H   H686      1.0  0.76017  0.77733  0.06385  1.0000
  H   H687      1.0  0.84121  0.75358  0.07223  1.0000
  C   C569      1.0  0.85023  0.93017  0.29038  1.0000
  H   H688      1.0  0.62951  0.76438  0.14191  1.0000
  H   H689      1.0  0.81761  0.89434  0.28186  1.0000
  C   C570      1.0  0.93310  0.58798  0.32993  1.0000
  H   H690      1.0  0.64327  0.55450  0.02368  1.0000
  H   H691      1.0  0.77266  0.87593  0.30684  1.0000
  H   H692      1.0  0.99528  0.61255  0.32864  1.0000
  S   S160      1.0  0.95607  0.55436  0.32105  1.0000
  C   C571      1.0  0.83084  0.90543  0.29876  1.0000
  C   C572      1.0  0.79298  0.72421  0.04828  1.0000
  H   H693      1.0  0.61750  0.55358  0.05355  1.0000
  H   H694      1.0  0.80571  0.76510  0.08968  1.0000
  N   N41       1.0  0.80164  0.75758  0.04383  1.0000
  H   H695      1.0  0.75581  0.76772  0.02697  1.0000
  Fe  Fe82      1.0  0.51236  0.53097  0.02367  1.0000
  H   H696      1.0  0.64222  0.83959  0.18167  1.0000
  H   H697      1.0  0.61814  0.82051  0.15537  1.0000
  H   H698      1.0  0.72279  0.80353  0.17673  1.0000
  C   C573      1.0  0.78833  0.85699  0.31487  1.0000
  H   H699      1.0  0.80453  0.97605  0.16216  1.0000
  C   C574      1.0  0.82970  0.89507  0.32784  1.0000
  H   H700      1.0  0.63943  0.77350  0.22295  1.0000
  C   C575      1.0  0.79594  0.99458  0.17629  1.0000
  C   C576      1.0  0.86926  0.94500  0.31041  1.0000
  H   H701      1.0  0.88507  0.96342  0.30360  1.0000
  H   H702      1.0  0.98990  0.91150  0.25256  1.0000
  S   S161      1.0  0.51932  0.97461  0.15247  1.0000
  C   C577      1.0  0.86913  0.93508  0.33892  1.0000
  H   H703      1.0  0.85137  0.93720  0.26799  1.0000
  H   H704      1.0  0.72823  0.77511  0.26422  1.0000
  H   H705      1.0  0.67160  0.76462  0.26550  1.0000
  H   H706      1.0  0.99111  0.84538  0.22765  1.0000
  H   H707      1.0  0.65586  0.53650  0.05662  1.0000
  C   C578      1.0  0.81960  0.76788  0.06943  1.0000
  H   H708      1.0  0.85335  0.58427  0.30626  1.0000
  H   H709      1.0  0.87741  0.53877  0.32816  1.0000
  N   N42       1.0  0.65803  0.79335  0.16935  1.0000
  C   C579      1.0  0.67574  0.80439  0.14375  1.0000
  C   C580      1.0  0.64391  0.76269  0.16173  1.0000
  C   C581      1.0  0.63259  0.81646  0.17497  1.0000
  C   C582      1.0  0.67753  0.78970  0.19538  1.0000
  C   C583      1.0  0.66401  0.77890  0.22151  1.0000
  C   C584      1.0  0.71014  0.79603  0.19564  1.0000
  C   C585      1.0  0.68212  0.77395  0.24607  1.0000
  C   C586      1.0  0.72787  0.79153  0.22051  1.0000
  C   C587      1.0  0.71401  0.78010  0.24550  1.0000
  H   H710      1.0  0.69439  0.78732  0.13738  1.0000
  H   H711      1.0  0.66034  0.80710  0.12466  1.0000
  H   H712      1.0  0.68641  0.82780  0.14754  1.0000
  H   H713      1.0  0.66231  0.74457  0.15776  1.0000
  H   H714      1.0  0.57855  0.52649  0.01952  1.0000
  C   C588      1.0  0.85005  0.77212  0.01454  1.0000
  H   H715      1.0  0.93404  0.88195  0.33499  1.0000
  H   H716      1.0  0.77778  0.80164  0.03664  1.0000
  H   H717      1.0  0.81999  0.62049  0.33470  1.0000
  H   H718      1.0  0.58984  0.50928  0.06729  1.0000
  H   H719      1.0  0.83311  0.98847  0.20686  1.0000
  C   C589      1.0  0.63565  0.53946  0.04189  1.0000
  C   C590      1.0  0.57692  0.59361  0.01844  1.0000
  H   H720      1.0  0.97400  0.85526  0.26146  1.0000
  H   H721      1.0  0.84408  0.83329  0.32832  1.0000
  C   C591      1.0  0.81892  0.76066  0.01626  1.0000
  H   H722      1.0  0.86297  0.77924  0.03332  1.0000
  C   C592      1.0  0.86234  0.55298  0.34173  1.0000
  Fe  Fe83      1.0  0.79714  0.76030  0.34201  1.0000
  C   C593      1.0  0.99649  0.84835  0.25087  1.0000
  C   C594      1.0  0.59909  0.51374  0.01037  1.0000
  H   H723      1.0  0.59164  0.51641  0.54590  1.0000
  S   S162      1.0  0.74473  0.77098  0.50935  1.0000
  H   H724      1.0  0.81536  0.82218  0.35467  1.0000
  S   S163      1.0  0.76239  0.78408  0.37307  1.0000
  C   C595      1.0  0.72160  0.88356  0.52546  1.0000
  C   C596      1.0  0.59640  0.52555  0.48957  1.0000
  H   H725      1.0  0.55514  0.59244  0.49304  1.0000
  S   S164      1.0  0.97383  0.52992  0.40127  1.0000
  H   H726      1.0  0.86984  0.53729  0.43012  1.0000
  H   H727      1.0  0.80899  0.60946  0.38587  1.0000
  H   H728      1.0  0.94631  0.70461  0.34864  1.0000
  H   H729      1.0  0.90260  0.62836  0.38713  1.0000
  H   H730      1.0  0.93324  0.58022  0.37557  1.0000
  C   C597      1.0  0.75709  0.77649  0.41052  1.0000
  C   C598      1.0  0.72778  0.78264  0.42335  1.0000
  C   C599      1.0  0.72318  0.77947  0.45333  1.0000
  C   C600      1.0  0.74818  0.77105  0.47106  1.0000
  C   C601      1.0  0.77750  0.76491  0.45826  1.0000
  C   C602      1.0  0.78185  0.76712  0.42816  1.0000
  H   H731      1.0  0.70849  0.79004  0.40998  1.0000
  H   H732      1.0  0.70053  0.78447  0.46278  1.0000
  H   H733      1.0  0.79709  0.75861  0.47170  1.0000
  H   H734      1.0  0.80460  0.76258  0.41872  1.0000
  H   H735      1.0  0.62796  0.94934  0.50189  1.0000
  S   S165      1.0  0.53658  0.56488  0.54811  1.0000
  Fe  Fe84      1.0  0.64218  0.72080  0.54436  1.0000
  S   S166      1.0  0.64990  0.76985  0.52695  1.0000
  S   S167      1.0  0.61330  0.68822  0.51601  1.0000
  Fe  Fe85      1.0  0.68713  0.73126  0.59515  1.0000
  S   S168      1.0  0.69809  0.78008  0.58086  1.0000
  S   S169      1.0  0.70969  0.70679  0.63364  1.0000
  Fe  Fe86      1.0  0.64638  0.78546  0.57335  1.0000
  S   S170      1.0  0.62380  0.82784  0.59578  1.0000
  Fe  Fe87      1.0  0.70077  0.76039  0.53572  1.0000
  S   S171      1.0  0.63501  0.73709  0.59013  1.0000
  S   S172      1.0  0.69332  0.71081  0.55059  1.0000
  H   H736      1.0  0.77359  0.85979  0.36914  1.0000
  S   S173      1.0  0.52565  0.98366  0.63897  1.0000
  S   S174      1.0  0.54212  0.94731  0.55998  1.0000
  C   C603      1.0  0.64682  0.57378  0.49544  1.0000
  C   C604      1.0  0.97024  0.70001  0.35525  1.0000
  C   C605      1.0  0.60049  0.86032  0.58496  1.0000
  C   C606      1.0  0.59314  0.86612  0.55615  1.0000
  C   C607      1.0  0.57516  0.89281  0.54884  1.0000
  C   C608      1.0  0.56410  0.91370  0.57022  1.0000
  C   C609      1.0  0.57136  0.90777  0.59897  1.0000
  C   C610      1.0  0.58949  0.88127  0.60627  1.0000
  H   H737      1.0  0.60123  0.85017  0.53952  1.0000
  H   H738      1.0  0.56974  0.89732  0.52652  1.0000
  H   H739      1.0  0.56349  0.92395  0.61549  1.0000
  H   H740      1.0  0.59520  0.87706  0.62858  1.0000
  C   C611      1.0  0.55855  0.59867  0.53882  1.0000
  C   C612      1.0  0.57064  0.61776  0.56085  1.0000
  C   C613      1.0  0.58782  0.64505  0.55433  1.0000
  C   C614      1.0  0.59289  0.65359  0.52564  1.0000
  C   C615      1.0  0.58085  0.63443  0.50364  1.0000
  C   C616      1.0  0.56397  0.60703  0.51016  1.0000
  H   H741      1.0  0.56665  0.61145  0.58311  1.0000
  H   H742      1.0  0.59691  0.65959  0.57147  1.0000
  H   H743      1.0  0.58469  0.64086  0.48140  1.0000
  H   H744      1.0  0.60318  0.53653  0.46883  1.0000
  S   S175      1.0  0.87702  0.67752  0.35285  1.0000
  H   H745      1.0  0.75968  0.68189  0.56347  1.0000
  C   C617      1.0  0.74184  0.75534  0.66080  1.0000
  H   H746      1.0  0.97980  0.74836  0.36512  1.0000
  H   H747      1.0  0.52757  0.82111  0.63100  1.0000
  H   H748      1.0  0.58620  0.50237  0.48393  1.0000
  N   N43       1.0  0.69412  0.87429  0.54306  1.0000
  C   C618      1.0  0.70595  0.86353  0.57141  1.0000
  C   C619      1.0  0.67890  0.84710  0.52901  1.0000
  C   C620      1.0  0.67164  0.90085  0.54524  1.0000
  C   C621      1.0  0.66115  0.91348  0.57204  1.0000
  C   C622      1.0  0.65915  0.91463  0.51995  1.0000
  C   C623      1.0  0.63999  0.93865  0.57319  1.0000
  C   C624      1.0  0.63780  0.93962  0.52140  1.0000
  C   C625      1.0  0.62831  0.95164  0.54797  1.0000
  H   H749      1.0  0.68669  0.85417  0.58515  1.0000
  H   H750      1.0  0.71776  0.88285  0.58324  1.0000
  H   H751      1.0  0.65812  0.83946  0.54164  1.0000
  H   H752      1.0  0.67078  0.85249  0.50690  1.0000
  H   H753      1.0  0.66538  0.90583  0.49883  1.0000
  N   N44       1.0  0.87248  0.51956  0.38622  1.0000
  H   H754      1.0  0.61096  0.97034  0.54909  1.0000
  H   H755      1.0  0.53816  0.72435  0.48121  1.0000
  H   H756      1.0  0.90103  0.51078  0.42374  1.0000
  H   H757      1.0  0.85107  0.90318  0.36980  1.0000
  C   C626      1.0  0.52667  0.82709  0.58595  1.0000
  N   N45       1.0  0.79438  0.71518  0.57763  1.0000
  C   C627      1.0  0.77751  0.68495  0.58061  1.0000
  C   C628      1.0  0.77180  0.74136  0.58171  1.0000
  C   C629      1.0  0.80636  0.71697  0.54758  1.0000
  C   C630      1.0  0.81902  0.71748  0.59980  1.0000
  C   C631      1.0  0.85100  0.72286  0.59299  1.0000
  C   C632      1.0  0.81112  0.71523  0.62943  1.0000
  H   H758      1.0  0.90329  0.54998  0.40977  1.0000
  H   H759      1.0  0.83140  0.56317  0.40914  1.0000
  C   C633      1.0  0.51880  0.67957  0.53869  1.0000
  H   H760      1.0  0.76440  0.68330  0.60131  1.0000
  H   H761      1.0  0.79395  0.66462  0.57951  1.0000
  H   H762      1.0  0.75923  0.73992  0.60263  1.0000
  H   H763      1.0  0.75360  0.74124  0.56476  1.0000
  H   H764      1.0  0.78362  0.76456  0.58084  1.0000
  H   H765      1.0  0.82321  0.69762  0.54276  1.0000
  H   H766      1.0  0.78710  0.71505  0.53157  1.0000
  H   H767      1.0  0.81761  0.74002  0.54322  1.0000
  H   H768      1.0  0.85931  0.72496  0.57112  1.0000
  H   H769      1.0  0.78736  0.71115  0.63625  1.0000
  H   H770      1.0  0.64670  0.56674  0.47307  1.0000
  C   C634      1.0  0.85759  0.54656  0.37148  1.0000
  C   C635      1.0  0.92550  0.59538  0.35845  1.0000
  C   C636      1.0  0.61149  0.50407  0.53490  1.0000
  H   H771      1.0  0.52004  0.61341  0.45919  1.0000
  H   H772      1.0  0.62663  0.55220  0.56401  1.0000
  H   H773      1.0  0.50631  0.68535  0.45647  1.0000
  C   C637      1.0  0.50134  0.65635  0.52488  1.0000
  C   C638      1.0  0.78994  0.87881  0.36238  1.0000
  H   H774      1.0  0.69512  0.82658  0.52702  1.0000
  C   C639      1.0  0.87337  0.72586  0.61471  1.0000
  C   C640      1.0  0.82964  0.84217  0.34664  1.0000
  H   H775      1.0  0.54689  0.72093  0.53355  1.0000
  C   C641      1.0  0.51643  0.84488  0.56270  1.0000
  C   C642      1.0  0.51815  0.83555  0.61405  1.0000
  N   N46       1.0  0.62294  0.52218  0.50969  1.0000
  C   C643      1.0  0.63512  0.55365  0.51727  1.0000
  C   C644      1.0  0.63582  0.56528  0.54602  1.0000
  S   S176      1.0  0.51375  0.53683  0.46910  1.0000
  C   C645      1.0  0.64779  0.59504  0.55231  1.0000
  C   C646      1.0  0.65837  0.60364  0.50196  1.0000
  C   C647      1.0  0.65893  0.61420  0.53034  1.0000
  Fe  Fe88      1.0  0.98099  0.52357  0.35396  1.0000
  H   H776      1.0  0.73293  0.90484  0.53461  1.0000
  H   H777      1.0  0.84586  0.84863  0.36423  1.0000
  C   C648      1.0  0.90809  0.62271  0.36493  1.0000
  H   H778      1.0  0.77572  0.89993  0.35695  1.0000
  C   C649      1.0  0.50402  0.90348  0.65517  1.0000
  C   C650      1.0  0.86465  0.72380  0.64360  1.0000
  H   H779      1.0  0.73436  0.77029  0.64336  1.0000
  C   C651      1.0  0.82371  0.59342  0.37359  1.0000
  C   C652      1.0  0.50951  0.68278  0.47937  1.0000
  H   H780      1.0  0.66894  0.50146  0.50941  1.0000
  H   H781      1.0  0.64741  0.60381  0.57426  1.0000
  H   H782      1.0  0.80395  0.88436  0.38177  1.0000
  H   H783      1.0  0.66699  0.63775  0.53521  1.0000
  H   H784      1.0  0.89765  0.72996  0.60914  1.0000
  H   H785      1.0  0.66818  0.90385  0.59248  1.0000
  H   H786      1.0  0.71531  0.88876  0.50280  1.0000
  H   H787      1.0  0.73947  0.86439  0.52434  1.0000
  H   H788      1.0  0.72331  0.84408  0.56902  1.0000
  H   H789      1.0  0.63161  0.94741  0.59381  1.0000
  H   H790      1.0  0.66630  0.61905  0.48490  1.0000
  Fe  Fe89      1.0  0.51266  0.53124  0.51701  1.0000
  C   C653      1.0  0.88718  0.52998  0.41354  1.0000
  C   C654      1.0  0.50023  0.85047  0.67190  1.0000
  C   C655      1.0  0.73181  0.72410  0.66192  1.0000
  H   H791      1.0  0.91538  0.52108  0.36174  1.0000
  H   H792      1.0  0.54225  0.80724  0.58226  1.0000
  C   C656      1.0  0.52731  0.70561  0.49338  1.0000
  H   H793      1.0  0.52391  0.83881  0.54105  1.0000
  Fe  Fe90      1.0  0.51766  0.98122  0.59117  1.0000
  C   C657      1.0  0.83706  0.56710  0.38678  1.0000
  C   C658      1.0  0.83355  0.71854  0.65093  1.0000
  H   H794      1.0  0.88195  0.72634  0.66040  1.0000
  C   C659      1.0  0.53206  0.70391  0.52294  1.0000
  H   H795      1.0  0.57744  0.54008  0.49939  1.0000
  C   C660      1.0  0.84972  0.91050  0.34760  1.0000
  H   H796      1.0  0.88489  0.94601  0.35413  1.0000
  H   H797      1.0  0.82968  0.50545  0.40725  1.0000
  C   C661      1.0  0.98190  0.66929  0.35470  1.0000
  H   H798      1.0  0.52991  0.90250  0.65304  1.0000
  H   H799      1.0  0.52324  0.67792  0.56160  1.0000
  C   C662      1.0  0.49892  0.86233  0.61961  1.0000
  C   C663      1.0  0.89727  0.50398  0.36864  1.0000
  C   C664      1.0  0.64794  0.50331  0.49547  1.0000
  H   H800      1.0  0.97981  0.61266  0.38068  1.0000
  C   C665      1.0  0.98902  0.72458  0.36461  1.0000
  H   H801      1.0  0.65537  0.51343  0.47453  1.0000
  H   H802      1.0  0.52619  0.84875  0.67284  1.0000
  H   H803      1.0  0.96626  0.65108  0.34750  1.0000
  H   H804      1.0  0.82667  0.71720  0.67346  1.0000
  C   C666      1.0  0.89765  0.64280  0.34297  1.0000
  H   H805      1.0  0.49802  0.63910  0.43627  1.0000
  S   S177      1.0  0.84964  0.76291  0.34289  1.0000
  C   C667      1.0  0.82965  0.59958  0.34467  1.0000
  C   C668      1.0  0.49789  0.87142  0.56742  1.0000
  S   S178      1.0  0.51633  0.53367  0.97578  1.0000
  H   H806      1.0  0.77165  0.78638  0.89427  1.0000
  Fe  Fe91      1.0  0.80305  0.73974  0.83982  1.0000
  S   S179      1.0  0.81588  0.70653  0.80322  1.0000
  S   S180      1.0  0.76965  0.72077  0.87418  1.0000
  Fe  Fe92      1.0  0.85095  0.78901  0.82008  1.0000
  S   S181      1.0  0.86786  0.75886  0.78349  1.0000
  S   S182      1.0  0.86539  0.83958  0.82887  1.0000
  Fe  Fe93      1.0  0.81669  0.74976  0.77485  1.0000
  S   S183      1.0  0.80015  0.76371  0.72952  1.0000
  Fe  Fe94      1.0  0.86560  0.71834  0.81468  1.0000
  S   S184      1.0  0.90736  0.68659  0.82496  1.0000
  S   S185      1.0  0.79993  0.78172  0.81065  1.0000
  S   S186      1.0  0.85257  0.74968  0.85213  1.0000
  H   H807      1.0  0.86549  0.82148  0.73062  1.0000
  C   C669      1.0  0.52645  0.71740  0.99805  1.0000
  C   C670      1.0  0.90218  0.93585  0.72369  1.0000
  Fe  Fe95      1.0  0.97073  0.51622  0.85234  1.0000
  S   S187      1.0  0.93202  0.53827  0.82557  1.0000
  S   S188      1.0  0.96821  0.52056  0.90039  1.0000
  C   C671      1.0  0.89948  0.85750  0.81471  1.0000
  C   C672      1.0  0.90136  0.89048  0.81421  1.0000
  C   C673      1.0  0.92817  0.90559  0.80338  1.0000
  C   C674      1.0  0.95364  0.88777  0.79347  1.0000
  C   C675      1.0  0.95167  0.85478  0.79379  1.0000
  C   C676      1.0  0.92459  0.83969  0.80404  1.0000
  H   H808      1.0  0.88205  0.90446  0.82240  1.0000
  H   H809      1.0  0.92940  0.93097  0.80327  1.0000
  H   H810      1.0  0.97127  0.84081  0.78622  1.0000
  H   H811      1.0  0.92349  0.81429  0.80437  1.0000
  C   C677      1.0  0.91285  0.64512  0.82537  1.0000
  C   C678      1.0  0.93902  0.63277  0.83972  1.0000
  C   C679      1.0  0.94499  0.60016  0.84016  1.0000
  C   C680      1.0  0.92495  0.57948  0.82597  1.0000
  C   C681      1.0  0.89865  0.59174  0.81173  1.0000
  C   C682      1.0  0.89255  0.62439  0.81146  1.0000
  H   H812      1.0  0.95493  0.64858  0.85042  1.0000
  H   H813      1.0  0.96528  0.59108  0.85121  1.0000
  H   H814      1.0  0.88307  0.57593  0.80064  1.0000
  H   H815      1.0  0.87262  0.63353  0.79994  1.0000
  Fe  Fe96      1.0  0.99290  0.95632  0.76659  1.0000
  C   C683      1.0  0.80445  0.75226  0.98992  1.0000
  C   C684      1.0  0.77239  0.74811  0.70492  1.0000
  C   C685      1.0  0.76173  0.71713  0.70647  1.0000
  H   H816      1.0  0.80613  0.63207  0.92347  1.0000
  H   H817      1.0  0.81460  0.57850  0.85971  1.0000
  H   H818      1.0  0.83596  0.87736  0.78786  1.0000
  H   H819      1.0  0.76942  0.70216  0.72384  1.0000
  C   C686      1.0  0.75469  0.74041  0.90525  1.0000
  C   C687      1.0  0.73809  0.72295  0.92590  1.0000
  C   C688      1.0  0.72573  0.73744  0.95088  1.0000
  C   C689      1.0  0.72967  0.76970  0.95543  1.0000
  C   C690      1.0  0.74647  0.78713  0.93489  1.0000
  C   C691      1.0  0.75897  0.77260  0.90994  1.0000
  H   H820      1.0  0.73448  0.69808  0.92244  1.0000
  H   H821      1.0  0.71276  0.72373  0.96642  1.0000
  H   H822      1.0  0.74972  0.81208  0.93821  1.0000
  H   H823      1.0  0.98554  0.52734  0.97957  1.0000
  H   H824      1.0  0.90361  0.85947  0.74249  1.0000
  H   H825      1.0  0.86215  0.76943  0.94197  1.0000
  H   H826      1.0  0.80035  0.87764  0.71599  1.0000
  H   H827      1.0  0.80467  0.85163  0.77830  1.0000
  C   C692      1.0  0.74179  0.70517  0.68495  1.0000
  H   H828      1.0  0.80437  0.89160  0.76644  1.0000
  S   S189      1.0  0.96803  0.00091  0.77963  1.0000
  H   H829      1.0  0.86352  0.67247  0.87603  1.0000
  C   C693      1.0  0.86538  0.77509  0.98798  1.0000
  H   H830      1.0  0.91823  0.95482  0.71918  1.0000
  H   H831      1.0  0.83488  0.81249  0.75548  1.0000
  H   H832      1.0  0.82670  0.68698  0.86448  1.0000
  C   C694      1.0  0.87506  0.61319  0.89564  1.0000
  H   H833      1.0  0.79883  0.62728  0.84320  1.0000
  H   H834      1.0  0.84719  0.65820  0.84323  1.0000
  H   H835      1.0  0.66338  0.52469  0.98836  1.0000
  C   C695      1.0  0.82004  0.75520  0.96356  1.0000
  C   C696      1.0  0.88538  0.55830  0.88537  1.0000
  C   C697      1.0  0.52700  0.66072  0.99431  1.0000
  H   H836      1.0  0.84972  0.53369  0.86250  1.0000
  H   H837      1.0  0.93866  0.90216  0.73146  1.0000
  C   C698      1.0  0.85639  0.55587  0.87217  1.0000
  N   N47       1.0  0.82495  0.63987  0.88110  1.0000
  C   C699      1.0  0.91360  0.90609  0.73040  1.0000
  C   C700      1.0  0.89474  0.58690  0.89702  1.0000
  C   C701      1.0  0.87012  0.94140  0.72324  1.0000
  H   H838      1.0  0.78031  0.65620  0.86525  1.0000
  H   H839      1.0  0.88364  0.63497  0.90454  1.0000
  H   H840      1.0  0.53894  0.63909  0.99928  1.0000
  H   H841      1.0  0.91780  0.58890  0.90637  1.0000
  H   H842      1.0  0.90103  0.53819  0.88569  1.0000
  N   N48       1.0  0.83748  0.86146  0.74392  1.0000
  C   C702      1.0  0.81977  0.87095  0.77013  1.0000
  C   C703      1.0  0.81515  0.85662  0.72000  1.0000
  C   C704      1.0  0.85245  0.83059  0.74971  1.0000
  C   C705      1.0  0.86006  0.88644  0.73643  1.0000
  H   H843      1.0  0.49807  0.59234  0.94001  1.0000
  H   H844      1.0  0.86856  0.83181  0.76829  1.0000
  S   S190      1.0  0.71460  0.78906  0.98661  1.0000
  H   H845      1.0  0.52952  0.60708  0.96097  1.0000
  H   H846      1.0  0.83861  0.65870  0.92244  1.0000
  C   C706      1.0  0.49858  0.66069  0.97872  1.0000
  H   H847      1.0  0.82463  0.92273  0.72948  1.0000
  H   H848      1.0  0.73432  0.68095  0.68602  1.0000
  H   H849      1.0  0.60773  0.52754  0.99171  1.0000
  H   H850      1.0  0.79882  0.83686  0.72464  1.0000
  S   S191      1.0  0.98870  0.90554  0.78137  1.0000
  H   H851      1.0  0.78066  0.74381  0.98945  1.0000
  C   C707      1.0  0.85038  0.76672  0.96256  1.0000
  C   C708      1.0  0.84927  0.91714  0.72953  1.0000
  C   C709      1.0  0.89300  0.88164  0.73673  1.0000
  H   H852      1.0  0.77044  0.79102  0.68047  1.0000
  C   C710      1.0  0.84529  0.61161  0.88235  1.0000
  H   H853      1.0  0.82776  0.85067  0.69966  1.0000
  H   H854      1.0  0.88897  0.78422  0.98702  1.0000
  H   H855      1.0  0.86160  0.96487  0.71838  1.0000
  C   C711      1.0  0.84133  0.66537  0.86564  1.0000
  C   C712      1.0  0.79490  0.63444  0.86603  1.0000
  C   C713      1.0  0.76229  0.76707  0.68196  1.0000
  H   H856      1.0  0.78052  0.61645  0.87715  1.0000
  H   H857      1.0  0.61456  0.61232  0.99270  1.0000
  H   H858      1.0  0.80122  0.67157  0.91043  1.0000
  C   C714      1.0  0.83649  0.58201  0.87061  1.0000
  C   C715      1.0  0.81747  0.65093  0.91068  1.0000
  S   S192      1.0  0.98776  0.96475  0.71916  1.0000
  H   H859      1.0  0.80829  0.74899  0.94373  1.0000
  H   H860      1.0  0.51523  0.62963  0.93117  1.0000
  H   H861      1.0  0.56993  0.57684  0.00225  1.0000
  C   C716      1.0  0.50800  0.61428  0.94937  1.0000
  H   H862      1.0  0.49820  0.91195  0.67731  1.0000
  C   C717      1.0  0.99568  0.50524  0.97051  1.0000
  C   C718      1.0  0.49835  0.71833  0.98304  1.0000
  C   C719      1.0  0.66735  0.50128  0.99657  1.0000
  H   H863      1.0  0.49948  0.60384  0.00583  1.0000
  C   C720      1.0  0.54072  0.68862  0.00372  1.0000
  H   H864      1.0  0.53730  0.73901  0.00529  1.0000
