data_image0
_chemical_formula_structural       HCFeHC2HCHC2H2CH5SNCHC3HCH4C3SHSFeSFe2HSCHC2HC3HCHNHCH3CSCHCHC2H3CH3SH2CHCHC2NHCH3SCHC3HCHCHFeS2FeS2FeSFeS3HCHC2H2C3HC2H3C3HC2H4C7H2NC6H5CH6C4H2SC2H2CHCHSCNH2C2HCH9C2HC3HCHC3HCH3NH5CFeS2FeSCFeSFeHS2CHCSHC4H2C6SH6CHSC5HCHCHCHCHCH2SH3CH8NC2HNHCH7NSCFeS2FeSHFeSFeS3HC8H4C2HC2HCHC7H5C2HCNSHNH2C2HNH2CH3CHCHC3HCH4SHCH3C2H3CHC3H3CH3C2HSCHCH2CH5SCFeS2FeSHFeSFeS3NHFeS2C7H4CHCFeS2C6H3FeH3C7H5CH3CH4CH2CSNCFeC2H3SH4CH3CH2CH4CH3CH2SHC5HCH4CHFeS2HCFeHCSH3CHCSHC7H4SHC2SH2CH3NHC2NSCHC2HFeHCHC3HC2HC2H4CHFeH5C2H3FeS2FeSHSFeCSFeSFeS2C2HNHC6H4CHCSFeC6HCH3CHCHCH3CH4NH3CHCFeCHCH2SFeH2CHCHCH3C4HSC
_chemical_formula_sum              "H324 C270 Fe36 S72 N18"
_cell_length_a       37.8192
_cell_length_b       39.0254
_cell_length_c       32.8397
_cell_angle_alpha    93.644
_cell_angle_beta     86.4159
_cell_angle_gamma    116.274

_space_group_name_H-M_alt    "P 1"
_space_group_IT_number       1

loop_
  _space_group_symop_operation_xyz
  'x, y, z'

loop_
  _atom_site_type_symbol
  _atom_site_label
  _atom_site_symmetry_multiplicity
  _atom_site_fract_x
  _atom_site_fract_y
  _atom_site_fract_z
  _atom_site_occupancy
  H   H1        1.0  0.17454  0.26192  0.31584  1.0000
  C   C1        1.0  0.19362  0.27479  0.20928  1.0000
  Fe  Fe1       1.0  0.11518  0.22743  0.99928  1.0000
  H   H2        1.0  0.12436  0.21392  0.14436  1.0000
  C   C2        1.0  0.18638  0.29715  0.08224  1.0000
  C   C3        1.0  0.16852  0.28731  0.31476  1.0000
  H   H3        1.0  0.08027  0.22342  0.19773  1.0000
  C   C4        1.0  0.14654  0.28745  0.09132  1.0000
  H   H4        1.0  0.19654  0.24683  0.15122  1.0000
  C   C5        1.0  0.16916  0.28116  0.24058  1.0000
  C   C6        1.0  0.11189  0.23731  0.20153  1.0000
  H   H5        1.0  0.10732  0.26565  0.25758  1.0000
  H   H6        1.0  0.22543  0.28940  0.20933  1.0000
  C   C7        1.0  0.13667  0.23168  0.17150  1.0000
  H   H7        1.0  0.18130  0.30621  0.34220  1.0000
  H   H8        1.0  0.13609  0.27728  0.31840  1.0000
  H   H9        1.0  0.15215  0.12199  0.99792  1.0000
  H   H10       1.0  0.10561  0.29812  0.13257  1.0000
  H   H11       1.0  0.14443  0.06262  0.02922  1.0000
  S   S1        1.0  0.10836  0.25082  0.06326  1.0000
  N   N1        1.0  0.18519  0.30769  0.27637  1.0000
  C   C8        1.0  0.13639  0.30576  0.12512  1.0000
  H   H12       1.0  0.19457  0.28311  0.05651  1.0000
  C   C9        1.0  0.22890  0.32464  0.27791  1.0000
  C   C10       1.0  0.17738  0.25027  0.17544  1.0000
  C   C11       1.0  0.12776  0.26162  0.23560  1.0000
  H   H13       1.0  0.14171  0.32980  0.27704  1.0000
  C   C12       1.0  0.15471  0.06768  0.99768  1.0000
  H   H14       1.0  0.23936  0.30218  0.27892  1.0000
  H   H15       1.0  0.24631  0.33103  0.10044  1.0000
  H   H16       1.0  0.23533  0.00702  0.10951  1.0000
  H   H17       1.0  0.10976  0.33348  0.02167  1.0000
  C   C13       1.0  0.16565  0.33309  0.14998  1.0000
  C   C14       1.0  0.21563  0.32430  0.10726  1.0000
  C   C15       1.0  0.19723  0.20857  0.81546  1.0000
  S   S2        1.0  0.16543  0.31025  0.87994  1.0000
  H   H18       1.0  0.14278  0.26112  0.80523  1.0000
  S   S3        1.0  0.11804  0.19334  0.88672  1.0000
  Fe  Fe2       1.0  0.14827  0.18497  0.93910  1.0000
  S   S4        1.0  0.18367  0.15261  0.91788  1.0000
  Fe  Fe3       1.0  0.13663  0.25323  0.91160  1.0000
  Fe  Fe4       1.0  0.06522  0.17547  0.93021  1.0000
  H   H19       1.0  0.29469  0.24729  0.83529  1.0000
  S   S5        1.0  0.08095  0.23664  0.95069  1.0000
  C   C16       1.0  0.25308  0.26122  0.75438  1.0000
  H   H20       1.0  0.03097  0.07217  0.96244  1.0000
  C   C17       1.0  0.17382  0.10888  0.93976  1.0000
  C   C18       1.0  0.18289  0.08191  0.91696  1.0000
  H   H21       1.0  0.15570  0.27677  0.73186  1.0000
  C   C19       1.0  0.16410  0.04086  0.97497  1.0000
  C   C20       1.0  0.17745  0.04773  0.93425  1.0000
  C   C21       1.0  0.02414  0.02878  0.89443  1.0000
  H   H22       1.0  0.19462  0.08766  0.88592  1.0000
  C   C22       1.0  0.15917  0.29051  0.79671  1.0000
  H   H23       1.0  0.20862  0.26528  0.87074  1.0000
  N   N2        1.0  0.23586  0.24007  0.82679  1.0000
  H   H24       1.0  0.25918  0.27632  0.88061  1.0000
  C   C23       1.0  0.17305  0.31966  0.82707  1.0000
  H   H25       1.0  0.18551  0.18617  0.83873  1.0000
  H   H26       1.0  0.19891  0.19356  0.78610  1.0000
  H   H27       1.0  0.07918  0.08361  0.94118  1.0000
  C   C24       1.0  0.23091  0.25381  0.86900  1.0000
  S   S6        1.0  0.17159  0.24676  0.96120  1.0000
  C   C25       1.0  0.16623  0.29953  0.75513  1.0000
  H   H28       1.0  0.01405  0.24859  0.79399  1.0000
  C   C26       1.0  0.03809  0.27722  0.79316  1.0000
  H   H29       1.0  0.26824  0.21069  0.79777  1.0000
  C   C27       1.0  0.24917  0.27031  0.79649  1.0000
  C   C28       1.0  0.05345  0.06103  0.95741  1.0000
  H   H30       1.0  0.22044  0.23036  0.89094  1.0000
  H   H31       1.0  0.25620  0.20201  0.85080  1.0000
  H   H32       1.0  0.25591  0.31896  0.83849  1.0000
  C   C29       1.0  0.26504  0.22436  0.82759  1.0000
  H   H33       1.0  0.17494  0.21959  0.81268  1.0000
  H   H34       1.0  0.24691  0.23244  0.74375  1.0000
  H   H35       1.0  0.00212  0.04050  0.89858  1.0000
  S   S7        1.0  0.01099  0.12922  0.90055  1.0000
  H   H36       1.0  0.05408  0.27664  0.85486  1.0000
  H   H37       1.0  0.18507  0.02743  0.91657  1.0000
  C   C30       1.0  0.25857  0.30918  0.80745  1.0000
  H   H38       1.0  0.26607  0.28127  0.69290  1.0000
  C   C31       1.0  0.26440  0.28898  0.72502  1.0000
  H   H39       1.0  0.04867  0.04942  0.87513  1.0000
  C   C32       1.0  0.04691  0.29798  0.75767  1.0000
  C   C33       1.0  0.15893  0.10128  0.97996  1.0000
  N   N3        1.0  0.03817  0.02391  0.93389  1.0000
  H   H40       1.0  0.09614  0.03674  0.90701  1.0000
  C   C34       1.0  0.06041  0.29299  0.82757  1.0000
  H   H41       1.0  0.06537  0.30721  0.67411  1.0000
  H   H42       1.0  0.02870  0.28456  0.73182  1.0000
  H   H43       1.0  0.16153  0.32048  0.98477  1.0000
  S   S8        1.0  0.09481  0.16459  0.98163  1.0000
  C   C35       1.0  0.27294  0.32666  0.73674  1.0000
  H   H44       1.0  0.11417  0.32035  0.69032  1.0000
  C   C36       1.0  0.07889  0.33512  0.75542  1.0000
  C   C37       1.0  0.09344  0.33197  0.68254  1.0000
  C   C38       1.0  0.07169  0.01417  0.92458  1.0000
  H   H45       1.0  0.08468  0.01155  0.95303  1.0000
  C   C39       1.0  0.09124  0.32972  0.82680  1.0000
  H   H46       1.0  0.06318  0.05842  0.98789  1.0000
  C   C40       1.0  0.27056  0.33680  0.77787  1.0000
  H   H47       1.0  0.18555  0.35492  0.24628  1.0000
  Fe  Fe5       1.0  0.30110  0.49126  0.26731  1.0000
  S   S9        1.0  0.25403  0.50829  0.29072  1.0000
  S   S10       1.0  0.36152  0.52781  0.29112  1.0000
  Fe  Fe6       1.0  0.24280  0.42026  0.21924  1.0000
  S   S11       1.0  0.19115  0.43161  0.24023  1.0000
  S   S12       1.0  0.24340  0.37418  0.17338  1.0000
  Fe  Fe7       1.0  0.23182  0.49285  0.22730  1.0000
  S   S13       1.0  0.21922  0.52944  0.18582  1.0000
  Fe  Fe8       1.0  0.21878  0.44583  0.30196  1.0000
  S   S14       1.0  0.18422  0.42675  0.36178  1.0000
  S   S15       1.0  0.28191  0.48083  0.20279  1.0000
  S   S16       1.0  0.26722  0.42942  0.28212  1.0000
  H   H48       1.0  0.19963  0.51134  0.43151  1.0000
  C   C41       1.0  0.25495  0.44284  0.47618  1.0000
  H   H49       1.0  0.18632  0.36084  0.30116  1.0000
  C   C42       1.0  0.19029  0.58979  0.40718  1.0000
  C   C43       1.0  0.18095  0.61620  0.24799  1.0000
  H   H50       1.0  0.20052  0.64570  0.19170  1.0000
  H   H51       1.0  0.47032  0.65410  0.26826  1.0000
  C   C44       1.0  0.20501  0.56284  0.21059  1.0000
  C   C45       1.0  0.20877  0.59435  0.18934  1.0000
  C   C46       1.0  0.19744  0.62138  0.20826  1.0000
  H   H52       1.0  0.40389  0.59572  0.16309  1.0000
  C   C47       1.0  0.17685  0.58450  0.26921  1.0000
  C   C48       1.0  0.18953  0.55816  0.25077  1.0000
  H   H53       1.0  0.22060  0.59796  0.15821  1.0000
  H   H54       1.0  0.16407  0.58043  0.29995  1.0000
  H   H55       1.0  0.18643  0.53379  0.26725  1.0000
  C   C49       1.0  0.21184  0.43340  0.40562  1.0000
  C   C50       1.0  0.25243  0.44438  0.40222  1.0000
  C   C51       1.0  0.27371  0.44856  0.43728  1.0000
  H   H56       1.0  0.38471  0.57161  0.36675  1.0000
  C   C52       1.0  0.36338  0.54139  0.42203  1.0000
  C   C53       1.0  0.19287  0.42727  0.44453  1.0000
  H   H57       1.0  0.26743  0.44914  0.37251  1.0000
  H   H58       1.0  0.30488  0.45601  0.43422  1.0000
  H   H59       1.0  0.18082  0.53676  0.37519  1.0000
  H   H60       1.0  0.16143  0.41856  0.44739  1.0000
  C   C54       1.0  0.43968  0.62862  0.21298  1.0000
  C   C55       1.0  0.44681  0.62925  0.25435  1.0000
  C   C56       1.0  0.42350  0.59763  0.27784  1.0000
  C   C57       1.0  0.39235  0.56571  0.26032  1.0000
  C   C58       1.0  0.38548  0.56500  0.21887  1.0000
  C   C59       1.0  0.40936  0.59629  0.19514  1.0000
  C   C60       1.0  0.43621  0.59435  0.45502  1.0000
  H   H61       1.0  0.42941  0.59823  0.30969  1.0000
  H   H62       1.0  0.36201  0.54027  0.20498  1.0000
  N   N4        1.0  0.20092  0.44129  0.09237  1.0000
  C   C61       1.0  0.24400  0.46384  0.09793  1.0000
  C   C62       1.0  0.18598  0.46747  0.07773  1.0000
  C   C63       1.0  0.18230  0.42828  0.13311  1.0000
  C   C64       1.0  0.19086  0.40793  0.06331  1.0000
  C   C65       1.0  0.15081  0.38357  0.05482  1.0000
  C   C66       1.0  0.21991  0.39891  0.04223  1.0000
  H   H63       1.0  0.05712  0.64578  0.20967  1.0000
  H   H64       1.0  0.05134  0.63261  0.26164  1.0000
  H   H65       1.0  0.25103  0.41508  0.04721  1.0000
  H   H66       1.0  0.25695  0.44615  0.11043  1.0000
  H   H67       1.0  0.25038  0.48855  0.12011  1.0000
  C   C67       1.0  0.28351  0.64866  0.27782  1.0000
  H   H68       1.0  0.19805  0.47675  0.04641  1.0000
  H   H69       1.0  0.19442  0.49369  0.09812  1.0000
  H   H70       1.0  0.15327  0.45396  0.07693  1.0000
  H   H71       1.0  0.19456  0.41047  0.14619  1.0000
  H   H72       1.0  0.18776  0.45287  0.15502  1.0000
  H   H73       1.0  0.14981  0.41125  0.13244  1.0000
  C   C68       1.0  0.32909  0.62119  0.28373  1.0000
  C   C69       1.0  0.20925  0.36789  0.01399  1.0000
  C   C70       1.0  0.32460  0.61854  0.19215  1.0000
  C   C71       1.0  0.20190  0.61170  0.44339  1.0000
  H   H74       1.0  0.18123  0.60057  0.38214  1.0000
  H   H75       1.0  0.09796  0.65746  0.30922  1.0000
  S   S17       1.0  0.46629  0.66907  0.18402  1.0000
  C   C72       1.0  0.42690  0.59632  0.41414  1.0000
  C   C73       1.0  0.20548  0.34232  0.14130  1.0000
  H   H76       1.0  0.26003  0.47594  0.06879  1.0000
  H   H77       1.0  0.32397  0.59309  0.33957  1.0000
  C   C74       1.0  0.39100  0.57011  0.39817  1.0000
  H   H78       1.0  0.23998  0.34400  0.30542  1.0000
  C   C75       1.0  0.20104  0.53966  0.43586  1.0000
  H   H79       1.0  0.44689  0.61759  0.39359  1.0000
  S   S18       1.0  0.16502  0.64895  0.27120  1.0000
  C   C76       1.0  0.14054  0.35239  0.02692  1.0000
  N   N5        1.0  0.33209  0.65313  0.21855  1.0000
  H   H80       1.0  0.24810  0.51291  0.46860  1.0000
  H   H81       1.0  0.29238  0.59980  0.19014  1.0000
  C   C77       1.0  0.31309  0.60928  0.32272  1.0000
  C   C78       1.0  0.06988  0.65540  0.24033  1.0000
  H   H82       1.0  0.33603  0.52083  0.40892  1.0000
  C   C79       1.0  0.19001  0.55390  0.40337  1.0000
  H   H83       1.0  0.24346  0.64229  0.32949  1.0000
  H   H84       1.0  0.34974  0.51632  0.48083  1.0000
  H   H85       1.0  0.33780  0.60097  0.20391  1.0000
  H   H86       1.0  0.10002  0.65676  0.23771  1.0000
  H   H87       1.0  0.12702  0.38823  0.06991  1.0000
  H   H88       1.0  0.33716  0.62596  0.16057  1.0000
  H   H89       1.0  0.20172  0.63953  0.44655  1.0000
  H   H90       1.0  0.26975  0.66255  0.26173  1.0000
  H   H91       1.0  0.39087  0.66222  0.23301  1.0000
  C   C80       1.0  0.28261  0.61722  0.33942  1.0000
  C   C81       1.0  0.21303  0.56120  0.47328  1.0000
  H   H92       1.0  0.35216  0.61366  0.27188  1.0000
  C   C82       1.0  0.31498  0.64146  0.26009  1.0000
  C   C83       1.0  0.26785  0.63686  0.31700  1.0000
  C   C84       1.0  0.16970  0.34478  0.00628  1.0000
  H   H93       1.0  0.27002  0.60759  0.36948  1.0000
  C   C85       1.0  0.37123  0.53896  0.46234  1.0000
  H   H94       1.0  0.15720  0.34613  0.17640  1.0000
  C   C86       1.0  0.21439  0.43221  0.47977  1.0000
  C   C87       1.0  0.21315  0.59782  0.47604  1.0000
  C   C88       1.0  0.40688  0.56523  0.47880  1.0000
  H   H95       1.0  0.28332  0.65861  0.19369  1.0000
  C   C89       1.0  0.17416  0.33962  0.27521  1.0000
  H   H96       1.0  0.24360  0.34250  0.25112  1.0000
  H   H97       1.0  0.49378  0.66445  0.42680  1.0000
  H   H98       1.0  0.45074  0.66340  0.48763  1.0000
  N   N6        1.0  0.47349  0.62223  0.47334  1.0000
  H   H99       1.0  0.01281  0.66962  0.28118  1.0000
  H   H100      1.0  0.49545  0.57999  0.47548  1.0000
  H   H101      1.0  0.28288  0.56067  0.48228  1.0000
  H   H102      1.0  0.23172  0.36126  0.99837  1.0000
  H   H103      1.0  0.36106  0.60939  0.48954  1.0000
  C   C90       1.0  0.33523  0.64067  0.67286  1.0000
  Fe  Fe9       1.0  0.28373  0.48957  0.66677  1.0000
  S   S19       1.0  0.22306  0.45956  0.69614  1.0000
  S   S20       1.0  0.33140  0.53657  0.70243  1.0000
  Fe  Fe10      1.0  0.25856  0.44826  0.58409  1.0000
  S   S21       1.0  0.19603  0.41423  0.60665  1.0000
  C   C91       1.0  0.21710  0.61915  0.67242  1.0000
  Fe  Fe11      1.0  0.20266  0.46959  0.63733  1.0000
  S   S22       1.0  0.15935  0.49331  0.62983  1.0000
  Fe  Fe12      1.0  0.22208  0.40669  0.66372  1.0000
  H   H104      1.0  0.35069  0.62298  0.67808  1.0000
  S   S23       1.0  0.26323  0.50412  0.61100  1.0000
  S   S24       1.0  0.28470  0.43616  0.63822  1.0000
  C   C92       1.0  0.18684  0.33771  0.74347  1.0000
  H   H105      1.0  0.15075  0.38791  0.72466  1.0000
  C   C93       1.0  0.20013  0.36688  0.77385  1.0000
  S   S25       1.0  0.48719  0.63783  0.60112  1.0000
  H   H106      1.0  0.21618  0.39636  0.76539  1.0000
  C   C94       1.0  0.18065  0.54154  0.64690  1.0000
  C   C95       1.0  0.17034  0.56780  0.62995  1.0000
  C   C96       1.0  0.18923  0.60679  0.64204  1.0000
  C   C97       1.0  0.20895  0.55412  0.67677  1.0000
  H   H107      1.0  0.14833  0.55815  0.60694  1.0000
  H   H108      1.0  0.21697  0.53406  0.69015  1.0000
  C   C98       1.0  0.44454  0.60900  0.62985  1.0000
  C   C99       1.0  0.43874  0.61929  0.67035  1.0000
  C   C100      1.0  0.40439  0.59625  0.69273  1.0000
  C   C101      1.0  0.37531  0.56318  0.67449  1.0000
  C   C102      1.0  0.38108  0.55268  0.63401  1.0000
  C   C103      1.0  0.41586  0.57540  0.61189  1.0000
  S   S26       1.0  0.28375  0.45078  0.51928  1.0000
  H   H109      1.0  0.40012  0.60429  0.72413  1.0000
  H   H110      1.0  0.35888  0.52696  0.61989  1.0000
  H   H111      1.0  0.42048  0.56689  0.58091  1.0000
  H   H112      1.0  0.16454  0.51630  0.53195  1.0000
  H   H113      1.0  0.33287  0.65426  0.70312  1.0000
  H   H114      1.0  0.12224  0.41341  0.74198  1.0000
  C   C104      1.0  0.23756  0.57198  0.54361  1.0000
  H   H115      1.0  0.49197  0.66994  0.51714  1.0000
  S   S27       1.0  0.19561  0.34752  0.69070  1.0000
  C   C105      1.0  0.49163  0.60232  0.49550  1.0000
  C   C106      1.0  0.35716  0.65233  0.60015  1.0000
  C   C107      1.0  0.10062  0.35061  0.79136  1.0000
  C   C108      1.0  0.37292  0.66046  0.52657  1.0000
  C   C109      1.0  0.34631  0.59727  0.55309  1.0000
  H   H116      1.0  0.46089  0.64470  0.68470  1.0000
  C   C110      1.0  0.25669  0.53526  0.49363  1.0000
  H   H117      1.0  0.47412  0.58858  0.52336  1.0000
  C   C111      1.0  0.35995  0.62119  0.52010  1.0000
  H   H118      1.0  0.13156  0.40736  0.68888  1.0000
  C   C112      1.0  0.12474  0.39271  0.71844  1.0000
  H   H119      1.0  0.24528  0.55905  0.56885  1.0000
  C   C113      1.0  0.19338  0.35784  0.81539  1.0000
  H   H120      1.0  0.24745  0.60191  0.71413  1.0000
  C   C114      1.0  0.46471  0.64808  0.50276  1.0000
  H   H121      1.0  0.05008  0.38264  0.73411  1.0000
  H   H122      1.0  0.19683  0.49711  0.54656  1.0000
  S   S28       1.0  0.24100  0.66744  0.68882  1.0000
  H   H123      1.0  0.12561  0.37843  0.79275  1.0000
  H   H124      1.0  0.18172  0.62711  0.62840  1.0000
  H   H125      1.0  0.26417  0.59879  0.53607  1.0000
  C   C115      1.0  0.22634  0.59262  0.69023  1.0000
  H   H126      1.0  0.22130  0.61634  0.50322  1.0000
  H   H127      1.0  0.19958  0.42749  0.50960  1.0000
  H   H128      1.0  0.21389  0.57947  0.55665  1.0000
  H   H129      1.0  0.17889  0.48752  0.49616  1.0000
  H   H130      1.0  0.06143  0.38131  0.68017  1.0000
  H   H131      1.0  0.20412  0.38061  0.83864  1.0000
  H   H132      1.0  0.30463  0.62136  0.66393  1.0000
  H   H133      1.0  0.33419  0.59232  0.61677  1.0000
  N   N7        1.0  0.08819  0.35604  0.71707  1.0000
  C   C116      1.0  0.18965  0.51007  0.52091  1.0000
  C   C117      1.0  0.34474  0.61242  0.59257  1.0000
  H   H134      1.0  0.26597  0.52338  0.51869  1.0000
  N   N8        1.0  0.22413  0.54523  0.50739  1.0000
  H   H135      1.0  0.44432  0.63226  0.52824  1.0000
  C   C118      1.0  0.05521  0.36499  0.70854  1.0000
  H   H136      1.0  0.41115  0.56252  0.51039  1.0000
  H   H137      1.0  0.33728  0.56679  0.54834  1.0000
  H   H138      1.0  0.27670  0.36609  0.78673  1.0000
  H   H139      1.0  0.10882  0.34164  0.85358  1.0000
  H   H140      1.0  0.10580  0.34835  0.65433  1.0000
  H   H141      1.0  0.28066  0.34795  0.71385  1.0000
  H   H142      1.0  0.02706  0.33876  0.70439  1.0000
  N   N9        1.0  0.35636  0.66948  0.64156  1.0000
  S   S29       1.0  0.47838  0.73942  0.27657  1.0000
  C   C119      1.0  0.23043  0.90058  0.08523  1.0000
  Fe  Fe13      1.0  0.25345  0.78578  0.28638  1.0000
  S   S30       1.0  0.26859  0.81446  0.22601  1.0000
  S   S31       1.0  0.27717  0.81261  0.34776  1.0000
  Fe  Fe14      1.0  0.20035  0.70834  0.24877  1.0000
  S   S32       1.0  0.20980  0.72891  0.18484  1.0000
  H   H143      1.0  0.15636  0.93975  0.04496  1.0000
  Fe  Fe15      1.0  0.27324  0.76137  0.20197  1.0000
  S   S33       1.0  0.32245  0.75900  0.16204  1.0000
  Fe  Fe16      1.0  0.20410  0.78048  0.21288  1.0000
  S   S34       1.0  0.16684  0.80755  0.19004  1.0000
  S   S35       1.0  0.26410  0.73607  0.26316  1.0000
  S   S36       1.0  0.18893  0.75676  0.27587  1.0000
  H   H144      1.0  0.37969  0.83504  0.36490  1.0000
  C   C120      1.0  0.08963  0.70750  0.29405  1.0000
  C   C121      1.0  0.22393  0.93175  0.10241  1.0000
  C   C122      1.0  0.15685  0.80922  0.13821  1.0000
  C   C123      1.0  0.13591  0.82963  0.12873  1.0000
  C   C124      1.0  0.12707  0.83145  0.08805  1.0000
  C   C125      1.0  0.13946  0.81320  0.05626  1.0000
  C   C126      1.0  0.16001  0.79242  0.06580  1.0000
  C   C127      1.0  0.16881  0.79052  0.10650  1.0000
  H   H145      1.0  0.12613  0.84381  0.15307  1.0000
  H   H146      1.0  0.10959  0.84591  0.08140  1.0000
  H   H147      1.0  0.16913  0.77761  0.04155  1.0000
  H   H148      1.0  0.18477  0.77454  0.11329  1.0000
  C   C128      1.0  0.25523  0.78345  0.38999  1.0000
  C   C129      1.0  0.26770  0.79798  0.42944  1.0000
  H   H149      1.0  0.08179  0.71015  0.19108  1.0000
  C   C130      1.0  0.21106  0.72235  0.41862  1.0000
  C   C131      1.0  0.22693  0.74544  0.38465  1.0000
  H   H150      1.0  0.28974  0.82725  0.43383  1.0000
  C   C132      1.0  0.12618  0.73737  0.36976  1.0000
  H   H151      1.0  0.21729  0.73380  0.35436  1.0000
  C   C133      1.0  0.40356  0.78177  0.37948  1.0000
  C   C134      1.0  0.43893  0.81644  0.22685  1.0000
  C   C135      1.0  0.43172  0.78554  0.19915  1.0000
  C   C136      1.0  0.39643  0.76886  0.17822  1.0000
  C   C137      1.0  0.36748  0.78178  0.18644  1.0000
  C   C138      1.0  0.37440  0.81221  0.21470  1.0000
  C   C139      1.0  0.41054  0.83018  0.23406  1.0000
  H   H152      1.0  0.45347  0.77475  0.19337  1.0000
  H   H153      1.0  0.39137  0.74563  0.15603  1.0000
  H   H154      1.0  0.35231  0.82255  0.22087  1.0000
  H   H155      1.0  0.41625  0.85446  0.25495  1.0000
  H   H156      1.0  0.18911  0.69308  0.41429  1.0000
  C   C140      1.0  0.37483  0.75480  0.31331  1.0000
  C   C141      1.0  0.33252  0.75986  0.36818  1.0000
  H   H157      1.0  0.08733  0.76248  0.29353  1.0000
  C   C142      1.0  0.25196  0.77483  0.46337  1.0000
  N   N10       1.0  0.37348  0.77815  0.35045  1.0000
  S   S37       1.0  0.48265  0.83716  0.25369  1.0000
  H   H158      1.0  0.11948  0.78766  0.35825  1.0000
  N   N11       1.0  0.20910  0.95228  0.07699  1.0000
  H   H159      1.0  0.14853  0.91382  0.09043  1.0000
  H   H160      1.0  0.35996  0.81580  0.31589  1.0000
  C   C143      1.0  0.24360  0.88020  0.10872  1.0000
  C   C144      1.0  0.09573  0.74433  0.31008  1.0000
  H   H161      1.0  0.31998  0.70207  0.21683  1.0000
  N   N12       1.0  0.07145  0.69310  0.25394  1.0000
  H   H162      1.0  0.22575  0.98308  0.02110  1.0000
  H   H163      1.0  0.37252  0.72663  0.32157  1.0000
  C   C145      1.0  0.24983  0.88958  0.15009  1.0000
  H   H164      1.0  0.41853  0.78298  0.48199  1.0000
  H   H165      1.0  0.49142  0.72037  0.45416  1.0000
  H   H166      1.0  0.25857  0.87272  0.16850  1.0000
  C   C146      1.0  0.11961  0.70075  0.35555  1.0000
  H   H167      1.0  0.40228  0.76925  0.29424  1.0000
  C   C147      1.0  0.44284  0.79048  0.36552  1.0000
  H   H168      1.0  0.23680  0.94330  0.02012  1.0000
  C   C148      1.0  0.10139  0.68576  0.31847  1.0000
  C   C149      1.0  0.23085  0.94080  0.14473  1.0000
  C   C150      1.0  0.24348  0.91978  0.16805  1.0000
  H   H169      1.0  0.45201  0.79497  0.33369  1.0000
  C   C151      1.0  0.38162  0.81686  0.33810  1.0000
  H   H170      1.0  0.32733  0.77832  0.39271  1.0000
  H   H171      1.0  0.16906  0.90082  0.04478  1.0000
  H   H172      1.0  0.22426  0.89089  0.05373  1.0000
  H   H173      1.0  0.38934  0.68571  0.18930  1.0000
  S   S38       1.0  0.16056  0.00006  0.99888  1.0000
  H   H174      1.0  0.09468  0.74899  0.22747  1.0000
  C   C152      1.0  0.11395  0.75900  0.34725  1.0000
  H   H175      1.0  0.24758  0.85601  0.09513  1.0000
  H   H176      1.0  0.14126  0.74915  0.39804  1.0000
  H   H177      1.0  0.41172  0.83186  0.32371  1.0000
  C   C153      1.0  0.23567  0.96669  0.04039  1.0000
  C   C154      1.0  0.16912  0.92552  0.06367  1.0000
  H   H178      1.0  0.35051  0.74952  0.29263  1.0000
  H   H179      1.0  0.24772  0.92639  0.20048  1.0000
  H   H180      1.0  0.36731  0.77482  0.43626  1.0000
  C   C155      1.0  0.37534  0.67719  0.22023  1.0000
  H   H181      1.0  0.31024  0.75522  0.34516  1.0000
  C   C156      1.0  0.22341  0.73696  0.45815  1.0000
  C   C157      1.0  0.42501  0.78425  0.44929  1.0000
  C   C158      1.0  0.47171  0.79456  0.39255  1.0000
  H   H182      1.0  0.18439  0.97676  0.12479  1.0000
  H   H183      1.0  0.12538  0.72494  0.21939  1.0000
  H   H184      1.0  0.32547  0.73163  0.38066  1.0000
  C   C159      1.0  0.39569  0.77952  0.42246  1.0000
  H   H185      1.0  0.38227  0.70384  0.23923  1.0000
  H   H186      1.0  0.48558  0.79530  0.45517  1.0000
  H   H187      1.0  0.22615  0.96352  0.16074  1.0000
  C   C160      1.0  0.46284  0.79145  0.43433  1.0000
  C   C161      1.0  0.09415  0.72041  0.22181  1.0000
  H   H188      1.0  0.26637  0.98589  0.04925  1.0000
  S   S39       1.0  0.12734  0.81304  0.00475  1.0000
  C   C162      1.0  0.20618  0.98565  0.09854  1.0000
  H   H189      1.0  0.32948  0.68466  0.16785  1.0000
  C   C163      1.0  0.03051  0.68903  0.25648  1.0000
  H   H190      1.0  0.12954  0.68415  0.37294  1.0000
  H   H191      1.0  0.01531  0.67716  0.22729  1.0000
  C   C164      1.0  0.31539  0.67551  0.19860  1.0000
  H   H192      1.0  0.02964  0.71696  0.26307  1.0000
  H   H193      1.0  0.19581  0.00082  0.07803  1.0000
  H   H194      1.0  0.50134  0.80051  0.38104  1.0000
  H   H195      1.0  0.35274  0.72037  0.62305  1.0000
  H   H196      1.0  0.33275  0.70595  0.67263  1.0000
  S   S40       1.0  0.46870  0.77930  0.70588  1.0000
  C   C165      1.0  0.39738  0.69263  0.65438  1.0000
  Fe  Fe17      1.0  0.29612  0.78463  0.60929  1.0000
  S   S41       1.0  0.26595  0.76996  0.67094  1.0000
  S   S42       1.0  0.36112  0.81977  0.59707  1.0000
  Fe  Fe18      1.0  0.22405  0.73197  0.56344  1.0000
  S   S43       1.0  0.18704  0.71126  0.62137  1.0000
  H   H197      1.0  0.41394  0.67507  0.65369  1.0000
  Fe  Fe19      1.0  0.21480  0.77303  0.64353  1.0000
  S   S44       1.0  0.17192  0.78974  0.68124  1.0000
  Fe  Fe20      1.0  0.24010  0.70960  0.64572  1.0000
  S   S45       1.0  0.02461  0.88780  0.88493  1.0000
  S   S46       1.0  0.24748  0.79407  0.58329  1.0000
  S   S47       1.0  0.27444  0.72390  0.58615  1.0000
  N   N13       1.0  0.20249  0.72940  0.78969  1.0000
  H   H198      1.0  0.26357  0.76778  0.79979  1.0000
  Fe  Fe21      1.0  0.15915  0.89675  0.89009  1.0000
  S   S48       1.0  0.20432  0.89941  0.83973  1.0000
  S   S49       1.0  0.17907  0.91000  0.95466  1.0000
  C   C166      1.0  0.04187  0.86830  0.76294  1.0000
  C   C167      1.0  0.18337  0.81673  0.72802  1.0000
  C   C168      1.0  0.15317  0.81000  0.75807  1.0000
  C   C169      1.0  0.16002  0.83350  0.79385  1.0000
  C   C170      1.0  0.19653  0.86516  0.79892  1.0000
  C   C171      1.0  0.22728  0.87084  0.76979  1.0000
  C   C172      1.0  0.22091  0.84641  0.73469  1.0000
  H   H199      1.0  0.12422  0.78672  0.75342  1.0000
  H   H200      1.0  0.13696  0.82739  0.81726  1.0000
  H   H201      1.0  0.25583  0.89498  0.77371  1.0000
  H   H202      1.0  0.24439  0.85190  0.71174  1.0000
  C   C173      1.0  0.09588  0.86104  0.70171  1.0000
  H   H203      1.0  0.06921  0.86434  0.83265  1.0000
  C   C174      1.0  0.24239  0.75674  0.77470  1.0000
  Fe  Fe22      1.0  0.12196  0.85964  0.97059  1.0000
  S   S50       1.0  0.13048  0.93657  0.89589  1.0000
  S   S51       1.0  0.10332  0.84495  0.90506  1.0000
  C   C175      1.0  0.43929  0.79121  0.67572  1.0000
  C   C176      1.0  0.40222  0.78692  0.69104  1.0000
  C   C177      1.0  0.37786  0.79515  0.66682  1.0000
  C   C178      1.0  0.39084  0.80850  0.62751  1.0000
  C   C179      1.0  0.42802  0.81295  0.61230  1.0000
  C   C180      1.0  0.45202  0.80388  0.63616  1.0000
  H   H204      1.0  0.39226  0.77711  0.72161  1.0000
  H   H205      1.0  0.34947  0.79209  0.67894  1.0000
  H   H206      1.0  0.43826  0.82347  0.58201  1.0000
  Fe  Fe23      1.0  0.07548  0.88559  0.91603  1.0000
  H   H207      1.0  0.11000  0.83852  0.64447  1.0000
  H   H208      1.0  0.25501  0.74293  0.75121  1.0000
  H   H209      1.0  0.22406  0.70272  0.83071  1.0000
  C   C181      1.0  0.17603  0.71744  0.75474  1.0000
  C   C182      1.0  0.18598  0.74571  0.82346  1.0000
  C   C183      1.0  0.14964  0.72230  0.84372  1.0000
  C   C184      1.0  0.20481  0.78486  0.83691  1.0000
  C   C185      1.0  0.13407  0.73676  0.87649  1.0000
  C   C186      1.0  0.18897  0.79897  0.86973  1.0000
  C   C187      1.0  0.15387  0.77495  0.88968  1.0000
  H   H210      1.0  0.41409  0.71697  0.63422  1.0000
  H   H211      1.0  0.08281  0.83576  0.79631  1.0000
  H   H212      1.0  0.18819  0.70632  0.72807  1.0000
  H   H213      1.0  0.07443  0.92818  0.81131  1.0000
  H   H214      1.0  0.03032  0.83690  0.75674  1.0000
  C   C188      1.0  0.12154  0.85786  0.67073  1.0000
  H   H215      1.0  0.09477  0.94377  0.76091  1.0000
  H   H216      1.0  0.24159  0.78137  0.76000  1.0000
  H   H217      1.0  0.03114  0.95487  0.96483  1.0000
  C   C189      1.0  0.33625  0.69466  0.64138  1.0000
  H   H218      1.0  0.12480  0.94081  0.79966  1.0000
  H   H219      1.0  0.10645  0.71834  0.89180  1.0000
  H   H220      1.0  0.13291  0.69265  0.83427  1.0000
  H   H221      1.0  0.14184  0.78608  0.91521  1.0000
  C   C190      1.0  0.08934  0.86573  0.80610  1.0000
  H   H222      1.0  0.23153  0.80546  0.82232  1.0000
  H   H223      1.0  0.16578  0.92173  0.76691  1.0000
  C   C191      1.0  0.17749  0.90206  0.70835  1.0000
  S   S52       1.0  0.08840  0.89515  0.98280  1.0000
  N   N14       1.0  0.08443  0.88631  0.77227  1.0000
  C   C192      1.0  0.16221  0.87830  0.67405  1.0000
  Fe  Fe24      1.0  0.14451  0.94456  0.96178  1.0000
  C   C193      1.0  0.15220  0.90498  0.73980  1.0000
  C   C194      1.0  0.09515  0.92651  0.78642  1.0000
  H   H224      1.0  0.17184  0.74189  0.74423  1.0000
  H   H225      1.0  0.48073  0.80754  0.62424  1.0000
  H   H226      1.0  0.20369  0.82900  0.87934  1.0000
  S   S53       1.0  0.20285  0.70710  0.50015  1.0000
  H   H227      1.0  0.18196  0.87460  0.65069  1.0000
  H   H228      1.0  0.14628  0.69454  0.76253  1.0000
  H   H229      1.0  0.30617  0.67876  0.62925  1.0000
  H   H230      1.0  0.20919  0.91684  0.71150  1.0000
  C   C195      1.0  0.11053  0.88484  0.73733  1.0000
  H   H231      1.0  0.11990  0.87989  0.81730  1.0000
  H   H232      1.0  0.02337  0.87155  0.78938  1.0000
  H   H233      1.0  0.06480  0.84374  0.69748  1.0000
  C   C196      1.0  0.20586  0.69539  0.80325  1.0000
  H   H234      1.0  0.03646  0.88149  0.73643  1.0000
  H   H235      1.0  0.39829  0.70516  0.68596  1.0000
  C   C197      1.0  0.00614  0.96110  0.97095  1.0000
  H   H236      1.0  0.38339  0.70670  0.56966  1.0000
  H   H237      1.0  0.49361  0.76688  0.81132  1.0000
  H   H238      1.0  0.06239  0.98686  0.90605  1.0000
  H   H239      1.0  0.21981  0.68359  0.77885  1.0000
  C   C198      1.0  0.00507  0.99454  0.95736  1.0000
  H   H240      1.0  0.01007  0.00097  0.87689  1.0000
  H   H241      1.0  0.26195  0.78636  0.49356  1.0000
  H   H242      1.0  0.38413  0.67919  0.50102  1.0000
  C   C199      1.0  0.37203  0.67594  0.56599  1.0000
  H   H243      1.0  0.17674  0.67140  0.81071  1.0000
  H   H244      1.0  0.92355  0.07515  0.02140  1.0000
  S   S54       1.0  0.85695  0.00811  0.99215  1.0000
  H   H245      1.0  0.94446  0.06255  0.87192  1.0000
  C   C200      1.0  0.96274  0.09915  0.96921  1.0000
  C   C201      1.0  0.89985  0.04140  0.96646  1.0000
  C   C202      1.0  0.90617  0.03782  0.92432  1.0000
  C   C203      1.0  0.94021  0.06519  0.90464  1.0000
  C   C204      1.0  0.96863  0.09592  0.92694  1.0000
  H   H246      1.0  0.88446  0.01438  0.90679  1.0000
  C   C205      1.0  0.92825  0.07218  0.98879  1.0000
  H   H247      1.0  0.98435  0.12274  0.98669  1.0000
  H   H248      1.0  0.96744  0.02377  0.95844  1.0000
  H   H249      1.0  0.51089  0.62808  0.41921  1.0000
  H   H250      1.0  0.53166  0.66624  0.45705  1.0000
  C   C206      1.0  0.50361  0.64606  0.44271  1.0000
  H   H251      1.0  0.52106  0.62261  0.50702  1.0000
  Fe  Fe25      1.0  0.58528  0.78758  0.23067  1.0000
  S   S55       1.0  0.56573  0.81219  0.28700  1.0000
  S   S56       1.0  0.64758  0.81991  0.20329  1.0000
  H   H252      1.0  0.54820  0.91738  0.20106  1.0000
  C   C207      1.0  0.57984  0.78514  0.41651  1.0000
  Fe  Fe26      1.0  0.53438  0.75171  0.30749  1.0000
  H   H253      1.0  0.63446  0.89169  0.02932  1.0000
  C   C208      1.0  0.97394  0.93380  0.99247  1.0000
  S   S57       1.0  0.55878  0.72785  0.25444  1.0000
  H   H254      1.0  0.79305  0.84569  0.08125  1.0000
  H   H255      1.0  0.51862  0.85369  0.17153  1.0000
  H   H256      1.0  0.56663  0.86598  0.22002  1.0000
  C   C209      1.0  0.54189  0.75480  0.41659  1.0000
  H   H257      1.0  0.91130  0.97477  0.99440  1.0000
  C   C210      1.0  0.59750  0.80202  0.45385  1.0000
  S   S58       1.0  0.80288  0.90019  0.00357  1.0000
  H   H258      1.0  0.61704  0.89900  0.21268  1.0000
  C   C211      1.0  0.60726  0.89159  0.08915  1.0000
  C   C212      1.0  0.67347  0.83902  0.06538  1.0000
  C   C213      1.0  0.63528  0.81478  0.08008  1.0000
  C   C214      1.0  0.62691  0.80899  0.12216  1.0000
  C   C215      1.0  0.65667  0.82752  0.15010  1.0000
  C   C216      1.0  0.69485  0.85199  0.13544  1.0000
  C   C217      1.0  0.70330  0.85766  0.09327  1.0000
  H   H259      1.0  0.61203  0.80024  0.05876  1.0000
  H   H260      1.0  0.59758  0.78967  0.13282  1.0000
  H   H261      1.0  0.71805  0.86649  0.15682  1.0000
  H   H262      1.0  0.73270  0.87677  0.08244  1.0000
  S   S59       1.0  0.68201  0.84570  0.01207  1.0000
  H   H263      1.0  0.64470  0.73618  0.17204  1.0000
  C   C218      1.0  0.65124  0.93315  0.14062  1.0000
  C   C219      1.0  0.70551  0.77466  0.15949  1.0000
  S   S60       1.0  0.51959  0.72916  0.37153  1.0000
  H   H264      1.0  0.62706  0.82512  0.45371  1.0000
  H   H265      1.0  0.65764  0.94527  0.17132  1.0000
  C   C220      1.0  0.63879  0.90374  0.06035  1.0000
  H   H266      1.0  0.76348  0.81176  0.13989  1.0000
  H   H267      1.0  0.56587  0.93962  0.15272  1.0000
  H   H268      1.0  0.70089  0.93835  0.04931  1.0000
  N   N15       1.0  0.58017  0.89324  0.16204  1.0000
  H   H269      1.0  0.81303  0.81356  0.09504  1.0000
  C   C221      1.0  0.57317  0.92624  0.17784  1.0000
  C   C222      1.0  0.73109  0.77343  0.08901  1.0000
  N   N16       1.0  0.76269  0.78786  0.05664  1.0000
  S   S61       1.0  0.53282  0.77760  0.19489  1.0000
  C   C223      1.0  0.67639  0.93004  0.07158  1.0000
  H   H270      1.0  0.82196  0.83179  0.04510  1.0000
  C   C224      1.0  0.66882  0.74568  0.14930  1.0000
  C   C225      1.0  0.69357  0.74321  0.07997  1.0000
  H   H271      1.0  0.59593  0.79494  0.38785  1.0000
  Fe  Fe27      1.0  0.51146  0.79771  0.25226  1.0000
  H   H272      1.0  0.97514  0.90828  0.00203  1.0000
  C   C226      1.0  0.52136  0.74253  0.45396  1.0000
  H   H273      1.0  0.63411  0.70757  0.10182  1.0000
  C   C227      1.0  0.66289  0.72985  0.10967  1.0000
  C   C228      1.0  0.79917  0.82112  0.07041  1.0000
  C   C229      1.0  0.54219  0.86318  0.14687  1.0000
  H   H274      1.0  0.68743  0.73007  0.04965  1.0000
  C   C230      1.0  0.61263  0.90584  0.13042  1.0000
  C   C231      1.0  0.73630  0.78855  0.12996  1.0000
  H   H275      1.0  0.59859  0.85389  0.18541  1.0000
  C   C232      1.0  0.59108  0.87745  0.19647  1.0000
  C   C233      1.0  0.77362  0.75704  0.04169  1.0000
  H   H276      1.0  0.59932  0.94878  0.19299  1.0000
  H   H277      1.0  0.57926  0.87046  0.07837  1.0000
  H   H278      1.0  0.70947  0.78751  0.19019  1.0000
  H   H279      1.0  0.54524  0.83717  0.13512  1.0000
  C   C234      1.0  0.68260  0.94482  0.11161  1.0000
  H   H280      1.0  0.53088  0.87368  0.12238  1.0000
  Fe  Fe28      1.0  0.50480  0.72015  0.22257  1.0000
  H   H281      1.0  0.91431  0.91658  0.01582  1.0000
  H   H282      1.0  0.71204  0.96501  0.12027  1.0000
  H   H283      1.0  0.77185  0.81168  0.99728  1.0000
  H   H284      1.0  0.73957  0.82301  0.03198  1.0000
  H   H285      1.0  0.72282  0.77671  0.00722  1.0000
  C   C235      1.0  0.74853  0.80020  0.02187  1.0000
  C   C236      1.0  0.93971  0.93849  0.00046  1.0000
  H   H286      1.0  0.78353  0.74620  0.06708  1.0000
  H   H287      1.0  0.74857  0.73235  0.02743  1.0000
  H   H288      1.0  0.79808  0.76737  0.01790  1.0000
  Fe  Fe29      1.0  0.58812  0.75790  0.67743  1.0000
  S   S62       1.0  0.57719  0.80644  0.65822  1.0000
  S   S63       1.0  0.63265  0.76028  0.72229  1.0000
  Fe  Fe30      1.0  0.56962  0.77754  0.59527  1.0000
  S   S64       1.0  0.60056  0.80849  0.53795  1.0000
  H   H289      1.0  0.71839  0.76564  0.61372  1.0000
  S   S65       1.0  0.58558  0.73196  0.61379  1.0000
  Fe  Fe31      1.0  0.77348  0.89780  0.89189  1.0000
  C   C237      1.0  0.73270  0.83292  0.58266  1.0000
  S   S66       1.0  0.75325  0.90087  0.82881  1.0000
  Fe  Fe32      1.0  0.81775  0.87183  0.94796  1.0000
  S   S67       1.0  0.85108  0.83791  0.96138  1.0000
  Fe  Fe33      1.0  0.81907  0.94976  0.96308  1.0000
  S   S68       1.0  0.75535  0.84445  0.92643  1.0000
  S   S69       1.0  0.83754  0.92276  0.90874  1.0000
  C   C238      1.0  0.89970  0.85269  0.94075  1.0000
  C   C239      1.0  0.96267  0.84901  0.93964  1.0000
  H   H290      1.0  0.51703  0.81019  0.84206  1.0000
  N   N17       1.0  0.55654  0.78785  0.81613  1.0000
  H   H291      1.0  0.75051  0.89322  0.64340  1.0000
  C   C240      1.0  0.66338  0.79982  0.75356  1.0000
  C   C241      1.0  0.67227  0.83752  0.74506  1.0000
  C   C242      1.0  0.69936  0.86813  0.76884  1.0000
  C   C243      1.0  0.71716  0.86139  0.80181  1.0000
  C   C244      1.0  0.70713  0.82368  0.81121  1.0000
  C   C245      1.0  0.68068  0.79309  0.78691  1.0000
  H   H292      1.0  0.65915  0.84329  0.71969  1.0000
  H   H293      1.0  0.70701  0.89725  0.76139  1.0000
  H   H294      1.0  0.72066  0.81812  0.83645  1.0000
  H   H295      1.0  0.67402  0.76405  0.79373  1.0000
  C   C246      1.0  0.76416  0.82876  0.71958  1.0000
  H   H296      1.0  0.52300  0.74873  0.51945  1.0000
  C   C247      1.0  0.69422  0.77465  0.61681  1.0000
  S   S70       1.0  0.52434  0.71945  0.69195  1.0000
  Fe  Fe34      1.0  0.52062  0.69815  0.62669  1.0000
  C   C248      1.0  0.58728  0.80989  0.84594  1.0000
  C   C249      1.0  0.58606  0.79496  0.88466  1.0000
  C   C250      1.0  0.56263  0.80677  0.77667  1.0000
  C   C251      1.0  0.61519  0.81478  0.91300  1.0000
  C   C252      1.0  0.64789  0.86579  0.86644  1.0000
  C   C253      1.0  0.64613  0.85003  0.90380  1.0000
  H   H297      1.0  0.53888  0.78958  0.75511  1.0000
  C   C254      1.0  0.91450  0.87867  0.90948  1.0000
  H   H298      1.0  0.61420  0.80275  0.94221  1.0000
  H   H299      1.0  0.96384  0.90896  0.86831  1.0000
  H   H300      1.0  0.56278  0.76764  0.89318  1.0000
  C   C255      1.0  0.74075  0.81161  0.68592  1.0000
  H   H301      1.0  0.54682  0.73165  0.83392  1.0000
  C   C256      1.0  0.67585  0.82610  0.62513  1.0000
  H   H302      1.0  0.72623  0.78074  0.68444  1.0000
  C   C257      1.0  0.73525  0.83402  0.65662  1.0000
  H   H303      1.0  0.79923  0.88143  0.75240  1.0000
  H   H304      1.0  0.76689  0.81118  0.74232  1.0000
  H   H305      1.0  0.53518  0.73337  0.78261  1.0000
  C   C258      1.0  0.61907  0.84617  0.83776  1.0000
  H   H306      1.0  0.59088  0.81044  0.76087  1.0000
  H   H307      1.0  0.58579  0.75301  0.79635  1.0000
  H   H308      1.0  0.74173  0.86405  0.58105  1.0000
  H   H309      1.0  0.66898  0.86505  0.92557  1.0000
  N   N18       1.0  0.71001  0.81696  0.62103  1.0000
  H   H310      1.0  0.75985  0.82843  0.57947  1.0000
  H   H311      1.0  0.65594  0.81370  0.59901  1.0000
  H   H312      1.0  0.65814  0.81441  0.65358  1.0000
  C   C259      1.0  0.92388  0.83780  0.95569  1.0000
  H   H313      1.0  0.68480  0.85735  0.62628  1.0000
  C   C260      1.0  0.75425  0.87435  0.66356  1.0000
  Fe  Fe35      1.0  0.74209  0.87696  0.97947  1.0000
  C   C261      1.0  0.95290  0.88925  0.89288  1.0000
  H   H314      1.0  0.71484  0.81935  0.55526  1.0000
  C   C262      1.0  0.97716  0.87460  0.90796  1.0000
  H   H315      1.0  0.89616  0.89020  0.89762  1.0000
  H   H316      1.0  0.67597  0.76281  0.58939  1.0000
  S   S71       1.0  0.75658  0.92904  0.94365  1.0000
  Fe  Fe36      1.0  0.51313  0.76616  0.66836  1.0000
  H   H317      1.0  0.79082  0.92191  0.70284  1.0000
  H   H318      1.0  0.67247  0.89305  0.85926  1.0000
  C   C263      1.0  0.55599  0.74987  0.80698  1.0000
  H   H319      1.0  0.62291  0.85981  0.80916  1.0000
  C   C264      1.0  0.78245  0.86839  0.72533  1.0000
  H   H320      1.0  0.67443  0.76045  0.64342  1.0000
  C   C265      1.0  0.77748  0.89114  0.69741  1.0000
  H   H321      1.0  0.98103  0.83732  0.95122  1.0000
  H   H322      1.0  0.56218  0.83510  0.78087  1.0000
  H   H323      1.0  0.91259  0.81759  0.97978  1.0000
  C   C266      1.0  0.57740  0.78849  0.49129  1.0000
  C   C267      1.0  0.93794  0.97110  0.98807  1.0000
  C   C268      1.0  0.51729  0.78220  0.83358  1.0000
  C   C269      1.0  0.97019  0.99891  0.96720  1.0000
  H   H324      1.0  0.50859  0.76505  0.86137  1.0000
  S   S72       1.0  0.50428  0.74197  0.60406  1.0000
  C   C270      1.0  0.53909  0.75891  0.49106  1.0000
