data_image0
_chemical_formula_structural       FeS2FeSFeCFeS3FeS2FeS2FeSFeS3FeS2FeS2FeSFeHS2FeS2FeSHFeSFeS2FeS2FeS2FeSFeS3FeS2FeS2FeSFeS3FeS2FeS2FeSFeS3FeSHFeS2FeSFeS3CH3C6H8C2H3C6H4CNH2C6H4CH3C7H4SCH2C4HC6H4CHC7H6CH2C6H4NHC2HCHCH4NC4HCH12CH2C2HCNCH2CH4CH2C3H2CH3CH3C2HC4H4C3H3C3H3CHNC4NHCHSC3HC2HSHCSCHCHC3H2C2H6C2H3CNCHC5H2C4HC3H3CH2CNC3HCH2CH4CH3C2NH3C3HC4H2C4HC2H4NH3CH3CH3CNHNC8H2CH7NC4HCH5CHNH11CNCNHCHCH2CH2CHCH6CH5C3HCHCSH2C4H2CH3CH2CH3C2HC2HCH4NCH5CHCH2CHSHSCH3C5H2C3H2CH2CHCH2C4H3C2HC5H2C2H2CHCH3C3H7CH2CHNC5H3CH4C2H3C2H2CH2C6H3FeS2FeS2FeSFeS4FeS2FeHFeS3CHSFeS2FeHFeS3CH2CFeSFeSCFeSFeS3FeS2FeS2FeSFeHS2FeS2FeS2FeSFeS3FeS2FeS2FeSFeS3CHCH2CSFeNCH5CH2C3HC2HCH2C3HC2HCH2CH2C4H3C6H4CHC4HNH3CH3C6H4SHC6H6CH3C6H3SC2HCHC6H4CHCH2C11H5CH2C6H4C6H4C3H5SH2C3HCH2CHNCH4CHSCH2CH2C6FeHNC2H2CHNCH2C2HCHCH2C5H2CH7SHC5H3SH2C2H4CSH2CHCNC2HC4H4CHSHSCH3FeCH2FeH3CHSCHC4HC3H4C2H8C2H2C2HCHCHCH6SHNHSHCHCSH2C2H7CNC6HCH4CH2NH2CH2SCH2C3HCH5C2H2NHC2HC2H4CNC3H2C4H2CH3C2H2C2H5CHNHFeC2H2SHCH2SC3HCNCH2CH4NCH5C3HCH4CH4C3HC2H3C2H2FeCH2C2H4CH2C3HCHC2HCHC3HC3HCNH3C2HC2H3CNHCHC3HCH6CHC2HC2NC4H5CHCH2CHCH2CH2CH2CNC2H3C2HCHC2HC2HCHC2NC2H9SNHC2H2CNH2NCH2FeS2FeS2FeSFeS3FeS2FeSFeS2CFeS2FeHFeHFeS2FeS2Fe2HS2H3CHFeH2CH3CFeCHCHFeS2FeS2FeSFeS3FeS2FeS2FeSFeS3CFeS2FeS2FeSFeS3HCNC3NH5FeCH2C8H4C6H7C3HC2HSH2C4H3CHC4HCH2CHC2HCH2C7H4CHCH2SHC6H3CHC9H9SC2HCH2C4H5CH2C3SC6H4C6H5CNC4H7CHCH3C5HNHNHC3HCH5NH3C2SHC2FeSCH4C2H2CHC2HCFeH2CNCH4CHCHCH5CH4CHC3H8SHCSH5NH4CHNH2CHCFeHCHCHC2H2SCHCS2NH2NCH3CHCH2CHCHC2H3C2HC2H2CHC2H2C2H2C4H2CHC4SC3H3C5HCHCH2CHCHCH2C2H2CNCSHC4S2HNC9H7CH6CHCHSCH3NCHC4H5CHCNHC3H4CH6CHCHCH2CHC9HSCH2NC2H4SHNC2H3CH3CH7CHCHCSHC2HCH6CHCH4CH2C2H3C2HCHCSHCHC2HC3HCH2CH3CHC2HCH2C6HC3H2CH2CHCHC3HCHC2H2CH4CH3C2HC2HCH3C3H2SH3C4H3C3FeS2FeS2CHFeSCSFeS2FeS2FeSFeCS2FeS2FeSHFeSFeS3FeS2FeS2FeHFeS3CNHCSH2CHFeCHC7HS2CHFeH3NHFeSHSFeHSFeCSFeHS2CHCNHCSC2HNH2CHCH3NCHCH2C2HC2FeCHC6H4C3H5C3H2FeSHSCHC6H5CSHNSH2SHSHNC6H4C6H4CHCHC2H5SCH7C6H4C6H5C3H4C2FeHC3H2SH2C2HCHC2HC3H2C3H2NHCH2C2H2CHCHCSHC2H2C2HCHNH2C2H6C2HSC2H2FeCSNH2CHCSHSHC2H2SCH2C2H4SCH2C2SHCH3C2HC3HFeHCFeH2CHSCHCHCH3SCH3NCHCHC2HC2FeCNC4SC4H14NC7HCH11CS2H3CH5CH3C2H2CHCH4C2HC2HC2HC6SC2HCFeH3CFeHCHCHCH2CH2C3FeH10CH2C2HCHCNCH2C3HC2H4FeHCNH5CHCH2C2H2CHC3H2C3H9C2HC2HC3HSCSC2HCSHNHCH2FeS2FeSHFeSH2SHFeS2Fe2CH2FeS3FeS2FeS2Fe2CS4HFeSCFeSFeS2C3H2C4HCHCH3C6H6FeH3C6H10CH2CHNH2CHNHCH2C4HC2H2C4H5C3H3CHC3NHC2S3H2CH4C2H2SCH3SCH2C4NHC2H2C2HCHC2HCSC3SNH2CHSFeSH5C2HNHNH2CHC5HC2H2C6H3C2H2CH2CHC2H3C2H3CHC2H2CHC2HCH5CH3CH2C3NC2H3CHCH4C2H3CHCH2C3H8CFeS2FeS2FeCFeCS2H4CH3CH2NCH5SHCSHFe2S2FeCSFeHCS3HCHFeHSFeH2SHCFeC3H3C3H5SC3HC3H4SH7NHCHC2H2CFeHC4HNH2CSH2C2HCH3NH2C5SHCH3C4H2C6H5SCH2CHCHCH2C3HNHCHNHC2HSH2SCH2CSHC4SH3CHS2C7FeC4HFe2H3C2H3SCNC2H3CH4CHSHCNHFeH5S2H2CHNC2H3C3H3CSH4CH2C4HC2H4CH3CH2C2HC2HC2NH2CFeS2FeSHFeCFeS5HC2H2CH4CFeS2FeSCFeSFeS3HCH6SCHNS2HCHCH2C3H2CH2CH2C2HCHCH3C6HCH5CHSHCH2C2NH2CH2CH2CH5CH2C2HC2H2SHC7H4C2SCHC2HC2NHFeCH4C4HC4HC3HCH3FeH2FeH2C2FeC4HC2H3C4FeC2NCNHCHNCH2CNH3C3H2CHCHC2H2CSHSC6H2SCHSHFeH6CHSCHC2SH6CH4CHC3H2CFeH2SHCH2C4HC3HC2HSH2C2NCFeS2FeSCFeSFeS3FeS2FeSCFeHFeS3C2HFeS2FeS2FeSFeS3C4FeS2FeS2FeSFeS3H3C2HCH5NC3H2C3HCH2C3H2FeCH2C3H6CHC7H4C6H5CHC3HSHCHCHNHCHCHCHC3H6CH2CH2SHC2H2C5H2C6H5C2H2CH2SCH5C4HCH2CHSH5NC2HC3HCH7CH8CH3CHCH2C2H2CH3C2H2NHC3NCSCHCHNC2H3CH2C2H2CHCH2NCH2CHCH5CH7CHC4H3NH2CH3C5H2C2H5C2H3CSCFeSNCSFeS2FeSFeSFeCSHSH4NHSFeSFeS2FeSFeS3CS2FeS2NH2Fe2SCS2H4SFeSHFeSFeSCSFeS2CFe2S2FeHS2H2S2CSFeSH2FeS2HFeH2FeS2HSHFeSFeS3C2HCH3C6H2CHFeCH2FeC9H5C3HCH3FeCH2C2HCHFeCHNFeCHC6HFeH3CH2C2H3C2H2SHC6H4C6H4C4H2C6H3FeH2C2H4NC6H4C2FeSHSH2FeH4CH2NH2CH6C3H2CHCFeCHC4H3S2H2CSHC2HCHC2FeSHCHCH3C3HCHSHCH2C2NC4HCHCH3SH3CH2CHCH2NC8H9CH2FeCH7CH2C5SCSCNC2HFeCHC2H8FeHNHCSC2HC2HCHCSH2CHSNCH2CH3SCSC3H3CH2CFeSHCHCH2C2SH2SHCH2C3HC2H3C2H3CHS2H3CSCHNCHC2HCH3SH3SC3HCH3SC3H2CHSFeC2HFeCSH3CHFeCHSCH2C2HCSCHC2H2C2SNC6HC2H9FeH3CNC9H8C4Fe2H7CHCHCH3C2H2SC2HCSNH2C2SCSC3HNH2FeCHCH2SH2S2CHCH5CH2C3SCHCH3FeCHC2H2CH2CHC2H3SCHSH2C2HSCH2C3H5C3HC2H3CH2C2H2CH2CHCHC4HCHC3H3CHSC3HC2H2C2H2C3HCH2C8H2C3HCH3CH3CH10C3NHCH2CNCH2CH3SNHCH4SC2HCH2SH3SFeS2FeS2FeSFeHS2CHFeS2FeSHFeSFeS3HCH5C2SHFeS2FeSHFeSFeS3FeSH2SFe2S2FeS2FeS2FeSFeS3Fe2S2FeS2FeS2FeS2FeSFeS3CS2FeS2FeS2FeSFeS3HCSC3H3CFeHCNHC2HCH2C2SH2C2HC2HC6H4C7H4C6H4C6H4C6H4C6H3C2HC3HCHC6H4CHC4HCHC7H5CH2CHC7H5C2H2CHNC2H2C3H3CHC6H4CH2C3S2C6H4C6H5CH2CHCHCHC3FeSHCH8C4H6C2H4CH4CHCHCHSHCHC2H2SCSNC9H17CHCHC2H3CHCHC2HCH2CHC3HNH2SNCHC3H2CH2CH2CHNC9H9CH3NHC2HSCSHS2H6C2H3C2N2C9H15CSHC2HCH3FeCH2C3SC2HC2SFeHCHSC2HCH2CHCHCHCHCH2C2HCH3CH3C3H2CH3CNHC2HCH4NHSHC2HC2NCHC7H3CNH9C2HC2HC3H5CHC2HSHCHC2H5NHC2HC2H4C2HCFeHFeNHSFeHC2S2HSC2H4SC3SH2SCH2NH2CH2S3H4FeH2SH2CH3CH2C2H6CHC3HC3NC2HCFeC3HC3HNH4CHCSH2SH4C2HCH4C3H3CH3CHNC3HC5HC2SHC2H3FeH7CH3CHCFeH2SCH4C4H3CH4NHC2H2FeCH5FeC3HCH3CH2FeCSHCH2SHCHC2H3CNHS2CH2CHCHC2SFeCH3NC2HC3H4C2HCHC3HCH2CFeH4SHFeC2H2NCHC4HC2HSCFeCSCH3C2HC2NHCHC4HCHCH9CHCH6CHCHCHNH2NH8C2H3CHC2HCHNCH4C2HC2Fe2S2Fe2HS2FeS2FeS2FeSFeS3HFeS2HS2FeS2FeS2FeSFeS4FeS2FeS2FeSFeS3CHCH3CH3FeS2FeSCFeSFeS3CHNCH3CHCH2CHFeS2FeS2FeSFeCS2FeS2FeS2FeSFeS4HFeSC6H5SHCHC6H4C6H4CHCH2NHCHCSC2SH7C3HCNH5C3H2CNC2H2CHCHC7H5C2H2C3HC7H4C6H5C4H2C2SC6H6C7H4C2HC2H2C6H4C6H4C6H5FeC2H2CHCSH2C3H2FeHSC2SH2C2H2C2H2NH2SC3HC2HSC4NHCSHCNC9H14SH2CHCHCHNSH2C4HS2H2CHSH2C2NC3H11C3NH3CH5FeCHCHC2HSH2SCSHC3H2C2NHCHC2FeH5SCHC3HSC2H7NC4H3SH3CHSH3C2NC9H12CFeHCHCH2SCH3CH2CHC2HSCFeNC8H12CH2CH4NC9H14NC2HC3H4C3HC3H3SH2C3HCHSH6C2HC2HC3FeHFeH2SHCH6C3SH2C2H2FeH3S2H3SHCNFe2HSC2H8C2H2Fe2C2FeCH2C2FeC5FeNCSHC2H5CH4SCSFeCH2CHCHCH3C2SH2CNSC3HCSHCNHCH5C3HC2HC3H2C4H2FeCHC2H2CH2NH2C2H6NHCH4C3SC4H6CH6CHC4HC4HC2HCH2C3FeS2FeC2HS2FeS2FeS2FeSFeS3CSCNHFeSHFeS2FeS2Fe3S3FeS2FeSCFeSFeHSFeSCSC2FeS2FeS2FeS2FeSFeHS2FeS2FeS2FeHFeS3HFeS2FeS2FeSFeS3FeS2FeS2FeSFeS3FeS2CH3S2NS3NFeS2HCHCH3FeSH2CHC7H4C6H4C6H4FeSH3FeH2CH4C2H2CH2CH2C6H4C3H2C6H4C6H4CNC2H3NHCHC3H3NH2C6H2NC2H3CHC6H4FeNHC6HCH2C4H2CH2CHC3H2CHNHC6H3NC4H4C3HC3HCHCH2CHC3HC3HSFeH3NCHC5HCH12C5H2C3H2CHFeCSC2H4C3NCHC3HC3H4C2H4C3HSCH3CH4C3HCHCHCSH5CSHC2HCHFeHCH4C2HCH3NC4H2C2H7CH2C2H2CHSH4SH2FeCHCH2C3HC2HC2S2CHC2HC2HSCH3FeC4HFeHCHC2H2CHC2H3CSHCSCHC4H2C2H2CHSHCHFeHCHCHNC9H21CH3NC2HCHFeHNC8H4CH4C2H2SHSC3HC4H2C2H5CHC2HCHC2H4CHCH8SCHC3H2SC2NHCSHC2HCH3SCHCH10SH2SHC2H3CHC2HC2H3C3H2C3SHC2H5SC2H4C2NHNHC3H2C2HC2HC3HNCH2CH2CHCHCH5C2H2CNHC2HCHC5H5CSH3C3SH2C2HC2HCNCHCHC2NH2C2H4CH3CSNH3CH4C4HCH2CH6CHC2HCH3CH7CH5NCH3C2HCHCH5CHCH3N2HC2HCHC2H7CHC3H5CHCH4C2HC5HC3H4CHCSCHCH2C2H3CH5FeS2FeS2FeSFeHS2HC3FeS2FeS2FeSFeS3C4H3CHSCHFeSCFeS2FeSFeHS2HCHFeS2FeS2FeSFeHS2HCHC7H4C2H3C3H4CH4CHC4NHC6H4CH5NH7C3H2CH2C3H3CHSC2H4CHCHC3HCH2CH2C6H4NCHC3HC2SH4CHC2HC2HCH5NC4HCH3NH9NCHC2H2CHC2H4C2HC4H9CNC2HC4H5C2H3CH2CHCH3CHCHCH2FeCHFeHNCHSHCH3C3H4CHC2NH2FeS2FeS2FeSFeS3C5HCH3CFeS2FeHFeH3CSCHC5H2CH3C2HSC3SHCH4C2H6C8H4CS2C2FeHSCH4CSHC2SC2HFeH2CHCH2FeHFeCH2CHC4H2NCHC2H6C5H2C4HCH2SC2HCH2C2SC2SH4CH3C2HFeCSHCSCH2FeH3FeH2SNCSHCNC2H2CH2SH2CHCHCH2C2SC2H3NCNC6HC2H11CHCHCH4CH2NHC3H2C2HC2H3C2H4CH2CSNH2C2HCHCHC3H2CSC3HSHCH2NH3C3HCH3C2NC3H2SHCH2C2HCH4C3H3CHCS2FeCH5FeSHFeSCHCFeS3NC3SC2H4S2HCH3SHFeSHCSFeSFeS3H5FeC5HC2HCSFe2C5H2CHS2CH2C2Fe2H4C2HNHC7H5SHNH3C2H6C4H2CH3FeSH4SHCHCSCSC3H2CH3CSHC3H6C2FeHC3SHC4HC3H2NHC3H3CH5NH2SCH2CHCH4CH2SH2C2H2CH3CFeHC2HC2HCHCHCH3C6HC3HSHFeCNCH2CH2NHCH4CH4C2H2CHCHCH5CH2CH5C2H3CFeSCFeSFeSFeS3FeS2FeSHFeHFeS2FeSFeS2FeSFeS3FeS2FeS2FeHFeS3H2C2H3C7H10C7H9CHCH2CH2C3HC5HCHNHCHC2H2CH2CH2CH3CH3CH3CHC3HC2H3C5HCN2CH4C2HC3H2C5H2CH2NHSH2CH2C2H2SCNC5HC2HC2H2S2H2CH3C2HC10H2CH4CSH2CHCH4CHCH3SH3NCH2CNC3HSH2CHCH4CH2C5H3CH3CH6CH4CH2C2HCH2C3HFeSHFeS2FeSFeS3FeS2FeS2FeSFeS3FeSCFeSFeSFeS3FeS2FeS2FeSFeS3FeS2FeS2FeSFeS3FeS2FeS2FeHFeS3FeS2FeH2FeSHS2FeS2FeSFeHS2CSCH3C6H5CH2CH3C6H4C5HCH2CHC4H2CHC6H4C2NH2C6H4C3HC2H2CHC2HC4H3C6H4C3HC6H6CHC2H4CH2C3H2CH2CNCH2SC2HC3HCH3CHCHC2HC2H4CHC2H4C2HCHCH2C2H2CNHCH3SC3H3CH2C2H3NH3CHNC6NC2H11C4H3CH6C4H2C2H2CHCNC9H14C2H3C2H4CHC3H2CHC6H2CHCHC2H2CHC3HCHCH2C4FeH3C3HC2H4CH5NC3H2C2HCHCH5CH3CHCH4CSCNSH2CHCHCHCSC2H9C6H4C2H4SH2CH2CHCHC3HCH3C4HCH2CHCHCHFeC2HC4SH3NHC3HC2H2CH2CH3SCHCHCH3CNH6NC4NH2NHSCH3C2H2CH2C2H2C3H5SH2C3H2CH2CH2C2H2CH5C2HNH2CH7C2HCHCHCHC3H3C2H3CHNHC2HCHC3SCNC2H2C2NHC2NHC2HCH2CH2CH8C2HCNCH4SFeS2FeSFeS3HCFeSFeS2C4HFeS2FeSHFeSHS2FeS2FeS2FeNFeS3FeS2FeS2FeHFeCS2C4FeS2FeS2FeSFeHS2FeS2FeS2FeSFeCS2H3SHFeSH8C2H2C2H4CHC6H2C6HCH2CH5CHCHC6H4CHCH5C6H4C2HCHCHC2H2FeC3SCHC3H4C4HC6H4C2HNHC6H7CH3C6H5C3H2CH2C6H4C5H4CH2CHCH4CHCSHSH3CH2CSHCH5CHCHNC6HC2H6CH3CHCHCHCH5C2HCHCH6CHSH5CFeC2HCHC2H2CHC2SH5CHCH2SHSHNCH2CH4CHCSHNHC3HCSHC3HCHCSCHCHSC3HC3SH2C2N2HCH2NH3C4NC2H10FeC2HCH2CFeH2CSHC4H2C2HCH2SHFeCH2CH3C2H2C2H3Fe2H2CH2C3HSH2NH3CHC3HCH4CH3CH3CHC2NHFeS2FeS2FeS3HS2HFeHCH6C3HCHCFeS2HFeHFeSH2FeS2FeS2FeSFeCS2HFeS2FeS2FeSFeS4CFeS2FeSHFeSFeS3FeS2FeS2FeHFeS3HC2HCH2SHCH2C2HCH3CHCH2SCHSCH3C7H4C6H5C2HCH2CH2C5H3CHC6H5CH2CSC2H2C6H5C2H2C7H4NHCHCSCHCH2CH2C3H2CH5C3HCH2CH2CNSHSH3C6H7NH2CH3CH2CHCH2CH7C3H2C2HFeCH2CH4CH3FeCH4C2HC7H4CH2C2HC3H7S2H4CHCHCHCHSC2SHC2NC5FeH2CH3SHCFeCH3FeH2CHNHSHCH3C3HC2H3CH2C2HCHNCH2CHC2HC2HSNHCHCH2C4H2C2HC7H3SC3FeHC3HCHFeHCHCH4C2H2CH3CH3CHCHC2H2CH2C2H2CHNCHSHC2H3NC9H5C2HCH3CH2SCH3C2SH2S3NCSHCFe2C3HC2NHCH3C2HC2HC2H3CHCH2CHC2H7CH2C3HCSFeSHFeS2FeSFeS3FeSHFeS2FeSFeS3FeS2FeSHFeSFeHS2FeSHFeS2FeSFeS2FeSFeS2FeHFeS3FeS2HCFeHFeS3FeSHFeSFeSFeS3FeHSFeS2C3SHC6H4C7H4C6H4SHC6H4C2HC6H4CH2CHCHNHC6H4CH2C6H6C2H2C3SCHCNH5SCH2CH4CHC3H3SHC2H2CSHC3HCH2CH2CHCH3NCNC9H11CSH2C3H8C2H2CNC2HC3HC3HNFeC2HCH2NHNCHC4H5NC9H16CHSH3SH6SH3CH3NHC4NH2C3H4CH7SHCH3CHCHSFeC3H2CHCHC2HCHCHCFeH3C4H2CH4CHCSHC2H4CHCNHCHSH2CHCH2CH4C3H2CH2CH2C2HCH4C4H2CH5CHCHCH5CHCH2SH3C2HC3SCHCH3SC4H3C
_chemical_formula_sum              "Fe576 S1152 C4320 H5184 N288"
_cell_length_a       108.063
_cell_length_b       107.421
_cell_length_c       107.019
_cell_angle_alpha    73.6636
_cell_angle_beta     73.6695
_cell_angle_gamma    73.6988

_space_group_name_H-M_alt    "P 1"
_space_group_IT_number       1

loop_
  _space_group_symop_operation_xyz
  'x, y, z'

loop_
  _atom_site_type_symbol
  _atom_site_label
  _atom_site_symmetry_multiplicity
  _atom_site_fract_x
  _atom_site_fract_y
  _atom_site_fract_z
  _atom_site_occupancy
  Fe  Fe1       1.0  0.12117  0.42343  0.02266  1.0000
  S   S1        1.0  0.13500  0.43059  0.02986  1.0000
  S   S2        1.0  0.10811  0.41046  0.03808  1.0000
  Fe  Fe2       1.0  0.12922  0.43857  0.99388  1.0000
  S   S3        1.0  0.14333  0.44739  0.99885  1.0000
  Fe  Fe3       1.0  0.14963  0.42692  0.01101  1.0000
  C   C1        1.0  0.13794  0.04158  0.45911  1.0000
  Fe  Fe4       1.0  0.12757  0.45030  0.01718  1.0000
  S   S4        1.0  0.11939  0.46852  0.02563  1.0000
  S   S5        1.0  0.13656  0.41776  0.00475  1.0000
  S   S6        1.0  0.11285  0.44349  0.01116  1.0000
  Fe  Fe5       1.0  0.03897  0.43290  0.08568  1.0000
  S   S7        1.0  0.03737  0.44031  0.10377  1.0000
  S   S8        1.0  0.05219  0.44037  0.06604  1.0000
  Fe  Fe6       1.0  0.01519  0.42050  0.09853  1.0000
  S   S9        1.0  0.01139  0.42686  0.11770  1.0000
  S   S10       1.0  0.00179  0.40866  0.09688  1.0000
  Fe  Fe7       1.0  0.01562  0.44602  0.10464  1.0000
  S   S11       1.0  0.00412  0.46509  0.11021  1.0000
  Fe  Fe8       1.0  0.03330  0.42063  0.11561  1.0000
  S   S12       1.0  0.04095  0.41147  0.13439  1.0000
  S   S13       1.0  0.01734  0.44047  0.08559  1.0000
  S   S14       1.0  0.03699  0.41230  0.09742  1.0000
  Fe  Fe9       1.0  0.02434  0.44398  0.19478  1.0000
  S   S15       1.0  0.00524  0.44602  0.21009  1.0000
  S   S16       1.0  0.02243  0.45126  0.17333  1.0000
  Fe  Fe10      1.0  0.04078  0.43436  0.21607  1.0000
  S   S17       1.0  0.02302  0.43532  0.23287  1.0000
  S   S18       1.0  0.06065  0.42763  0.22136  1.0000
  Fe  Fe11      1.0  0.01492  0.42633  0.22120  1.0000
  S   S19       1.0  0.00557  0.40880  0.23122  1.0000
  Fe  Fe12      1.0  0.01547  0.45474  0.21996  1.0000
  H   H1        1.0  0.01576  0.15993  0.37018  1.0000
  S   S20       1.0  0.03343  0.42365  0.20530  1.0000
  S   S21       1.0  0.03375  0.45450  0.20377  1.0000
  Fe  Fe13      1.0  0.12558  0.02301  0.43282  1.0000
  S   S22       1.0  0.11490  0.01879  0.41999  1.0000
  S   S23       1.0  0.11910  0.01617  0.45487  1.0000
  Fe  Fe14      1.0  0.14634  0.03363  0.40961  1.0000
  S   S24       1.0  0.13722  0.03031  0.39461  1.0000
  H   H2        1.0  0.99097  0.39395  0.17365  1.0000
  Fe  Fe15      1.0  0.11771  0.03883  0.40718  1.0000
  S   S25       1.0  0.09997  0.05258  0.39954  1.0000
  Fe  Fe16      1.0  0.13511  0.01078  0.40882  1.0000
  S   S26       1.0  0.12699  0.04371  0.42097  1.0000
  S   S27       1.0  0.14563  0.01353  0.42278  1.0000
  Fe  Fe17      1.0  0.01862  0.11736  0.42565  1.0000
  S   S28       1.0  0.01429  0.13951  0.42314  1.0000
  S   S29       1.0  0.00162  0.10687  0.43234  1.0000
  Fe  Fe18      1.0  0.04821  0.11405  0.42381  1.0000
  S   S30       1.0  0.04599  0.13595  0.42152  1.0000
  S   S31       1.0  0.06892  0.10218  0.42527  1.0000
  Fe  Fe19      1.0  0.02753  0.13504  0.43734  1.0000
  S   S32       1.0  0.02167  0.14495  0.45461  1.0000
  Fe  Fe20      1.0  0.03319  0.13840  0.40754  1.0000
  S   S33       1.0  0.03683  0.15261  0.38771  1.0000
  S   S34       1.0  0.03072  0.11297  0.44104  1.0000
  S   S35       1.0  0.03654  0.11649  0.40857  1.0000
  Fe  Fe21      1.0  0.03596  0.24898  0.40240  1.0000
  S   S36       1.0  0.03066  0.24279  0.42468  1.0000
  S   S37       1.0  0.03305  0.27076  0.39247  1.0000
  Fe  Fe22      1.0  0.04267  0.22036  0.39885  1.0000
  S   S38       1.0  0.03812  0.21188  0.42084  1.0000
  S   S39       1.0  0.05000  0.20781  0.38340  1.0000
  Fe  Fe23      1.0  0.02059  0.22896  0.42123  1.0000
  S   S40       1.0  0.00043  0.22714  0.43342  1.0000
  Fe  Fe24      1.0  0.04881  0.22651  0.42205  1.0000
  S   S41       1.0  0.06283  0.22021  0.43576  1.0000
  S   S42       1.0  0.02416  0.23647  0.39909  1.0000
  S   S43       1.0  0.05498  0.23368  0.39994  1.0000
  Fe  Fe25      1.0  0.05079  0.45316  0.30521  1.0000
  S   S44       1.0  0.04420  0.45148  0.28778  1.0000
  S   S45       1.0  0.06653  0.46458  0.30139  1.0000
  Fe  Fe26      1.0  0.03537  0.43341  0.32501  1.0000
  S   S46       1.0  0.02782  0.42963  0.30926  1.0000
  S   S47       1.0  0.02814  0.42587  0.34714  1.0000
  Fe  Fe27      1.0  0.04817  0.42969  0.29650  1.0000
  S   S48       1.0  0.05862  0.41507  0.28342  1.0000
  Fe  Fe28      1.0  0.02449  0.45170  0.30168  1.0000
  S   S49       1.0  0.00599  0.46200  0.29449  1.0000
  S   S50       1.0  0.05631  0.43113  0.31309  1.0000
  S   S51       1.0  0.03048  0.45572  0.31830  1.0000
  Fe  Fe29      1.0  0.01494  0.34932  0.41345  1.0000
  S   S52       1.0  0.02339  0.36723  0.40894  1.0000
  H   H3        1.0  0.02740  0.45418  0.34863  1.0000
  Fe  Fe30      1.0  0.04112  0.32984  0.41413  1.0000
  S   S53       1.0  0.05228  0.34598  0.40984  1.0000
  S   S54       1.0  0.05001  0.30779  0.41843  1.0000
  Fe  Fe31      1.0  0.03505  0.35513  0.42444  1.0000
  S   S55       1.0  0.03386  0.36517  0.44076  1.0000
  Fe  Fe32      1.0  0.03979  0.35685  0.39468  1.0000
  S   S56       1.0  0.04835  0.36505  0.37298  1.0000
  S   S57       1.0  0.02514  0.33805  0.43001  1.0000
  S   S58       1.0  0.03010  0.33996  0.39791  1.0000
  C   C2        1.0  0.00262  0.21075  0.41698  1.0000
  H   H4        1.0  0.99192  0.38110  0.46238  1.0000
  H   H5        1.0  0.01230  0.19135  0.37809  1.0000
  H   H6        1.0  0.00540  0.34245  0.39202  1.0000
  C   C3        1.0  0.03367  0.40891  0.35410  1.0000
  C   C4        1.0  0.04259  0.40034  0.34630  1.0000
  C   C5        1.0  0.04700  0.38690  0.35220  1.0000
  C   C6        1.0  0.04251  0.38195  0.36589  1.0000
  C   C7        1.0  0.03353  0.39054  0.37365  1.0000
  C   C8        1.0  0.02912  0.40397  0.36777  1.0000
  H   H7        1.0  0.04614  0.40406  0.33575  1.0000
  H   H8        1.0  0.05396  0.38032  0.34614  1.0000
  H   H9        1.0  0.03008  0.38688  0.38421  1.0000
  H   H10       1.0  0.02224  0.41056  0.37386  1.0000
  H   H11       1.0  0.01026  0.38233  0.37175  1.0000
  H   H12       1.0  0.00453  0.44763  0.32164  1.0000
  H   H13       1.0  0.01288  0.21136  0.41343  1.0000
  H   H14       1.0  0.10994  0.44524  0.04362  1.0000
  C   C9        1.0  0.02958  0.46308  0.34954  1.0000
  C   C10       1.0  0.04262  0.35670  0.45340  1.0000
  H   H15       1.0  0.06639  0.28089  0.46092  1.0000
  H   H16       1.0  0.07724  0.16601  0.47325  1.0000
  H   H17       1.0  0.00021  0.40276  0.17841  1.0000
  C   C11       1.0  0.03672  0.28082  0.40079  1.0000
  C   C12       1.0  0.03180  0.29459  0.39782  1.0000
  C   C13       1.0  0.03530  0.30286  0.40372  1.0000
  C   C14       1.0  0.04402  0.29747  0.41235  1.0000
  C   C15       1.0  0.04861  0.28364  0.41564  1.0000
  C   C16       1.0  0.04489  0.27533  0.40992  1.0000
  H   H18       1.0  0.02537  0.29888  0.39084  1.0000
  H   H19       1.0  0.03142  0.31340  0.40138  1.0000
  H   H20       1.0  0.05537  0.27937  0.42228  1.0000
  H   H21       1.0  0.04888  0.26474  0.41205  1.0000
  C   C17       1.0  0.05973  0.23195  0.44539  1.0000
  N   N1        1.0  0.08331  0.05032  0.45095  1.0000
  H   H22       1.0  0.05195  0.24842  0.43087  1.0000
  H   H23       1.0  0.99433  0.36834  0.38313  1.0000
  C   C18       1.0  0.04025  0.16785  0.38736  1.0000
  C   C19       1.0  0.04591  0.17509  0.37506  1.0000
  C   C20       1.0  0.04853  0.18739  0.37410  1.0000
  C   C21       1.0  0.04546  0.19271  0.38540  1.0000
  C   C22       1.0  0.03956  0.18562  0.39779  1.0000
  C   C23       1.0  0.03704  0.17310  0.39878  1.0000
  H   H24       1.0  0.04844  0.17111  0.36620  1.0000
  H   H25       1.0  0.05313  0.19278  0.36453  1.0000
  H   H26       1.0  0.03712  0.18968  0.40656  1.0000
  H   H27       1.0  0.03252  0.16762  0.40832  1.0000
  C   C24       1.0  0.03436  0.13984  0.46336  1.0000
  H   H28       1.0  0.04377  0.45541  0.14546  1.0000
  H   H29       1.0  0.01018  0.47469  0.34708  1.0000
  H   H30       1.0  0.13708  0.03364  0.44323  1.0000
  C   C25       1.0  0.14947  0.48354  0.03636  1.0000
  C   C26       1.0  0.09164  0.06695  0.40588  1.0000
  C   C27       1.0  0.07851  0.07284  0.40480  1.0000
  C   C28       1.0  0.07143  0.08386  0.41043  1.0000
  C   C29       1.0  0.07751  0.08908  0.41711  1.0000
  C   C30       1.0  0.09075  0.08346  0.41782  1.0000
  C   C31       1.0  0.09780  0.07248  0.41219  1.0000
  H   H31       1.0  0.07371  0.06868  0.39981  1.0000
  H   H32       1.0  0.06122  0.08813  0.40982  1.0000
  H   H33       1.0  0.09555  0.08753  0.42288  1.0000
  H   H34       1.0  0.10801  0.06828  0.41276  1.0000
  S   S59       1.0  0.14276  0.99029  0.40459  1.0000
  C   C32       1.0  0.99607  0.44713  0.31845  1.0000
  H   H35       1.0  0.00245  0.42839  0.14622  1.0000
  H   H36       1.0  0.99277  0.42549  0.20996  1.0000
  C   C33       1.0  0.99309  0.11551  0.40862  1.0000
  C   C34       1.0  0.12585  0.02472  0.46201  1.0000
  C   C35       1.0  0.06167  0.18721  0.45117  1.0000
  C   C36       1.0  0.06566  0.47509  0.31176  1.0000
  H   H37       1.0  0.00210  0.11910  0.40421  1.0000
  C   C37       1.0  0.05952  0.42440  0.23870  1.0000
  C   C38       1.0  0.06706  0.41261  0.24483  1.0000
  C   C39       1.0  0.06669  0.40997  0.25851  1.0000
  C   C40       1.0  0.05904  0.41924  0.26615  1.0000
  C   C41       1.0  0.05173  0.43125  0.25998  1.0000
  C   C42       1.0  0.05181  0.43372  0.24631  1.0000
  H   H38       1.0  0.07312  0.40542  0.23901  1.0000
  H   H39       1.0  0.07239  0.40069  0.26318  1.0000
  H   H40       1.0  0.04602  0.43863  0.26565  1.0000
  H   H41       1.0  0.04624  0.44300  0.24156  1.0000
  C   C43       1.0  0.05234  0.31014  0.47117  1.0000
  H   H42       1.0  0.03379  0.46109  0.22856  1.0000
  C   C44       1.0  0.06026  0.29065  0.46162  1.0000
  C   C45       1.0  0.03548  0.42233  0.14546  1.0000
  C   C46       1.0  0.02783  0.43510  0.14184  1.0000
  C   C47       1.0  0.02351  0.44370  0.15068  1.0000
  C   C48       1.0  0.02687  0.43965  0.16317  1.0000
  C   C49       1.0  0.03433  0.42682  0.16691  1.0000
  C   C50       1.0  0.03863  0.41818  0.15805  1.0000
  H   H43       1.0  0.02526  0.43842  0.13221  1.0000
  H   H44       1.0  0.01778  0.45363  0.14769  1.0000
  H   H45       1.0  0.03703  0.42363  0.17649  1.0000
  H   H46       1.0  0.04452  0.40830  0.16092  1.0000
  H   H47       1.0  0.04341  0.16314  0.44640  1.0000
  H   H48       1.0  0.03850  0.21343  0.44991  1.0000
  C   C51       1.0  0.04839  0.16995  0.44779  1.0000
  H   H49       1.0  0.98755  0.42105  0.25134  1.0000
  H   H50       1.0  0.02675  0.46713  0.08880  1.0000
  C   C52       1.0  0.09207  0.41825  0.04544  1.0000
  C   C53       1.0  0.08627  0.43114  0.03959  1.0000
  C   C54       1.0  0.07386  0.43755  0.04591  1.0000
  C   C55       1.0  0.06717  0.43122  0.05823  1.0000
  C   C56       1.0  0.07274  0.41818  0.06403  1.0000
  C   C57       1.0  0.08513  0.41166  0.05755  1.0000
  H   H51       1.0  0.09127  0.43618  0.03014  1.0000
  H   H52       1.0  0.06945  0.44752  0.04125  1.0000
  H   H53       1.0  0.06762  0.41319  0.07353  1.0000
  H   H54       1.0  0.08952  0.40162  0.06209  1.0000
  N   N2        1.0  0.99422  0.36309  0.45597  1.0000
  H   H55       1.0  0.04451  0.39594  0.07648  1.0000
  C   C58       1.0  0.04744  0.13514  0.45708  1.0000
  C   C59       1.0  0.04208  0.46293  0.35153  1.0000
  H   H56       1.0  0.02498  0.39231  0.05490  1.0000
  C   C60       1.0  0.06723  0.12867  0.38703  1.0000
  H   H57       1.0  0.16681  0.43807  0.02323  1.0000
  C   C61       1.0  0.06043  0.18741  0.43845  1.0000
  H   H58       1.0  0.07741  0.47516  0.23608  1.0000
  H   H59       1.0  0.09122  0.14839  0.36244  1.0000
  H   H60       1.0  0.00441  0.40312  0.35528  1.0000
  H   H61       1.0  0.07267  0.47148  0.13697  1.0000
  N   N3        1.0  0.01551  0.41911  0.27877  1.0000
  C   C62       1.0  0.01567  0.41078  0.29244  1.0000
  C   C63       1.0  0.02656  0.41227  0.26943  1.0000
  C   C64       1.0  0.01819  0.43209  0.27809  1.0000
  C   C65       1.0  0.00242  0.42140  0.27566  1.0000
  H   H62       1.0  0.16349  0.00445  0.39366  1.0000
  C   C66       1.0  0.08512  0.48306  0.03848  1.0000
  H   H63       1.0  0.00903  0.48111  0.12502  1.0000
  H   H64       1.0  0.09392  0.09474  0.47437  1.0000
  H   H65       1.0  0.07206  0.18981  0.47150  1.0000
  H   H66       1.0  0.01250  0.40140  0.29377  1.0000
  H   H67       1.0  0.02574  0.40803  0.29459  1.0000
  H   H68       1.0  0.00920  0.41599  0.30036  1.0000
  H   H69       1.0  0.02477  0.40273  0.26893  1.0000
  H   H70       1.0  0.03612  0.40983  0.27254  1.0000
  H   H71       1.0  0.02825  0.41861  0.25917  1.0000
  H   H72       1.0  0.01051  0.43762  0.28515  1.0000
  H   H73       1.0  0.02782  0.43083  0.28066  1.0000
  H   H74       1.0  0.01849  0.43860  0.26790  1.0000
  C   C67       1.0  0.12689  0.48201  0.03911  1.0000
  H   H75       1.0  0.98946  0.25367  0.43660  1.0000
  H   H76       1.0  0.05271  0.17918  0.42688  1.0000
  C   C68       1.0  0.99761  0.33718  0.39716  1.0000
  C   C69       1.0  0.17774  0.07299  0.45451  1.0000
  H   H77       1.0  0.10467  0.04474  0.44758  1.0000
  C   C70       1.0  0.06655  0.27891  0.37834  1.0000
  N   N4        1.0  0.05295  0.46978  0.14774  1.0000
  C   C71       1.0  0.01104  0.20393  0.48067  1.0000
  H   H78       1.0  0.00531  0.15824  0.39303  1.0000
  H   H79       1.0  0.16061  0.06452  0.45963  1.0000
  C   C72       1.0  0.09665  0.05180  0.44294  1.0000
  H   H80       1.0  0.08558  0.28070  0.46523  1.0000
  H   H81       1.0  0.04679  0.44244  0.33888  1.0000
  H   H82       1.0  0.07253  0.03471  0.45900  1.0000
  H   H83       1.0  0.09289  0.10908  0.48010  1.0000
  C   C73       1.0  0.05343  0.34607  0.45155  1.0000
  H   H84       1.0  0.08697  0.11224  0.39912  1.0000
  H   H85       1.0  0.06775  0.12849  0.45897  1.0000
  C   C74       1.0  0.01658  0.47365  0.10704  1.0000
  C   C75       1.0  0.03885  0.36096  0.46544  1.0000
  C   C76       1.0  0.99355  0.33015  0.39033  1.0000
  H   H86       1.0  0.06965  0.44001  0.27053  1.0000
  H   H87       1.0  0.01933  0.17207  0.47352  1.0000
  C   C77       1.0  0.02311  0.40259  0.05629  1.0000
  H   H88       1.0  0.14397  0.04841  0.45265  1.0000
  H   H89       1.0  0.14814  0.46114  0.01992  1.0000
  H   H90       1.0  0.00083  0.38432  0.22990  1.0000
  C   C78       1.0  0.02872  0.21567  0.46984  1.0000
  H   H91       1.0  0.08978  0.46294  0.26967  1.0000
  H   H92       1.0  0.04671  0.47512  0.08650  1.0000
  H   H93       1.0  0.09614  0.48220  0.07698  1.0000
  C   C79       1.0  0.05370  0.17890  0.43677  1.0000
  C   C80       1.0  0.05727  0.46254  0.16032  1.0000
  H   H94       1.0  0.07609  0.44646  0.28051  1.0000
  C   C81       1.0  0.05998  0.46957  0.16833  1.0000
  C   C82       1.0  0.06217  0.44217  0.17738  1.0000
  C   C83       1.0  0.06387  0.46301  0.18035  1.0000
  C   C84       1.0  0.06505  0.44932  0.18482  1.0000
  H   H95       1.0  0.11932  0.45447  0.06260  1.0000
  H   H96       1.0  0.08607  0.42950  0.22924  1.0000
  H   H97       1.0  0.06270  0.43158  0.18113  1.0000
  H   H98       1.0  0.17176  0.99787  0.41553  1.0000
  C   C85       1.0  0.08428  0.43943  0.23090  1.0000
  C   C86       1.0  0.99120  0.37743  0.37616  1.0000
  C   C87       1.0  0.99801  0.37079  0.46333  1.0000
  H   H99       1.0  0.17187  0.01775  0.38768  1.0000
  H   H100      1.0  0.06401  0.45531  0.36308  1.0000
  H   H101      1.0  0.05894  0.48023  0.16543  1.0000
  C   C88       1.0  0.04583  0.35463  0.47561  1.0000
  C   C89       1.0  0.99680  0.12089  0.45965  1.0000
  C   C90       1.0  0.01704  0.48027  0.11635  1.0000
  H   H102      1.0  0.06785  0.44426  0.19426  1.0000
  H   H103      1.0  0.06810  0.14693  0.40311  1.0000
  H   H104      1.0  0.06710  0.11796  0.38884  1.0000
  C   C91       1.0  0.06519  0.45227  0.35361  1.0000
  H   H105      1.0  0.02039  0.41908  0.07165  1.0000
  N   N5        1.0  0.99781  0.40978  0.15800  1.0000
  C   C92       1.0  0.06120  0.29757  0.47071  1.0000
  C   C93       1.0  0.13390  0.03332  0.45375  1.0000
  C   C94       1.0  0.17658  0.03766  0.41287  1.0000
  C   C95       1.0  0.99069  0.33844  0.41011  1.0000
  N   N6        1.0  0.05742  0.17789  0.47626  1.0000
  H   H106      1.0  0.99501  0.19523  0.38434  1.0000
  C   C96       1.0  0.99439  0.21748  0.42680  1.0000
  H   H107      1.0  0.16474  0.05936  0.43755  1.0000
  S   S60       1.0  0.00645  0.47322  0.22785  1.0000
  C   C97       1.0  0.99753  0.20321  0.41165  1.0000
  C   C98       1.0  0.03141  0.14082  0.47666  1.0000
  C   C99       1.0  0.98916  0.42929  0.07955  1.0000
  H   H108      1.0  0.08578  0.12888  0.36490  1.0000
  C   C100      1.0  0.08947  0.12456  0.37427  1.0000
  C   C101      1.0  0.98858  0.16241  0.37521  1.0000
  H   H109      1.0  0.99703  0.36591  0.47408  1.0000
  S   S61       1.0  0.13935  0.05118  0.47946  1.0000
  H   H110      1.0  0.10826  0.45271  0.08523  1.0000
  C   C102      1.0  0.05466  0.13278  0.47729  1.0000
  S   S62       1.0  0.99348  0.34962  0.41763  1.0000
  C   C103      1.0  0.08011  0.14501  0.38330  1.0000
  H   H111      1.0  0.09515  0.12528  0.39746  1.0000
  C   C104      1.0  0.18370  0.98455  0.39742  1.0000
  H   H112      1.0  0.98696  0.37956  0.21758  1.0000
  C   C105      1.0  0.06394  0.38890  0.03709  1.0000
  C   C106      1.0  0.04789  0.44025  0.36382  1.0000
  C   C107      1.0  0.02965  0.41826  0.06376  1.0000
  H   H113      1.0  0.98886  0.43434  0.33695  1.0000
  H   H114      1.0  0.11498  0.42318  0.05846  1.0000
  C   C108      1.0  0.12259  0.02364  0.47580  1.0000
  C   C109      1.0  0.07322  0.15191  0.39364  1.0000
  H   H115      1.0  0.07291  0.44287  0.35382  1.0000
  H   H116      1.0  0.08006  0.39757  0.02420  1.0000
  H   H117      1.0  0.99067  0.29615  0.41217  1.0000
  H   H118      1.0  0.00262  0.12840  0.45823  1.0000
  H   H119      1.0  0.06696  0.17058  0.39984  1.0000
  H   H120      1.0  0.00924  0.41641  0.25588  1.0000
  C   C110      1.0  0.07067  0.39915  0.03129  1.0000
  C   C111      1.0  0.03132  0.47047  0.23149  1.0000
  H   H121      1.0  0.07743  0.18325  0.37834  1.0000
  H   H122      1.0  0.00466  0.19801  0.44763  1.0000
  H   H123      1.0  0.13846  0.99042  0.46272  1.0000
  C   C112      1.0  0.06537  0.41147  0.03468  1.0000
  N   N7        1.0  0.08067  0.13063  0.38544  1.0000
  C   C113      1.0  0.98831  0.38956  0.21583  1.0000
  H   H124      1.0  0.04634  0.32731  0.35999  1.0000
  C   C114      1.0  0.08262  0.45036  0.22034  1.0000
  C   C115      1.0  0.07751  0.47603  0.31393  1.0000
  C   C116      1.0  0.06136  0.28728  0.36762  1.0000
  C   C117      1.0  0.07062  0.28422  0.38657  1.0000
  C   C118      1.0  0.04106  0.47485  0.23438  1.0000
  H   H125      1.0  0.06192  0.33705  0.38028  1.0000
  H   H126      1.0  0.02706  0.39642  0.08156  1.0000
  C   C119      1.0  0.04815  0.32809  0.36942  1.0000
  C   C120      1.0  0.05072  0.25443  0.44882  1.0000
  C   C121      1.0  0.05831  0.44862  0.16532  1.0000
  C   C122      1.0  0.07531  0.45573  0.09690  1.0000
  H   H127      1.0  0.03707  0.32529  0.46295  1.0000
  C   C123      1.0  0.07125  0.32607  0.35876  1.0000
  C   C124      1.0  0.06399  0.32600  0.38210  1.0000
  C   C125      1.0  0.17727  0.43360  0.02120  1.0000
  H   H128      1.0  0.07440  0.27768  0.39507  1.0000
  H   H129      1.0  0.07016  0.33707  0.35656  1.0000
  H   H130      1.0  0.17951  0.41747  0.98234  1.0000
  C   C126      1.0  0.01848  0.47830  0.23219  1.0000
  H   H131      1.0  0.08309  0.44886  0.21060  1.0000
  H   H132      1.0  0.98993  0.37962  0.43979  1.0000
  C   C127      1.0  0.06013  0.30102  0.36516  1.0000
  N   N8        1.0  0.98759  0.27622  0.41653  1.0000
  C   C128      1.0  0.99779  0.19658  0.45757  1.0000
  C   C129      1.0  0.03844  0.47675  0.09475  1.0000
  C   C130      1.0  0.08308  0.44120  0.24368  1.0000
  H   H133      1.0  0.07848  0.12562  0.40696  1.0000
  C   C131      1.0  0.08022  0.46314  0.22239  1.0000
  H   H134      1.0  0.05592  0.44249  0.16026  1.0000
  H   H135      1.0  0.05101  0.46885  0.23358  1.0000
  C   C132      1.0  0.05534  0.44555  0.33989  1.0000
  H   H136      1.0  0.08409  0.43226  0.25143  1.0000
  H   H137      1.0  0.06743  0.45935  0.10474  1.0000
  H   H138      1.0  0.99171  0.20658  0.45888  1.0000
  H   H139      1.0  0.08669  0.46948  0.31035  1.0000
  C   C133      1.0  0.98913  0.43943  0.36196  1.0000
  H   H140      1.0  0.09908  0.98747  0.43865  1.0000
  H   H141      1.0  0.05294  0.47602  0.35461  1.0000
  H   H142      1.0  0.99813  0.43297  0.36468  1.0000
  C   C134      1.0  0.07144  0.48264  0.06486  1.0000
  C   C135      1.0  0.99166  0.41545  0.21154  1.0000
  N   N9        1.0  0.05251  0.45054  0.35222  1.0000
  H   H143      1.0  0.06757  0.21773  0.46151  1.0000
  H   H144      1.0  0.03468  0.22225  0.46995  1.0000
  H   H145      1.0  0.02303  0.26534  0.46601  1.0000
  C   C136      1.0  0.05342  0.25032  0.46155  1.0000
  C   C137      1.0  0.99067  0.42608  0.28466  1.0000
  C   C138      1.0  0.06740  0.16576  0.48014  1.0000
  H   H146      1.0  0.06470  0.19431  0.42983  1.0000
  C   C139      1.0  0.17325  0.00692  0.38843  1.0000
  C   C140      1.0  0.99181  0.28435  0.47373  1.0000
  C   C141      1.0  0.99298  0.40392  0.17229  1.0000
  C   C142      1.0  0.06892  0.47506  0.05753  1.0000
  H   H147      1.0  0.99827  0.32999  0.38000  1.0000
  H   H148      1.0  0.01200  0.17105  0.39450  1.0000
  C   C143      1.0  0.07353  0.05936  0.44321  1.0000
  C   C144      1.0  0.17145  0.06410  0.43949  1.0000
  C   C145      1.0  0.03592  0.39503  0.07326  1.0000
  C   C146      1.0  0.13436  0.04082  0.47282  1.0000
  H   H149      1.0  0.05801  0.45329  0.33084  1.0000
  C   C147      1.0  0.10746  0.42715  0.06676  1.0000
  C   C148      1.0  0.08510  0.16625  0.36931  1.0000
  H   H150      1.0  0.08947  0.17196  0.35980  1.0000
  H   H151      1.0  0.00694  0.12827  0.47710  1.0000
  H   H152      1.0  0.02160  0.40955  0.04666  1.0000
  H   H153      1.0  0.06238  0.44969  0.08884  1.0000
  N   N10       1.0  0.06181  0.32147  0.37114  1.0000
  H   H154      1.0  0.04980  0.13431  0.44683  1.0000
  H   H155      1.0  0.08164  0.32132  0.35964  1.0000
  H   H156      1.0  0.01234  0.17513  0.35792  1.0000
  C   C149      1.0  0.08599  0.15264  0.37098  1.0000
  H   H157      1.0  0.09808  0.42480  0.06681  1.0000
  H   H158      1.0  0.09016  0.02897  0.45676  1.0000
  H   H159      1.0  0.07383  0.46935  0.03872  1.0000
  C   C150      1.0  0.05385  0.24522  0.44076  1.0000
  H   H160      1.0  0.99803  0.31161  0.47956  1.0000
  H   H161      1.0  0.06017  0.13243  0.39559  1.0000
  H   H162      1.0  0.15708  0.99155  0.44446  1.0000
  C   C151      1.0  0.00045  0.38535  0.36965  1.0000
  N   N11       1.0  0.98735  0.11919  0.47279  1.0000
  H   H163      1.0  0.04716  0.38259  0.05073  1.0000
  N   N12       1.0  0.10619  0.44160  0.06510  1.0000
  C   C152      1.0  0.11945  0.44372  0.06423  1.0000
  C   C153      1.0  0.10247  0.44868  0.05220  1.0000
  C   C154      1.0  0.09581  0.44641  0.07615  1.0000
  C   C155      1.0  0.08252  0.44561  0.07781  1.0000
  C   C156      1.0  0.09844  0.45189  0.08554  1.0000
  C   C157      1.0  0.04349  0.31554  0.46267  1.0000
  C   C158      1.0  0.08829  0.45642  0.09578  1.0000
  C   C159      1.0  0.08450  0.28861  0.47052  1.0000
  H   H164      1.0  0.12332  0.43810  0.07330  1.0000
  H   H165      1.0  0.12689  0.44022  0.05563  1.0000
  C   C160      1.0  0.05676  0.34417  0.47370  1.0000
  H   H166      1.0  0.10155  0.45957  0.05053  1.0000
  H   H167      1.0  0.09300  0.44712  0.05154  1.0000
  H   H168      1.0  0.07976  0.44135  0.07126  1.0000
  H   H169      1.0  0.00854  0.37156  0.45951  1.0000
  H   H170      1.0  0.16255  0.03289  0.43131  1.0000
  H   H171      1.0  0.01102  0.39119  0.15471  1.0000
  H   H172      1.0  0.99796  0.43321  0.07663  1.0000
  N   N13       1.0  0.07887  0.45644  0.25959  1.0000
  C   C161      1.0  0.07792  0.44432  0.27045  1.0000
  C   C162      1.0  0.09048  0.46113  0.25970  1.0000
  C   C163      1.0  0.06676  0.46678  0.26280  1.0000
  C   C164      1.0  0.08031  0.45414  0.24619  1.0000
  H   H173      1.0  0.00744  0.27484  0.41808  1.0000
  C   C165      1.0  0.07926  0.46503  0.23506  1.0000
  H   H174      1.0  0.01352  0.34999  0.45477  1.0000
  H   H175      1.0  0.09066  0.48292  0.02833  1.0000
  H   H176      1.0  0.02721  0.48152  0.18711  1.0000
  H   H177      1.0  0.08720  0.43652  0.26952  1.0000
  H   H178      1.0  0.02302  0.28139  0.44499  1.0000
  C   C166      1.0  0.01335  0.17711  0.46585  1.0000
  H   H179      1.0  0.09980  0.45367  0.25729  1.0000
  N   N14       1.0  0.00222  0.17652  0.37809  1.0000
  H   H180      1.0  0.09142  0.47059  0.25223  1.0000
  H   H181      1.0  0.05802  0.46459  0.26095  1.0000
  H   H182      1.0  0.17820  0.01248  0.40868  1.0000
  H   H183      1.0  0.06766  0.47687  0.25677  1.0000
  H   H184      1.0  0.05556  0.43082  0.36485  1.0000
  H   H185      1.0  0.18373  0.06425  0.42028  1.0000
  H   H186      1.0  0.99067  0.29075  0.39785  1.0000
  H   H187      1.0  0.00091  0.34409  0.46828  1.0000
  H   H188      1.0  0.06709  0.26830  0.38048  1.0000
  H   H189      1.0  0.06310  0.13415  0.37806  1.0000
  H   H190      1.0  0.02304  0.17318  0.36878  1.0000
  C   C167      1.0  0.05601  0.17851  0.46270  1.0000
  N   N15       1.0  0.07110  0.29173  0.47911  1.0000
  C   C168      1.0  0.14476  0.46827  0.02622  1.0000
  N   N16       1.0  0.03400  0.40486  0.06068  1.0000
  H   H191      1.0  0.11033  0.42141  0.07631  1.0000
  C   C169      1.0  0.01727  0.29868  0.47950  1.0000
  H   H192      1.0  0.06715  0.19399  0.45167  1.0000
  C   C170      1.0  0.01376  0.17095  0.36831  1.0000
  H   H193      1.0  0.04593  0.33897  0.36906  1.0000
  H   H194      1.0  0.04879  0.46660  0.13034  1.0000
  C   C171      1.0  0.08555  0.12319  0.39773  1.0000
  H   H195      1.0  0.01865  0.29724  0.46954  1.0000
  H   H196      1.0  0.00389  0.19809  0.40400  1.0000
  C   C172      1.0  0.98716  0.43965  0.32717  1.0000
  H   H197      1.0  0.09832  0.04984  0.43285  1.0000
  C   C173      1.0  0.18197  0.42309  0.01458  1.0000
  H   H198      1.0  0.99640  0.15367  0.37677  1.0000
  H   H199      1.0  0.07528  0.05715  0.43320  1.0000
  H   H200      1.0  0.18226  0.44596  0.03092  1.0000
  H   H201      1.0  0.09975  0.12582  0.37244  1.0000
  H   H202      1.0  0.05218  0.31612  0.47784  1.0000
  H   H203      1.0  0.05740  0.32251  0.39178  1.0000
  C   C174      1.0  0.03902  0.48323  0.10413  1.0000
  H   H204      1.0  0.07887  0.47167  0.21418  1.0000
  H   H205      1.0  0.04075  0.32366  0.37779  1.0000
  H   H206      1.0  0.06975  0.32364  0.34993  1.0000
  H   H207      1.0  0.16572  0.40252  0.98643  1.0000
  H   H208      1.0  0.04524  0.44374  0.37328  1.0000
  C   C175      1.0  0.07839  0.17263  0.37974  1.0000
  C   C176      1.0  0.06279  0.22793  0.45798  1.0000
  C   C177      1.0  0.06918  0.29797  0.38439  1.0000
  H   H209      1.0  0.00139  0.34354  0.45158  1.0000
  C   C178      1.0  0.05954  0.23708  0.46610  1.0000
  H   H210      1.0  0.04577  0.16220  0.46869  1.0000
  C   C179      1.0  0.99914  0.42346  0.15683  1.0000
  S   S63       1.0  0.04879  0.26159  0.47196  1.0000
  H   H211      1.0  0.00652  0.42346  0.16232  1.0000
  H   H212      1.0  0.03770  0.38461  0.07229  1.0000
  C   C180      1.0  0.06368  0.30684  0.37367  1.0000
  C   C181      1.0  0.07248  0.16547  0.39188  1.0000
  C   C182      1.0  0.02713  0.47220  0.09606  1.0000
  C   C183      1.0  0.00092  0.41970  0.26349  1.0000
  H   H213      1.0  0.03721  0.42052  0.06752  1.0000
  H   H214      1.0  0.07069  0.41939  0.03016  1.0000
  C   C184      1.0  0.06060  0.33994  0.46162  1.0000
  H   H215      1.0  0.06108  0.45362  0.13747  1.0000
  H   H216      1.0  0.02755  0.42619  0.05487  1.0000
  H   H217      1.0  0.06590  0.48218  0.07503  1.0000
  C   C185      1.0  0.01415  0.27301  0.46529  1.0000
  H   H218      1.0  0.00712  0.37152  0.43805  1.0000
  H   H219      1.0  0.00289  0.47687  0.16143  1.0000
  C   C186      1.0  0.13121  0.47293  0.03086  1.0000
  H   H220      1.0  0.05615  0.30706  0.35666  1.0000
  H   H221      1.0  0.11466  0.99651  0.40481  1.0000
  H   H222      1.0  0.06810  0.37933  0.03440  1.0000
  C   C187      1.0  0.04306  0.30857  0.45368  1.0000
  C   C188      1.0  0.05342  0.41356  0.04403  1.0000
  H   H223      1.0  0.05005  0.42332  0.04629  1.0000
  C   C189      1.0  0.05196  0.39088  0.04643  1.0000
  C   C190      1.0  0.04384  0.47504  0.35304  1.0000
  H   H224      1.0  0.06924  0.45983  0.34505  1.0000
  C   C191      1.0  0.04639  0.40324  0.05031  1.0000
  H   H225      1.0  0.07205  0.30137  0.39152  1.0000
  H   H226      1.0  0.05645  0.34279  0.44226  1.0000
  H   H227      1.0  0.05802  0.28308  0.36140  1.0000
  H   H228      1.0  0.03901  0.43754  0.36290  1.0000
  N   N17       1.0  0.18379  0.99877  0.39557  1.0000
  C   C192      1.0  0.08147  0.05305  0.46426  1.0000
  H   H229      1.0  0.01356  0.40413  0.06378  1.0000
  H   H230      1.0  0.08294  0.03435  0.44260  1.0000
  H   H231      1.0  0.07440  0.32244  0.38326  1.0000
  H   H232      1.0  0.03055  0.36923  0.46691  1.0000
  H   H233      1.0  0.05091  0.29064  0.44629  1.0000
  C   C193      1.0  0.99759  0.40525  0.22088  1.0000
  H   H234      1.0  0.06912  0.33191  0.46004  1.0000
  C   C194      1.0  0.99612  0.39226  0.22282  1.0000
  H   H235      1.0  0.10878  0.09851  0.47543  1.0000
  H   H236      1.0  0.01565  0.40584  0.14305  1.0000
  C   C195      1.0  0.01429  0.28221  0.45306  1.0000
  H   H237      1.0  0.09801  0.06203  0.44160  1.0000
  S   S64       1.0  0.17125  0.41686  0.00927  1.0000
  H   H238      1.0  0.00171  0.39860  0.13577  1.0000
  S   S65       1.0  0.16573  0.04037  0.40223  1.0000
  C   C196      1.0  0.05132  0.29609  0.45325  1.0000
  H   H239      1.0  0.04616  0.26469  0.44519  1.0000
  H   H240      1.0  0.06449  0.46764  0.27338  1.0000
  H   H241      1.0  0.00418  0.25927  0.41819  1.0000
  C   C197      1.0  0.18609  0.43813  0.02546  1.0000
  C   C198      1.0  0.05762  0.13184  0.46396  1.0000
  C   C199      1.0  0.08216  0.03650  0.45244  1.0000
  C   C200      1.0  0.01964  0.47470  0.34869  1.0000
  C   C201      1.0  0.04962  0.16964  0.46056  1.0000
  H   H242      1.0  0.08998  0.11367  0.37643  1.0000
  H   H243      1.0  0.06363  0.43662  0.33971  1.0000
  C   C202      1.0  0.01121  0.40175  0.15361  1.0000
  C   C203      1.0  0.07246  0.45031  0.08795  1.0000
  C   C204      1.0  0.07574  0.47529  0.04435  1.0000
  H   H244      1.0  0.07416  0.06994  0.44127  1.0000
  H   H245      1.0  0.00154  0.19667  0.36662  1.0000
  C   C205      1.0  0.00196  0.27014  0.41396  1.0000
  H   H246      1.0  0.16434  0.47073  0.02462  1.0000
  H   H247      1.0  0.99456  0.17226  0.39932  1.0000
  C   C206      1.0  0.00290  0.27386  0.47608  1.0000
  H   H248      1.0  0.99167  0.12434  0.45120  1.0000
  C   C207      1.0  0.17257  0.03410  0.42678  1.0000
  H   H249      1.0  0.17812  0.03022  0.44562  1.0000
  H   H250      1.0  0.04471  0.48320  0.31447  1.0000
  C   C208      1.0  0.98836  0.41761  0.08941  1.0000
  C   C209      1.0  0.18250  0.06701  0.42958  1.0000
  C   C210      1.0  0.99402  0.45393  0.30574  1.0000
  C   C211      1.0  0.99208  0.29354  0.46149  1.0000
  H   H251      1.0  0.00742  0.17014  0.46580  1.0000
  H   H252      1.0  0.00635  0.27128  0.40307  1.0000
  H   H253      1.0  0.17585  0.07522  0.46424  1.0000
  C   C212      1.0  0.02324  0.20225  0.45826  1.0000
  C   C213      1.0  0.00358  0.16918  0.39179  1.0000
  H   H254      1.0  0.18255  0.39466  0.99652  1.0000
  C   C214      1.0  0.07153  0.06360  0.46898  1.0000
  C   C215      1.0  0.08987  0.04503  0.47295  1.0000
  C   C216      1.0  0.16912  0.06699  0.45195  1.0000
  C   C217      1.0  0.00272  0.19057  0.37667  1.0000
  C   C218      1.0  0.01302  0.19864  0.46929  1.0000
  H   H255      1.0  0.99103  0.42804  0.29390  1.0000
  H   H256      1.0  0.10153  0.99425  0.45800  1.0000
  C   C219      1.0  0.98827  0.41019  0.15021  1.0000
  C   C220      1.0  0.18142  0.03253  0.43487  1.0000
  H   H257      1.0  0.09770  0.03691  0.46999  1.0000
  H   H258      1.0  0.01822  0.40173  0.15953  1.0000
  C   C221      1.0  0.03989  0.47878  0.15097  1.0000
  H   H259      1.0  0.09047  0.46051  0.10289  1.0000
  C   C222      1.0  0.03091  0.21065  0.45856  1.0000
  H   H260      1.0  0.02021  0.17830  0.45590  1.0000
  H   H261      1.0  0.08679  0.29761  0.46286  1.0000
  H   H262      1.0  0.00347  0.29958  0.44167  1.0000
  C   C223      1.0  0.11806  0.98582  0.40744  1.0000
  C   C224      1.0  0.15393  0.47363  0.02895  1.0000
  C   C225      1.0  0.05166  0.46092  0.13995  1.0000
  H   H263      1.0  0.99783  0.45641  0.35314  1.0000
  H   H264      1.0  0.05983  0.48282  0.12915  1.0000
  H   H265      1.0  0.17552  0.00534  0.37811  1.0000
  H   H266      1.0  0.13358  0.99186  0.44227  1.0000
  H   H267      1.0  0.06164  0.46894  0.06210  1.0000
  H   H268      1.0  0.03270  0.47322  0.15834  1.0000
  H   H269      1.0  0.03635  0.31279  0.44697  1.0000
  C   C226      1.0  0.00288  0.34959  0.45769  1.0000
  H   H270      1.0  0.06191  0.23387  0.47583  1.0000
  H   H271      1.0  0.02520  0.19880  0.44918  1.0000
  C   C227      1.0  0.98842  0.42230  0.26073  1.0000
  H   H272      1.0  0.06324  0.05846  0.44841  1.0000
  N   N18       1.0  0.00483  0.18997  0.46857  1.0000
  C   C228      1.0  0.98897  0.45263  0.35539  1.0000
  C   C229      1.0  0.99688  0.36981  0.44164  1.0000
  C   C230      1.0  0.18050  0.00167  0.40903  1.0000
  C   C231      1.0  0.99176  0.40382  0.13931  1.0000
  C   C232      1.0  0.00329  0.29247  0.45117  1.0000
  H   H273      1.0  0.06474  0.07034  0.46307  1.0000
  H   H274      1.0  0.03564  0.48355  0.14202  1.0000
  H   H275      1.0  0.99599  0.36386  0.43511  1.0000
  C   C233      1.0  0.99046  0.10927  0.42215  1.0000
  H   H276      1.0  0.00386  0.11131  0.45836  1.0000
  H   H277      1.0  0.18614  0.47420  0.00559  1.0000
  H   H278      1.0  0.00964  0.47881  0.18055  1.0000
  H   H279      1.0  0.06580  0.46859  0.18635  1.0000
  C   C234      1.0  0.99718  0.39705  0.36035  1.0000
  C   C235      1.0  0.06171  0.18959  0.47710  1.0000
  H   H280      1.0  0.98973  0.42986  0.16104  1.0000
  H   H281      1.0  0.09230  0.28491  0.47645  1.0000
  H   H282      1.0  0.05512  0.19908  0.47325  1.0000
  C   C236      1.0  0.98987  0.17504  0.37579  1.0000
  C   C237      1.0  0.06255  0.47781  0.13894  1.0000
  H   H283      1.0  0.99099  0.19074  0.45701  1.0000
  H   H284      1.0  0.98868  0.18051  0.48014  1.0000
  C   C238      1.0  0.09825  0.09853  0.48047  1.0000
  H   H285      1.0  0.06462  0.15664  0.47988  1.0000
  H   H286      1.0  0.07390  0.31022  0.48088  1.0000
  C   C239      1.0  0.10271  0.98381  0.45827  1.0000
  C   C240      1.0  0.01883  0.21227  0.48091  1.0000
  C   C241      1.0  0.12695  0.03164  0.48123  1.0000
  C   C242      1.0  0.99473  0.18695  0.48103  1.0000
  C   C243      1.0  0.01663  0.21912  0.52371  1.0000
  C   C244      1.0  0.07403  0.45958  0.64609  1.0000
  H   H287      1.0  0.05826  0.28117  0.49524  1.0000
  H   H288      1.0  0.05219  0.40829  0.53921  1.0000
  H   H289      1.0  0.03333  0.42248  0.51647  1.0000
  Fe  Fe33      1.0  0.06978  0.42709  0.82124  1.0000
  S   S66       1.0  0.04886  0.43855  0.82592  1.0000
  S   S67       1.0  0.08562  0.43164  0.82844  1.0000
  Fe  Fe34      1.0  0.06442  0.41686  0.79964  1.0000
  S   S68       1.0  0.04322  0.42756  0.80255  1.0000
  S   S69       1.0  0.07408  0.40646  0.78255  1.0000
  Fe  Fe35      1.0  0.05035  0.44455  0.80379  1.0000
  S   S70       1.0  0.04188  0.46530  0.79357  1.0000
  Fe  Fe36      1.0  0.04296  0.42072  0.82440  1.0000
  S   S71       1.0  0.02424  0.41498  0.83804  1.0000
  S   S72       1.0  0.07170  0.43465  0.79908  1.0000
  S   S73       1.0  0.06392  0.40836  0.82157  1.0000
  S   S74       1.0  0.13294  0.43493  0.90526  1.0000
  Fe  Fe37      1.0  0.11412  0.41736  0.89168  1.0000
  S   S75       1.0  0.10416  0.42765  0.90869  1.0000
  S   S76       1.0  0.10270  0.40724  0.88415  1.0000
  Fe  Fe38      1.0  0.11515  0.44338  0.89624  1.0000
  H   H290      1.0  0.01290  0.44559  0.85402  1.0000
  Fe  Fe39      1.0  0.12278  0.41821  0.91636  1.0000
  S   S77       1.0  0.12440  0.40837  0.93766  1.0000
  S   S78       1.0  0.12391  0.43384  0.87873  1.0000
  S   S79       1.0  0.13181  0.40622  0.90056  1.0000
  C   C245      1.0  0.04176  0.41374  0.51566  1.0000
  H   H291      1.0  0.09011  0.45321  0.80420  1.0000
  S   S80       1.0  0.12254  0.05988  0.53960  1.0000
  Fe  Fe40      1.0  0.05426  0.10668  0.53323  1.0000
  S   S81       1.0  0.06809  0.12062  0.52433  1.0000
  S   S82       1.0  0.06175  0.08455  0.53995  1.0000
  Fe  Fe41      1.0  0.05755  0.12703  0.50754  1.0000
  H   H292      1.0  0.06855  0.16451  0.49045  1.0000
  Fe  Fe42      1.0  0.05138  0.13541  0.53379  1.0000
  S   S83       1.0  0.05189  0.15084  0.54407  1.0000
  S   S84       1.0  0.04478  0.11223  0.51567  1.0000
  S   S85       1.0  0.03819  0.12092  0.54424  1.0000
  C   C246      1.0  0.09543  0.46021  0.86526  1.0000
  H   H293      1.0  0.02220  0.30212  0.53459  1.0000
  H   H294      1.0  0.04177  0.16762  0.48793  1.0000
  C   C247      1.0  0.01237  0.40724  0.68757  1.0000
  Fe  Fe43      1.0  0.03529  0.24055  0.51984  1.0000
  S   S86       1.0  0.05321  0.22944  0.52822  1.0000
  Fe  Fe44      1.0  0.05104  0.24974  0.49226  1.0000
  S   S87       1.0  0.07034  0.23950  0.49787  1.0000
  C   C248      1.0  0.99729  0.45426  0.57488  1.0000
  Fe  Fe45      1.0  0.06055  0.22239  0.50892  1.0000
  S   S88       1.0  0.07025  0.20192  0.50482  1.0000
  Fe  Fe46      1.0  0.06128  0.24758  0.51640  1.0000
  S   S89       1.0  0.07305  0.25910  0.52134  1.0000
  S   S90       1.0  0.04195  0.23216  0.50154  1.0000
  S   S91       1.0  0.04265  0.25916  0.50979  1.0000
  Fe  Fe47      1.0  0.04690  0.32806  0.53460  1.0000
  S   S92       1.0  0.03719  0.33693  0.51730  1.0000
  S   S93       1.0  0.04208  0.30860  0.54698  1.0000
  Fe  Fe48      1.0  0.05964  0.35168  0.52924  1.0000
  S   S94       1.0  0.05138  0.36216  0.51099  1.0000
  S   S95       1.0  0.07246  0.36144  0.53533  1.0000
  Fe  Fe49      1.0  0.03285  0.35608  0.52383  1.0000
  S   S96       1.0  0.01290  0.36973  0.52583  1.0000
  Fe  Fe50      1.0  0.05665  0.34198  0.50615  1.0000
  H   H295      1.0  0.07746  0.10200  0.50080  1.0000
  S   S97       1.0  0.04064  0.34678  0.54233  1.0000
  S   S98       1.0  0.06682  0.33192  0.52322  1.0000
  Fe  Fe51      1.0  0.03629  0.42193  0.61019  1.0000
  S   S99       1.0  0.05082  0.40254  0.61330  1.0000
  S   S100      1.0  0.01516  0.42597  0.62114  1.0000
  Fe  Fe52      1.0  0.05485  0.43480  0.58623  1.0000
  S   S101      1.0  0.07102  0.41619  0.58662  1.0000
  S   S102      1.0  0.05376  0.45571  0.57395  1.0000
  Fe  Fe53      1.0  0.05470  0.40514  0.59099  1.0000
  S   S103      1.0  0.05018  0.38828  0.58538  1.0000
  Fe  Fe54      1.0  0.06569  0.41498  0.60880  1.0000
  S   S104      1.0  0.08036  0.41273  0.62095  1.0000
  S   S105      1.0  0.03921  0.42400  0.58830  1.0000
  S   S106      1.0  0.05060  0.43415  0.60797  1.0000
  Fe  Fe55      1.0  0.05762  0.41218  0.69349  1.0000
  S   S107      1.0  0.05965  0.43241  0.68129  1.0000
  S   S108      1.0  0.05918  0.39604  0.68323  1.0000
  Fe  Fe56      1.0  0.04728  0.42185  0.71947  1.0000
  S   S109      1.0  0.04807  0.44299  0.70918  1.0000
  S   S110      1.0  0.03786  0.41805  0.74144  1.0000
  Fe  Fe57      1.0  0.03990  0.43961  0.69368  1.0000
  S   S111      1.0  0.02374  0.45344  0.68372  1.0000
  Fe  Fe58      1.0  0.06778  0.43390  0.69773  1.0000
  S   S112      1.0  0.08595  0.44233  0.69187  1.0000
  S   S113      1.0  0.03727  0.41921  0.70496  1.0000
  S   S114      1.0  0.06762  0.41282  0.70906  1.0000
  C   C249      1.0  0.99219  0.36297  0.52127  1.0000
  H   H296      1.0  0.98743  0.44144  0.87569  1.0000
  C   C250      1.0  0.99060  0.43316  0.70922  1.0000
  H   H297      1.0  0.09510  0.46623  0.79038  1.0000
  H   H298      1.0  0.01929  0.44854  0.65994  1.0000
  C   C251      1.0  0.03839  0.40949  0.55760  1.0000
  S   S115      1.0  0.15138  0.01901  0.50521  1.0000
  Fe  Fe59      1.0  0.13384  0.04398  0.52800  1.0000
  N   N19       1.0  0.99233  0.45600  0.85773  1.0000
  C   C252      1.0  0.04470  0.17720  0.48616  1.0000
  H   H299      1.0  0.03662  0.18545  0.48289  1.0000
  H   H300      1.0  0.01382  0.39992  0.54361  1.0000
  H   H301      1.0  0.10098  0.12395  0.51201  1.0000
  H   H302      1.0  0.02896  0.45742  0.56945  1.0000
  H   H303      1.0  0.98930  0.38468  0.67012  1.0000
  C   C253      1.0  0.00046  0.37393  0.56345  1.0000
  H   H304      1.0  0.02528  0.38877  0.52708  1.0000
  H   H305      1.0  0.05906  0.43517  0.76958  1.0000
  C   C254      1.0  0.00980  0.44750  0.69371  1.0000
  C   C255      1.0  0.99969  0.44689  0.68820  1.0000
  C   C256      1.0  0.00443  0.11963  0.48447  1.0000
  H   H306      1.0  0.11947  0.10953  0.52222  1.0000
  C   C257      1.0  0.00028  0.43443  0.71480  1.0000
  C   C258      1.0  0.00970  0.44175  0.70715  1.0000
  H   H307      1.0  0.99963  0.45142  0.67784  1.0000
  C   C259      1.0  0.02055  0.45437  0.56793  1.0000
  H   H308      1.0  0.00084  0.42934  0.72495  1.0000
  H   H309      1.0  0.01728  0.44246  0.71156  1.0000
  C   C260      1.0  0.08597  0.45334  0.70123  1.0000
  C   C261      1.0  0.07412  0.46074  0.70737  1.0000
  C   C262      1.0  0.07428  0.47049  0.71362  1.0000
  H   H310      1.0  0.98820  0.27751  0.50097  1.0000
  C   C263      1.0  0.09818  0.46477  0.70858  1.0000
  C   C264      1.0  0.09801  0.45530  0.70192  1.0000
  H   H311      1.0  0.06479  0.45919  0.70716  1.0000
  C   C265      1.0  0.99003  0.43970  0.69600  1.0000
  H   H312      1.0  0.01262  0.38945  0.63722  1.0000
  H   H313      1.0  0.10721  0.44954  0.69724  1.0000
  C   C266      1.0  0.06093  0.46450  0.58066  1.0000
  H   H314      1.0  0.98758  0.19617  0.48332  1.0000
  H   H315      1.0  0.01609  0.41038  0.76231  1.0000
  C   C267      1.0  0.09726  0.48149  0.67025  1.0000
  C   C268      1.0  0.07594  0.46458  0.59379  1.0000
  C   C269      1.0  0.07026  0.45762  0.58840  1.0000
  C   C270      1.0  0.15667  0.47965  0.88562  1.0000
  H   H316      1.0  0.06644  0.48212  0.79213  1.0000
  H   H317      1.0  0.08328  0.45915  0.59961  1.0000
  H   H318      1.0  0.07333  0.44690  0.59003  1.0000
  C   C271      1.0  0.07484  0.40754  0.63825  1.0000
  C   C272      1.0  0.06604  0.39902  0.64349  1.0000
  C   C273      1.0  0.06153  0.39523  0.65736  1.0000
  C   C274      1.0  0.06558  0.40018  0.66598  1.0000
  C   C275      1.0  0.07446  0.40862  0.66074  1.0000
  C   C276      1.0  0.07918  0.41218  0.64690  1.0000
  H   H319      1.0  0.06292  0.39516  0.63686  1.0000
  H   H320      1.0  0.05485  0.38851  0.66141  1.0000
  H   H321      1.0  0.07795  0.41212  0.66738  1.0000
  H   H322      1.0  0.08616  0.41860  0.64288  1.0000
  C   C277      1.0  0.99777  0.40507  0.60089  1.0000
  H   H323      1.0  0.03596  0.28595  0.48233  1.0000
  C   C278      1.0  0.99539  0.42294  0.61175  1.0000
  C   C279      1.0  0.00804  0.41753  0.61421  1.0000
  C   C280      1.0  0.01558  0.40598  0.60992  1.0000
  C   C281      1.0  0.01042  0.39971  0.60335  1.0000
  H   H324      1.0  0.00649  0.40077  0.80030  1.0000
  N   N20       1.0  0.01199  0.30528  0.51884  1.0000
  H   H325      1.0  0.02544  0.40182  0.61159  1.0000
  H   H326      1.0  0.01633  0.39076  0.60008  1.0000
  H   H327      1.0  0.16148  0.99018  0.51944  1.0000
  C   C282      1.0  0.00697  0.40925  0.76096  1.0000
  H   H328      1.0  0.07981  0.44953  0.64596  1.0000
  H   H329      1.0  0.15495  0.42439  0.92232  1.0000
  H   H330      1.0  0.03359  0.28941  0.50440  1.0000
  C   C283      1.0  0.06600  0.36954  0.54883  1.0000
  C   C284      1.0  0.05346  0.36884  0.55691  1.0000
  C   C285      1.0  0.04880  0.37473  0.56799  1.0000
  C   C286      1.0  0.05644  0.38174  0.57090  1.0000
  C   C287      1.0  0.06879  0.38290  0.56255  1.0000
  C   C288      1.0  0.07361  0.37669  0.55161  1.0000
  H   H331      1.0  0.04738  0.36361  0.55480  1.0000
  H   H332      1.0  0.03918  0.37392  0.57436  1.0000
  H   H333      1.0  0.07476  0.38825  0.56474  1.0000
  H   H334      1.0  0.08331  0.37735  0.54536  1.0000
  S   S116      1.0  0.99255  0.20023  0.51686  1.0000
  H   H335      1.0  0.02427  0.46302  0.84023  1.0000
  C   C289      1.0  0.06377  0.27303  0.52790  1.0000
  C   C290      1.0  0.05216  0.27239  0.53777  1.0000
  C   C291      1.0  0.04559  0.28330  0.54370  1.0000
  C   C292      1.0  0.05023  0.29510  0.53929  1.0000
  C   C293      1.0  0.06149  0.29591  0.52899  1.0000
  C   C294      1.0  0.06845  0.28478  0.52361  1.0000
  H   H336      1.0  0.04859  0.26327  0.54125  1.0000
  H   H337      1.0  0.03693  0.28257  0.55172  1.0000
  H   H338      1.0  0.06517  0.30493  0.52555  1.0000
  H   H339      1.0  0.07758  0.28520  0.51620  1.0000
  H   H340      1.0  0.01939  0.45921  0.55755  1.0000
  H   H341      1.0  0.08937  0.29195  0.53562  1.0000
  C   C295      1.0  0.00738  0.35486  0.49787  1.0000
  H   H342      1.0  0.07828  0.46603  0.62464  1.0000
  H   H343      1.0  0.11189  0.46075  0.83083  1.0000
  H   H344      1.0  0.01638  0.17886  0.52522  1.0000
  C   C296      1.0  0.05715  0.16500  0.53327  1.0000
  C   C297      1.0  0.06509  0.16435  0.52057  1.0000
  C   C298      1.0  0.06933  0.17568  0.51214  1.0000
  C   C299      1.0  0.06510  0.18789  0.51604  1.0000
  C   C300      1.0  0.05699  0.18861  0.52867  1.0000
  C   C301      1.0  0.05330  0.17709  0.53739  1.0000
  H   H345      1.0  0.06831  0.15499  0.51744  1.0000
  H   H346      1.0  0.07604  0.17501  0.50261  1.0000
  H   H347      1.0  0.05385  0.19795  0.53182  1.0000
  S   S117      1.0  0.18196  0.01582  0.51503  1.0000
  C   C302      1.0  0.02808  0.39809  0.52058  1.0000
  C   C303      1.0  0.99619  0.46901  0.85396  1.0000
  H   H348      1.0  0.98799  0.24227  0.52888  1.0000
  C   C304      1.0  0.11203  0.47324  0.89952  1.0000
  H   H349      1.0  0.02278  0.36195  0.50095  1.0000
  C   C305      1.0  0.10591  0.06729  0.53853  1.0000
  C   C306      1.0  0.09998  0.07976  0.54171  1.0000
  C   C307      1.0  0.08658  0.08549  0.54154  1.0000
  C   C308      1.0  0.07890  0.07850  0.53874  1.0000
  C   C309      1.0  0.08482  0.06606  0.53556  1.0000
  C   C310      1.0  0.09830  0.06061  0.53522  1.0000
  H   H350      1.0  0.10574  0.08498  0.54438  1.0000
  H   H351      1.0  0.08208  0.09505  0.54411  1.0000
  H   H352      1.0  0.07889  0.06054  0.53357  1.0000
  H   H353      1.0  0.10259  0.05093  0.53313  1.0000
  C   C311      1.0  0.06378  0.44371  0.76745  1.0000
  H   H354      1.0  0.99827  0.32444  0.51636  1.0000
  C   C312      1.0  0.02805  0.46885  0.75540  1.0000
  H   H355      1.0  0.03178  0.39619  0.51031  1.0000
  H   H356      1.0  0.05792  0.44990  0.77477  1.0000
  C   C313      1.0  0.04637  0.46585  0.62020  1.0000
  C   C314      1.0  0.00298  0.33760  0.55318  1.0000
  C   C315      1.0  0.99076  0.45100  0.87237  1.0000
  C   C316      1.0  0.15919  0.39799  0.97156  1.0000
  C   C317      1.0  0.00402  0.30875  0.49791  1.0000
  C   C318      1.0  0.12351  0.41893  0.94798  1.0000
  C   C319      1.0  0.12666  0.41345  0.96055  1.0000
  C   C320      1.0  0.12696  0.42173  0.96852  1.0000
  C   C321      1.0  0.12411  0.43553  0.96393  1.0000
  C   C322      1.0  0.12066  0.44101  0.95151  1.0000
  C   C323      1.0  0.12035  0.43274  0.94356  1.0000
  H   H357      1.0  0.12896  0.40276  0.96407  1.0000
  H   H358      1.0  0.99910  0.30082  0.53823  1.0000
  H   H359      1.0  0.11820  0.45168  0.94801  1.0000
  H   H360      1.0  0.11772  0.43703  0.93399  1.0000
  H   H361      1.0  0.04912  0.46179  0.68294  1.0000
  C   C324      1.0  0.13070  0.38487  0.86606  1.0000
  H   H362      1.0  0.06340  0.47523  0.82311  1.0000
  H   H363      1.0  0.10211  0.00331  0.57028  1.0000
  C   C325      1.0  0.09004  0.42466  0.84406  1.0000
  C   C326      1.0  0.08563  0.41362  0.85285  1.0000
  C   C327      1.0  0.08966  0.40829  0.86507  1.0000
  C   C328      1.0  0.09794  0.41408  0.86867  1.0000
  C   C329      1.0  0.10234  0.42511  0.85986  1.0000
  C   C330      1.0  0.09847  0.43030  0.84760  1.0000
  H   H364      1.0  0.07920  0.40913  0.85019  1.0000
  H   H365      1.0  0.08624  0.39973  0.87182  1.0000
  H   H366      1.0  0.10873  0.42962  0.86246  1.0000
  H   H367      1.0  0.10199  0.43877  0.84083  1.0000
  C   C331      1.0  0.06406  0.40826  0.77140  1.0000
  C   C332      1.0  0.05029  0.41140  0.77545  1.0000
  C   C333      1.0  0.04240  0.41431  0.76617  1.0000
  C   C334      1.0  0.04819  0.41388  0.75279  1.0000
  C   C335      1.0  0.06195  0.41027  0.74878  1.0000
  C   C336      1.0  0.06987  0.40738  0.75811  1.0000
  H   H368      1.0  0.04570  0.41149  0.78575  1.0000
  H   H369      1.0  0.03181  0.41709  0.76936  1.0000
  H   H370      1.0  0.06651  0.40977  0.73850  1.0000
  H   H371      1.0  0.08052  0.40480  0.75494  1.0000
  C   C337      1.0  0.03494  0.47318  0.80685  1.0000
  C   C338      1.0  0.02860  0.46612  0.81888  1.0000
  C   C339      1.0  0.07497  0.31918  0.58200  1.0000
  H   H372      1.0  0.18533  0.98453  0.50914  1.0000
  H   H373      1.0  0.05453  0.32873  0.56976  1.0000
  H   H374      1.0  0.99885  0.38357  0.56630  1.0000
  H   H375      1.0  0.02550  0.45733  0.81905  1.0000
  H   H376      1.0  0.01604  0.40716  0.74075  1.0000
  S   S118      1.0  0.01398  0.24276  0.53011  1.0000
  H   H377      1.0  0.99684  0.41534  0.64620  1.0000
  H   H378      1.0  0.02322  0.18789  0.55160  1.0000
  C   C340      1.0  0.99998  0.43831  0.81380  1.0000
  C   C341      1.0  0.01062  0.43308  0.82012  1.0000
  C   C342      1.0  0.01054  0.42180  0.83052  1.0000
  H   H379      1.0  0.14354  0.46250  0.95450  1.0000
  C   C343      1.0  0.07636  0.47053  0.87996  1.0000
  H   H380      1.0  0.00037  0.44678  0.80547  1.0000
  H   H381      1.0  0.01884  0.43789  0.81698  1.0000
  C   C344      1.0  0.15300  0.48354  0.96873  1.0000
  H   H382      1.0  0.00374  0.28806  0.52886  1.0000
  N   N21       1.0  0.00819  0.45804  0.57779  1.0000
  C   C345      1.0  0.15091  0.44988  0.92385  1.0000
  H   H383      1.0  0.99932  0.18170  0.48973  1.0000
  H   H384      1.0  0.09922  0.45645  0.85592  1.0000
  H   H385      1.0  0.08151  0.47785  0.88077  1.0000
  H   H386      1.0  0.01337  0.35160  0.48892  1.0000
  C   C346      1.0  0.99144  0.10282  0.49444  1.0000
  H   H387      1.0  0.99587  0.40414  0.73649  1.0000
  S   S119      1.0  0.03394  0.48253  0.84584  1.0000
  C   C347      1.0  0.08630  0.47254  0.71421  1.0000
  H   H388      1.0  0.99055  0.43237  0.78034  1.0000
  H   H389      1.0  0.08109  0.34281  0.57171  1.0000
  C   C348      1.0  0.07005  0.06575  0.48168  1.0000
  H   H390      1.0  0.01867  0.20086  0.51804  1.0000
  H   H391      1.0  0.03424  0.47909  0.66994  1.0000
  C   C349      1.0  0.07841  0.05759  0.48999  1.0000
  C   C350      1.0  0.17251  0.41702  0.88931  1.0000
  C   C351      1.0  0.07409  0.44515  0.87452  1.0000
  C   C352      1.0  0.01016  0.45090  0.59138  1.0000
  C   C353      1.0  0.00194  0.34971  0.55633  1.0000
  C   C354      1.0  0.16704  0.38654  0.88469  1.0000
  Fe  Fe60      1.0  0.16046  0.02627  0.51747  1.0000
  H   H392      1.0  0.15501  0.39333  0.95508  1.0000
  N   N22       1.0  0.07547  0.32659  0.56794  1.0000
  C   C355      1.0  0.02779  0.46938  0.83088  1.0000
  C   C356      1.0  0.16420  0.98573  0.52929  1.0000
  H   H393      1.0  0.03677  0.47713  0.60417  1.0000
  H   H394      1.0  0.06451  0.46907  0.75930  1.0000
  C   C357      1.0  0.03375  0.40383  0.53890  1.0000
  H   H395      1.0  0.00525  0.27728  0.49928  1.0000
  N   N23       1.0  0.03820  0.40157  0.52514  1.0000
  C   C358      1.0  0.10479  0.11382  0.51068  1.0000
  H   H396      1.0  0.07932  0.29616  0.49319  1.0000
  H   H397      1.0  0.99248  0.32449  0.55059  1.0000
  C   C359      1.0  0.06013  0.47640  0.65873  1.0000
  C   C360      1.0  0.02102  0.40258  0.54702  1.0000
  H   H398      1.0  0.15401  0.45955  0.92055  1.0000
  C   C361      1.0  0.01267  0.19137  0.55248  1.0000
  H   H399      1.0  0.15486  0.42629  0.95562  1.0000
  C   C362      1.0  0.02132  0.17283  0.53350  1.0000
  H   H400      1.0  0.09571  0.47074  0.64383  1.0000
  H   H401      1.0  0.06159  0.18961  0.48753  1.0000
  C   C363      1.0  0.98706  0.45183  0.75793  1.0000
  C   C364      1.0  0.98774  0.43688  0.57276  1.0000
  C   C365      1.0  0.98800  0.13012  0.51911  1.0000
  C   C366      1.0  0.07215  0.47846  0.59173  1.0000
  C   C367      1.0  0.99311  0.48341  0.72948  1.0000
  H   H402      1.0  0.07315  0.45871  0.82363  1.0000
  H   H403      1.0  0.00739  0.15412  0.54194  1.0000
  C   C368      1.0  0.04151  0.13703  0.48367  1.0000
  H   H404      1.0  0.07809  0.46179  0.88830  1.0000
  H   H405      1.0  0.99482  0.31499  0.50191  1.0000
  H   H406      1.0  0.14792  0.44843  0.91530  1.0000
  H   H407      1.0  0.09807  0.07285  0.48776  1.0000
  H   H408      1.0  0.09096  0.11550  0.49924  1.0000
  H   H409      1.0  0.02876  0.17800  0.53379  1.0000
  H   H410      1.0  0.01419  0.47491  0.57963  1.0000
  S   S120      1.0  0.14449  0.02315  0.53596  1.0000
  H   H411      1.0  0.12554  0.46803  0.92615  1.0000
  C   C369      1.0  0.99781  0.44070  0.57563  1.0000
  C   C370      1.0  0.06737  0.43622  0.87350  1.0000
  C   C371      1.0  0.99170  0.33386  0.55299  1.0000
  C   C372      1.0  0.17323  0.43786  0.91719  1.0000
  C   C373      1.0  0.17334  0.45422  0.94957  1.0000
  H   H412      1.0  0.11832  0.07724  0.50728  1.0000
  H   H413      1.0  0.05382  0.38856  0.51411  1.0000
  H   H414      1.0  0.01710  0.21618  0.48972  1.0000
  S   S121      1.0  0.10551  0.46496  0.89185  1.0000
  H   H415      1.0  0.04764  0.38109  0.53116  1.0000
  H   H416      1.0  0.12835  0.98827  0.49053  1.0000
  C   C374      1.0  0.00640  0.40039  0.79002  1.0000
  C   C375      1.0  0.00692  0.20378  0.55568  1.0000
  H   H417      1.0  0.01263  0.33112  0.55080  1.0000
  H   H418      1.0  0.11653  0.01682  0.48225  1.0000
  H   H419      1.0  0.16791  0.37423  0.90423  1.0000
  H   H420      1.0  0.04455  0.41260  0.50513  1.0000
  C   C376      1.0  0.07155  0.30066  0.48728  1.0000
  S   S122      1.0  0.12303  0.03760  0.51673  1.0000
  H   H421      1.0  0.11626  0.02411  0.56648  1.0000
  H   H422      1.0  0.05291  0.45502  0.84798  1.0000
  C   C377      1.0  0.16886  0.39980  0.97683  1.0000
  H   H423      1.0  0.11452  0.45690  0.91635  1.0000
  C   C378      1.0  0.09907  0.10885  0.50343  1.0000
  N   N24       1.0  0.00378  0.39516  0.65617  1.0000
  C   C379      1.0  0.99570  0.40573  0.74611  1.0000
  C   C380      1.0  0.01541  0.39209  0.64526  1.0000
  H   H424      1.0  0.04293  0.35802  0.48482  1.0000
  C   C381      1.0  0.00693  0.39950  0.66669  1.0000
  C   C382      1.0  0.02011  0.39875  0.66735  1.0000
  C   C383      1.0  0.99667  0.40406  0.67710  1.0000
  C   C384      1.0  0.02271  0.40258  0.67767  1.0000
  H   H425      1.0  0.12775  0.46991  0.95037  1.0000
  H   H426      1.0  0.00501  0.36610  0.57118  1.0000
  H   H427      1.0  0.00596  0.43289  0.57854  1.0000
  H   H428      1.0  0.14722  0.48070  0.97868  1.0000
  C   C385      1.0  0.02434  0.46295  0.74740  1.0000
  H   H429      1.0  0.02006  0.40078  0.64043  1.0000
  S   S123      1.0  0.99149  0.39713  0.59259  1.0000
  H   H430      1.0  0.03247  0.30400  0.51818  1.0000
  S   S124      1.0  0.06734  0.12889  0.48592  1.0000
  C   C386      1.0  0.05370  0.46969  0.68336  1.0000
  H   H431      1.0  0.04526  0.41173  0.56192  1.0000
  H   H432      1.0  0.02862  0.39501  0.66017  1.0000
  H   H433      1.0  0.12435  0.03087  0.49188  1.0000
  Fe  Fe61      1.0  0.14072  0.04022  0.50017  1.0000
  C   C387      1.0  0.99939  0.40791  0.68731  1.0000
  H   H434      1.0  0.99742  0.47318  0.84304  1.0000
  H   H435      1.0  0.07134  0.03264  0.56426  1.0000
  Fe  Fe62      1.0  0.13489  0.01709  0.52320  1.0000
  H   H436      1.0  0.05840  0.39230  0.52714  1.0000
  H   H437      1.0  0.05296  0.44157  0.73836  1.0000
  H   H438      1.0  0.09469  0.33030  0.56573  1.0000
  C   C388      1.0  0.99874  0.11400  0.53582  1.0000
  H   H439      1.0  0.05500  0.43263  0.86285  1.0000
  S   S125      1.0  0.12692  0.99859  0.53298  1.0000
  C   C389      1.0  0.11625  0.46670  0.91137  1.0000
  H   H440      1.0  0.04530  0.17793  0.49616  1.0000
  C   C390      1.0  0.05992  0.43971  0.86383  1.0000
  C   C391      1.0  0.17627  0.45651  0.88403  1.0000
  C   C392      1.0  0.07956  0.31715  0.55900  1.0000
  C   C393      1.0  0.03348  0.45314  0.74142  1.0000
  H   H441      1.0  0.01901  0.40618  0.52041  1.0000
  C   C394      1.0  0.05000  0.39047  0.52435  1.0000
  C   C395      1.0  0.10565  0.46884  0.82522  1.0000
  C   C396      1.0  0.14905  0.38615  0.87505  1.0000
  H   H442      1.0  0.02367  0.44346  0.56862  1.0000
  H   H443      1.0  0.15600  0.37807  0.85219  1.0000
  H   H444      1.0  0.09113  0.06562  0.57164  1.0000
  H   H445      1.0  0.98753  0.13925  0.51153  1.0000
  C   C397      1.0  0.98832  0.44501  0.74820  1.0000
  C   C398      1.0  0.01502  0.25457  0.49037  1.0000
  H   H446      1.0  0.01437  0.46596  0.74580  1.0000
  H   H447      1.0  0.01855  0.45328  0.59370  1.0000
  H   H448      1.0  0.14842  0.36546  0.90618  1.0000
  H   H449      1.0  0.99723  0.16979  0.53631  1.0000
  H   H450      1.0  0.00695  0.47988  0.71121  1.0000
  H   H451      1.0  0.00166  0.43624  0.85416  1.0000
  H   H452      1.0  0.12791  0.08627  0.51962  1.0000
  H   H453      1.0  0.06183  0.46524  0.81287  1.0000
  C   C399      1.0  0.98901  0.10658  0.53867  1.0000
  C   C400      1.0  0.10297  0.07632  0.49358  1.0000
  H   H454      1.0  0.10197  0.06963  0.50371  1.0000
  H   H455      1.0  0.16605  0.99393  0.53251  1.0000
  C   C401      1.0  0.98894  0.43261  0.81807  1.0000
  C   C402      1.0  0.16255  0.39473  0.95914  1.0000
  H   H456      1.0  0.02327  0.40894  0.57565  1.0000
  C   C403      1.0  0.05717  0.47842  0.57849  1.0000
  H   H457      1.0  0.99802  0.26386  0.51013  1.0000
  C   C404      1.0  0.00120  0.29902  0.52800  1.0000
  H   H458      1.0  0.99138  0.41116  0.69525  1.0000
  C   C405      1.0  0.00829  0.31980  0.51831  1.0000
  H   H459      1.0  0.09625  0.45585  0.82125  1.0000
  H   H460      1.0  0.99924  0.40743  0.84309  1.0000
  H   H461      1.0  0.02299  0.38340  0.64889  1.0000
  H   H462      1.0  0.01425  0.24765  0.50037  1.0000
  H   H463      1.0  0.09638  0.32495  0.54515  1.0000
  H   H464      1.0  0.10162  0.46701  0.86512  1.0000
  S   S126      1.0  0.98844  0.34457  0.49487  1.0000
  H   H465      1.0  0.02290  0.15176  0.55468  1.0000
  N   N25       1.0  0.98788  0.37143  0.56265  1.0000
  H   H466      1.0  0.18638  0.04097  0.49548  1.0000
  S   S127      1.0  0.00913  0.13630  0.52322  1.0000
  H   H467      1.0  0.14730  0.42640  0.93871  1.0000
  C   C406      1.0  0.06552  0.46132  0.85633  1.0000
  H   H468      1.0  0.14197  0.45078  0.93207  1.0000
  C   C407      1.0  0.08447  0.33580  0.56485  1.0000
  S   S128      1.0  0.16191  0.42267  0.87810  1.0000
  H   H469      1.0  0.00768  0.40336  0.56622  1.0000
  H   H470      1.0  0.17544  0.39055  0.88398  1.0000
  C   C408      1.0  0.09676  0.46612  0.81957  1.0000
  C   C409      1.0  0.04228  0.40740  0.54461  1.0000
  H   H471      1.0  0.02677  0.28872  0.52638  1.0000
  H   H472      1.0  0.15910  0.40659  0.90491  1.0000
  H   H473      1.0  0.18387  0.44750  0.88341  1.0000
  H   H474      1.0  0.05461  0.47076  0.61639  1.0000
  H   H475      1.0  0.02679  0.16550  0.55757  1.0000
  H   H476      1.0  0.17827  0.39079  0.94226  1.0000
  H   H477      1.0  0.12973  0.40780  0.87211  1.0000
  C   C410      1.0  0.12812  0.99292  0.50894  1.0000
  N   N26       1.0  0.06422  0.45131  0.75352  1.0000
  C   C411      1.0  0.06959  0.46321  0.75151  1.0000
  C   C412      1.0  0.07366  0.44280  0.74459  1.0000
  C   C413      1.0  0.05065  0.45531  0.75114  1.0000
  C   C414      1.0  0.04093  0.46497  0.75744  1.0000
  C   C415      1.0  0.04647  0.44933  0.74320  1.0000
  C   C416      1.0  0.16248  0.43706  0.96428  1.0000
  H   H478      1.0  0.00816  0.32212  0.52785  1.0000
  C   C417      1.0  0.98980  0.47205  0.81168  1.0000
  H   H479      1.0  0.08025  0.46055  0.75179  1.0000
  H   H480      1.0  0.13407  0.37395  0.86682  1.0000
  H   H481      1.0  0.07109  0.43303  0.74655  1.0000
  H   H482      1.0  0.07398  0.44769  0.73392  1.0000
  C   C418      1.0  0.11520  0.10573  0.51642  1.0000
  H   H483      1.0  0.04319  0.46956  0.76407  1.0000
  H   H484      1.0  0.17401  0.45766  0.92889  1.0000
  N   N27       1.0  0.14193  0.39120  0.86402  1.0000
  H   H485      1.0  0.02473  0.48138  0.63815  1.0000
  H   H486      1.0  0.03283  0.40168  0.67818  1.0000
  C   C419      1.0  0.99813  0.12589  0.52614  1.0000
  H   H487      1.0  0.18143  0.42970  0.92031  1.0000
  H   H488      1.0  0.08537  0.01989  0.55128  1.0000
  S   S129      1.0  0.15104  0.04779  0.51086  1.0000
  C   C420      1.0  0.02707  0.29239  0.48670  1.0000
  H   H489      1.0  0.13646  0.37266  0.88845  1.0000
  H   H490      1.0  0.01824  0.46546  0.61230  1.0000
  C   C421      1.0  0.16862  0.40926  0.90200  1.0000
  C   C422      1.0  0.01729  0.40459  0.56005  1.0000
  C   C423      1.0  0.17978  0.46845  0.88282  1.0000
  H   H491      1.0  0.07257  0.32602  0.58890  1.0000
  C   C424      1.0  0.16027  0.39094  0.87434  1.0000
  H   H492      1.0  0.12541  0.38901  0.85771  1.0000
  H   H493      1.0  0.00797  0.42567  0.77570  1.0000
  H   H494      1.0  0.17843  0.03768  0.52769  1.0000
  H   H495      1.0  0.08465  0.31228  0.58310  1.0000
  H   H496      1.0  0.12969  0.00285  0.50424  1.0000
  C   C425      1.0  0.12798  0.47797  0.97126  1.0000
  C   C426      1.0  0.08675  0.29886  0.54212  1.0000
  H   H497      1.0  0.07384  0.43963  0.76955  1.0000
  H   H498      1.0  0.02291  0.25985  0.48928  1.0000
  N   N28       1.0  0.01152  0.17082  0.54633  1.0000
  H   H499      1.0  0.05751  0.05383  0.56883  1.0000
  C   C427      1.0  0.99452  0.35286  0.50290  1.0000
  C   C428      1.0  0.12254  0.47294  0.91687  1.0000
  H   H500      1.0  0.16041  0.44689  0.88668  1.0000
  C   C429      1.0  0.02557  0.29448  0.49943  1.0000
  C   C430      1.0  0.11428  0.08755  0.50773  1.0000
  H   H501      1.0  0.06796  0.27179  0.48299  1.0000
  H   H502      1.0  0.00651  0.11068  0.54133  1.0000
  H   H503      1.0  0.06822  0.42641  0.88006  1.0000
  H   H504      1.0  0.01107  0.35209  0.55606  1.0000
  C   C431      1.0  0.02589  0.46289  0.61789  1.0000
  N   N29       1.0  0.16144  0.43871  0.92836  1.0000
  C   C432      1.0  0.99649  0.48361  0.67330  1.0000
  C   C433      1.0  0.09048  0.31759  0.54785  1.0000
  C   C434      1.0  0.09397  0.30854  0.53958  1.0000
  H   H505      1.0  0.02130  0.14430  0.48163  1.0000
  H   H506      1.0  0.15889  0.43170  0.97431  1.0000
  C   C435      1.0  0.06808  0.27925  0.48834  1.0000
  C   C436      1.0  0.15182  0.37245  0.89717  1.0000
  C   C437      1.0  0.17007  0.48049  0.88325  1.0000
  C   C438      1.0  0.02566  0.45255  0.62929  1.0000
  H   H507      1.0  0.04422  0.44494  0.65951  1.0000
  H   H508      1.0  0.01777  0.44730  0.63204  1.0000
  C   C439      1.0  0.99855  0.21215  0.52035  1.0000
  H   H509      1.0  0.99590  0.37936  0.65474  1.0000
  H   H510      1.0  0.13355  0.46848  0.97650  1.0000
  H   H511      1.0  0.16428  0.41744  0.93507  1.0000
  C   C440      1.0  0.06774  0.46329  0.65826  1.0000
  C   C441      1.0  0.04623  0.45554  0.63161  1.0000
  H   H512      1.0  0.02093  0.47650  0.76002  1.0000
  H   H513      1.0  0.04739  0.17758  0.54731  1.0000
  C   C442      1.0  0.04563  0.43574  0.65595  1.0000
  C   C443      1.0  0.03581  0.44858  0.63655  1.0000
  H   H514      1.0  0.04496  0.42738  0.66491  1.0000
  H   H515      1.0  0.04847  0.42338  0.63644  1.0000
  H   H516      1.0  0.05463  0.45291  0.63611  1.0000
  H   H517      1.0  0.06360  0.30659  0.56907  1.0000
  H   H518      1.0  0.98912  0.21884  0.55863  1.0000
  C   C444      1.0  0.99924  0.47485  0.79998  1.0000
  H   H519      1.0  0.00573  0.37482  0.66711  1.0000
  N   N30       1.0  0.03570  0.43716  0.64819  1.0000
  H   H520      1.0  0.05593  0.43324  0.65007  1.0000
  Fe  Fe63      1.0  0.14070  0.42370  0.88900  1.0000
  C   C445      1.0  0.99941  0.41611  0.83495  1.0000
  C   C446      1.0  0.02599  0.40791  0.56537  1.0000
  H   H521      1.0  0.99456  0.16185  0.55394  1.0000
  H   H522      1.0  0.07989  0.44188  0.88207  1.0000
  S   S130      1.0  0.06574  0.33623  0.48627  1.0000
  H   H523      1.0  0.99572  0.45381  0.75954  1.0000
  C   C447      1.0  0.03864  0.42474  0.64346  1.0000
  H   H524      1.0  0.03891  0.41586  0.65186  1.0000
  H   H525      1.0  0.03122  0.42468  0.63814  1.0000
  S   S131      1.0  0.04237  0.14321  0.51599  1.0000
  C   C448      1.0  0.06213  0.33478  0.56677  1.0000
  C   C449      1.0  0.16279  0.37737  0.89611  1.0000
  C   C450      1.0  0.03293  0.47997  0.83078  1.0000
  H   H526      1.0  0.17420  0.39836  0.92049  1.0000
  C   C451      1.0  0.02253  0.43854  0.65751  1.0000
  N   N31       1.0  0.99585  0.41104  0.78463  1.0000
  C   C452      1.0  0.01116  0.11474  0.49487  1.0000
  H   H527      1.0  0.02263  0.43111  0.66717  1.0000
  H   H528      1.0  0.01480  0.43700  0.65347  1.0000
  C   C453      1.0  0.99546  0.40952  0.77141  1.0000
  H   H529      1.0  0.06404  0.46520  0.68448  1.0000
  H   H530      1.0  0.10231  0.01306  0.54574  1.0000
  H   H531      1.0  0.00966  0.47229  0.80015  1.0000
  H   H532      1.0  0.07773  0.08751  0.49573  1.0000
  N   N32       1.0  0.08124  0.46693  0.86674  1.0000
  C   C454      1.0  0.08691  0.05821  0.57019  1.0000
  H   H533      1.0  0.08485  0.34221  0.55464  1.0000
  H   H534      1.0  0.09802  0.01432  0.58151  1.0000
  H   H535      1.0  0.99515  0.25072  0.48250  1.0000
  H   H536      1.0  0.08392  0.44048  0.74608  1.0000
  H   H537      1.0  0.10222  0.30915  0.53104  1.0000
  C   C455      1.0  0.12737  0.98464  0.50118  1.0000
  C   C456      1.0  0.02390  0.29977  0.52465  1.0000
  C   C457      1.0  0.08289  0.09153  0.50084  1.0000
  H   H538      1.0  0.98821  0.42643  0.57374  1.0000
  C   C458      1.0  0.03628  0.46947  0.61330  1.0000
  H   H539      1.0  0.06729  0.31317  0.58570  1.0000
  H   H540      1.0  0.06409  0.47092  0.84957  1.0000
  H   H541      1.0  0.14436  0.41140  0.86027  1.0000
  H   H542      1.0  0.06926  0.45579  0.66714  1.0000
  C   C459      1.0  0.00522  0.36455  0.51646  1.0000
  H   H543      1.0  0.07015  0.29089  0.55465  1.0000
  H   H544      1.0  0.00535  0.44968  0.84011  1.0000
  H   H545      1.0  0.04824  0.47317  0.69273  1.0000
  H   H546      1.0  0.00114  0.45343  0.59914  1.0000
  C   C460      1.0  0.01842  0.16185  0.55681  1.0000
  C   C461      1.0  0.08997  0.03676  0.56447  1.0000
  C   C462      1.0  0.99530  0.48065  0.78794  1.0000
  H   H547      1.0  0.05037  0.41616  0.51746  1.0000
  C   C463      1.0  0.99345  0.20903  0.55656  1.0000
  C   C464      1.0  0.00800  0.23081  0.52676  1.0000
  H   H548      1.0  0.02694  0.16320  0.53086  1.0000
  H   H549      1.0  0.08156  0.08608  0.51146  1.0000
  H   H550      1.0  0.17113  0.43558  0.90857  1.0000
  C   C465      1.0  0.07231  0.30728  0.56113  1.0000
  C   C466      1.0  0.01273  0.36066  0.50469  1.0000
  H   H551      1.0  0.05874  0.34227  0.57311  1.0000
  H   H552      1.0  0.06218  0.34026  0.55627  1.0000
  Fe  Fe64      1.0  0.03018  0.12782  0.52563  1.0000
  C   C467      1.0  0.00588  0.47249  0.57719  1.0000
  H   H553      1.0  0.17104  0.44919  0.97091  1.0000
  H   H554      1.0  0.03049  0.44838  0.73541  1.0000
  C   C468      1.0  0.15115  0.38880  0.85130  1.0000
  C   C469      1.0  0.17719  0.40460  0.91083  1.0000
  H   H555      1.0  0.15908  0.39447  0.84820  1.0000
  H   H556      1.0  0.07993  0.46121  0.79260  1.0000
  H   H557      1.0  0.10750  0.46633  0.70903  1.0000
  H   H558      1.0  0.01300  0.20957  0.55706  1.0000
  C   C470      1.0  0.06606  0.48181  0.63423  1.0000
  H   H559      1.0  0.02689  0.21708  0.52416  1.0000
  H   H560      1.0  0.09726  0.45166  0.87372  1.0000
  C   C471      1.0  0.00507  0.18381  0.55002  1.0000
  C   C472      1.0  0.16917  0.44701  0.96240  1.0000
  C   C473      1.0  0.13653  0.40569  0.86265  1.0000
  H   H561      1.0  0.00023  0.44923  0.87551  1.0000
  C   C474      1.0  0.05890  0.45227  0.85536  1.0000
  H   H562      1.0  0.01442  0.41009  0.69562  1.0000
  C   C475      1.0  0.16447  0.44110  0.94006  1.0000
  C   C476      1.0  0.07595  0.29824  0.55287  1.0000
  H   H563      1.0  0.09875  0.47704  0.68024  1.0000
  C   C477      1.0  0.15683  0.42618  0.93131  1.0000
  H   H564      1.0  0.99139  0.24893  0.50032  1.0000
  C   C478      1.0  0.06800  0.05158  0.56853  1.0000
  C   C479      1.0  0.13736  0.47202  0.95009  1.0000
  C   C480      1.0  0.07608  0.03959  0.56567  1.0000
  H   H565      1.0  0.06865  0.46996  0.74168  1.0000
  C   C481      1.0  0.09537  0.02190  0.54919  1.0000
  C   C482      1.0  0.11278  0.02395  0.55770  1.0000
  C   C483      1.0  0.09586  0.01299  0.57244  1.0000
  H   H566      1.0  0.11518  0.03258  0.54953  1.0000
  C   C484      1.0  0.16021  0.43404  0.95334  1.0000
  N   N33       1.0  0.09841  0.02418  0.56098  1.0000
  H   H567      1.0  0.08537  0.01213  0.57501  1.0000
  H   H568      1.0  0.01256  0.43996  0.59264  1.0000
  H   H569      1.0  0.00505  0.39038  0.79040  1.0000
  C   C485      1.0  0.09511  0.04633  0.56718  1.0000
  C   C486      1.0  0.00346  0.44650  0.85119  1.0000
  H   H570      1.0  0.09610  0.03059  0.54065  1.0000
  C   C487      1.0  0.07321  0.46884  0.63409  1.0000
  C   C488      1.0  0.07342  0.06092  0.57069  1.0000
  H   H571      1.0  0.00565  0.46818  0.85671  1.0000
  H   H572      1.0  0.98938  0.09752  0.54635  1.0000
  H   H573      1.0  0.10552  0.04515  0.56656  1.0000
  C   C489      1.0  0.01192  0.20982  0.52045  1.0000
  N   N34       1.0  0.09711  0.09045  0.49434  1.0000
  H   H574      1.0  0.14594  0.39190  0.84292  1.0000
  C   C490      1.0  0.01400  0.30287  0.50537  1.0000
  H   H575      1.0  0.08363  0.47757  0.84615  1.0000
  C   C491      1.0  0.17087  0.45150  0.93856  1.0000
  C   C492      1.0  0.10356  0.09552  0.50183  1.0000
  C   C493      1.0  0.00706  0.40738  0.74854  1.0000
  H   H576      1.0  0.99292  0.46715  0.82097  1.0000
  C   C494      1.0  0.16306  0.45613  0.88595  1.0000
  H   H577      1.0  0.06721  0.07039  0.57246  1.0000
  H   H578      1.0  0.01155  0.16070  0.56678  1.0000
  H   H579      1.0  0.00510  0.47854  0.56701  1.0000
  H   H580      1.0  0.98885  0.47654  0.85912  1.0000
  H   H581      1.0  0.03902  0.13755  0.49399  1.0000
  H   H582      1.0  0.06504  0.47632  0.71809  1.0000
  C   C495      1.0  0.99878  0.42411  0.78326  1.0000
  H   H583      1.0  0.99803  0.44153  0.74232  1.0000
  C   C496      1.0  0.11999  0.09266  0.51487  1.0000
  C   C497      1.0  0.00572  0.30677  0.48512  1.0000
  H   H584      1.0  0.98911  0.38227  0.54226  1.0000
  C   C498      1.0  0.18230  0.39821  0.96985  1.0000
  C   C499      1.0  0.06900  0.46789  0.81685  1.0000
  N   N35       1.0  0.07938  0.47325  0.80597  1.0000
  C   C500      1.0  0.14501  0.37671  0.88683  1.0000
  C   C501      1.0  0.98859  0.42150  0.82871  1.0000
  C   C502      1.0  0.08648  0.46306  0.79796  1.0000
  C   C503      1.0  0.07358  0.45789  0.86580  1.0000
  H   H585      1.0  0.12309  0.38671  0.87521  1.0000
  H   H586      1.0  0.13078  0.40989  0.85468  1.0000
  H   H587      1.0  0.01837  0.24821  0.48293  1.0000
  H   H588      1.0  0.11889  0.01477  0.55428  1.0000
  H   H589      1.0  0.09842  0.46216  0.66716  1.0000
  C   C504      1.0  0.99466  0.23321  0.52655  1.0000
  H   H590      1.0  0.06207  0.30288  0.49461  1.0000
  C   C505      1.0  0.18490  0.42030  0.88560  1.0000
  H   H591      1.0  0.00267  0.48268  0.77883  1.0000
  H   H592      1.0  0.06232  0.07379  0.48511  1.0000
  C   C506      1.0  0.99365  0.40571  0.64998  1.0000
  H   H593      1.0  0.14296  0.46733  0.88855  1.0000
  C   C507      1.0  0.08867  0.47643  0.81188  1.0000
  H   H594      1.0  0.07553  0.27439  0.49460  1.0000
  H   H595      1.0  0.00345  0.20189  0.48949  1.0000
  C   C508      1.0  0.12652  0.98843  0.52279  1.0000
  H   H596      1.0  0.99950  0.47568  0.68145  1.0000
  H   H597      1.0  0.16373  0.39842  0.86593  1.0000
  C   C509      1.0  0.17560  0.39332  0.95193  1.0000
  H   H598      1.0  0.12941  0.41747  0.97818  1.0000
  H   H599      1.0  0.01547  0.48020  0.66072  1.0000
  C   C510      1.0  0.99452  0.11367  0.48377  1.0000
  N   N36       1.0  0.13552  0.48241  0.95751  1.0000
  C   C511      1.0  0.99825  0.27102  0.50026  1.0000
  C   C512      1.0  0.09549  0.47757  0.64969  1.0000
  H   H600      1.0  0.09498  0.04100  0.49197  1.0000
  H   H601      1.0  0.17687  0.44721  0.91323  1.0000
  H   H602      1.0  0.14209  0.47489  0.93939  1.0000
  C   C513      1.0  0.99818  0.09807  0.50483  1.0000
  C   C514      1.0  0.08032  0.47949  0.85638  1.0000
  H   H603      1.0  0.00008  0.42518  0.79283  1.0000
  C   C515      1.0  0.10651  0.48191  0.82366  1.0000
  H   H604      1.0  0.98978  0.43217  0.61455  1.0000
  C   C516      1.0  0.00219  0.16389  0.54462  1.0000
  C   C517      1.0  0.99035  0.41682  0.60489  1.0000
  H   H605      1.0  0.07715  0.05923  0.49986  1.0000
  C   C518      1.0  0.99238  0.25628  0.49059  1.0000
  C   C519      1.0  0.15326  0.46765  0.88694  1.0000
  H   H606      1.0  0.11365  0.07482  0.48850  1.0000
  C   C520      1.0  0.08837  0.04731  0.48558  1.0000
  H   H607      1.0  0.01536  0.32510  0.51030  1.0000
  C   C521      1.0  0.99847  0.38298  0.66227  1.0000
  C   C522      1.0  0.99132  0.18942  0.55109  1.0000
  N   N37       1.0  0.05313  0.48068  0.67137  1.0000
  C   C523      1.0  0.09713  0.47276  0.66277  1.0000
  C   C524      1.0  0.18535  0.39515  0.95708  1.0000
  H   H608      1.0  0.99178  0.40315  0.64137  1.0000
  H   H609      1.0  0.00767  0.37441  0.55366  1.0000
  H   H610      1.0  0.01859  0.11954  0.49528  1.0000
  H   H611      1.0  0.11842  0.47593  0.97123  1.0000
  H   H612      1.0  0.99178  0.30286  0.52451  1.0000
  H   H613      1.0  0.14903  0.39907  0.97718  1.0000
  H   H614      1.0  0.17847  0.46203  0.94816  1.0000
  H   H615      1.0  0.06559  0.47507  0.88172  1.0000
  H   H616      1.0  0.99671  0.47590  0.58447  1.0000
  S   S132      1.0  0.12535  0.44626  0.97308  1.0000
  N   N38       1.0  0.00225  0.26409  0.48904  1.0000
  H   H617      1.0  0.99543  0.09003  0.51305  1.0000
  C   C525      1.0  0.00809  0.10393  0.50499  1.0000
  C   C526      1.0  0.98998  0.22394  0.52321  1.0000
  H   H618      1.0  0.01310  0.10039  0.51321  1.0000
  H   H619      1.0  0.01645  0.40121  0.78391  1.0000
  C   C527      1.0  0.98944  0.35846  0.55940  1.0000
  N   N39       1.0  0.07776  0.54681  0.13009  1.0000
  H   H620      1.0  0.07697  0.55534  0.17774  1.0000
  H   H621      1.0  0.12887  0.93983  0.45129  1.0000
  N   N40       1.0  0.13859  0.94861  0.37253  1.0000
  C   C528      1.0  0.03844  0.76577  0.45108  1.0000
  H   H622      1.0  0.09249  0.62325  0.41891  1.0000
  H   H623      1.0  0.01148  0.80873  0.45848  1.0000
  Fe  Fe65      1.0  0.03101  0.84125  0.41838  1.0000
  S   S133      1.0  0.04517  0.83649  0.39969  1.0000
  S   S134      1.0  0.01052  0.85404  0.41955  1.0000
  Fe  Fe66      1.0  0.04954  0.82345  0.43601  1.0000
  S   S135      1.0  0.06507  0.81696  0.41888  1.0000
  S   S136      1.0  0.05318  0.81422  0.45653  1.0000
  Fe  Fe67      1.0  0.06071  0.83868  0.40883  1.0000
  S   S137      1.0  0.07800  0.84856  0.39819  1.0000
  Fe  Fe68      1.0  0.04809  0.81542  0.41165  1.0000
  S   S138      1.0  0.04459  0.79898  0.40475  1.0000
  S   S139      1.0  0.04623  0.84521  0.42652  1.0000
  S   S140      1.0  0.03294  0.82020  0.42972  1.0000
  Fe  Fe69      1.0  0.10318  0.90647  0.41173  1.0000
  S   S141      1.0  0.09551  0.91837  0.42759  1.0000
  S   S142      1.0  0.08587  0.90146  0.40745  1.0000
  Fe  Fe70      1.0  0.11222  0.90513  0.43645  1.0000
  S   S143      1.0  0.10719  0.89722  0.45843  1.0000
  Fe  Fe71      1.0  0.10980  0.93119  0.41571  1.0000
  S   S144      1.0  0.10299  0.95351  0.41344  1.0000
  S   S145      1.0  0.14092  0.53249  0.03351  1.0000
  C   C529      1.0  0.99150  0.63723  0.38622  1.0000
  Fe  Fe72      1.0  0.05773  0.53229  0.10482  1.0000
  S   S146      1.0  0.06428  0.51175  0.11659  1.0000
  S   S147      1.0  0.07501  0.54192  0.09343  1.0000
  Fe  Fe73      1.0  0.04858  0.50683  0.11031  1.0000
  H   H624      1.0  0.11213  0.94266  0.43848  1.0000
  Fe  Fe74      1.0  0.04828  0.51793  0.13358  1.0000
  H   H625      1.0  0.05407  0.50504  0.18140  1.0000
  Fe  Fe75      1.0  0.04388  0.54201  0.24002  1.0000
  S   S148      1.0  0.03209  0.52646  0.25061  1.0000
  S   S149      1.0  0.05136  0.55152  0.25182  1.0000
  Fe  Fe76      1.0  0.04242  0.54063  0.21258  1.0000
  S   S150      1.0  0.03043  0.52509  0.22075  1.0000
  S   S151      1.0  0.04660  0.54913  0.19044  1.0000
  Fe  Fe77      1.0  0.01939  0.53722  0.23596  1.0000
  Fe  Fe78      1.0  0.04420  0.51570  0.23463  1.0000
  H   H626      1.0  0.16498  0.93408  0.37149  1.0000
  S   S152      1.0  0.03002  0.55378  0.22666  1.0000
  S   S153      1.0  0.05745  0.53019  0.22515  1.0000
  H   H627      1.0  0.05782  0.86014  0.38182  1.0000
  H   H628      1.0  0.06223  0.81346  0.47944  1.0000
  H   H629      1.0  0.01899  0.79091  0.41053  1.0000
  C   C530      1.0  0.06963  0.49948  0.28346  1.0000
  H   H630      1.0  0.99503  0.52807  0.42316  1.0000
  Fe  Fe79      1.0  0.02851  0.53156  0.11585  1.0000
  H   H631      1.0  0.99194  0.48836  0.29342  1.0000
  H   H632      1.0  0.01104  0.51447  0.11510  1.0000
  C   C531      1.0  0.05647  0.82335  0.47638  1.0000
  H   H633      1.0  0.99447  0.62941  0.41967  1.0000
  H   H634      1.0  0.00356  0.63303  0.43435  1.0000
  H   H635      1.0  0.98857  0.68308  0.38104  1.0000
  C   C532      1.0  0.99734  0.64206  0.43722  1.0000
  Fe  Fe80      1.0  0.13164  0.90755  0.41007  1.0000
  C   C533      1.0  0.99653  0.50142  0.37419  1.0000
  H   H636      1.0  0.08655  0.54650  0.26258  1.0000
  C   C534      1.0  0.09901  0.86761  0.43776  1.0000
  H   H637      1.0  0.08338  0.61357  0.46242  1.0000
  Fe  Fe81      1.0  0.04293  0.60072  0.40632  1.0000
  S   S154      1.0  0.02332  0.61104  0.41690  1.0000
  S   S155      1.0  0.04468  0.58019  0.40313  1.0000
  Fe  Fe82      1.0  0.05594  0.62305  0.40497  1.0000
  S   S156      1.0  0.03736  0.63528  0.41505  1.0000
  S   S157      1.0  0.07551  0.62906  0.39728  1.0000
  Fe  Fe83      1.0  0.03458  0.61585  0.42895  1.0000
  S   S158      1.0  0.02647  0.61427  0.45103  1.0000
  Fe  Fe84      1.0  0.02791  0.62938  0.40212  1.0000
  S   S159      1.0  0.01137  0.64307  0.39313  1.0000
  S   S160      1.0  0.05391  0.60384  0.41985  1.0000
  S   S161      1.0  0.04673  0.61890  0.39058  1.0000
  Fe  Fe85      1.0  0.02684  0.54459  0.32658  1.0000
  S   S162      1.0  0.02980  0.52295  0.33626  1.0000
  S   S163      1.0  0.01586  0.55195  0.30995  1.0000
  Fe  Fe86      1.0  0.04010  0.55092  0.34499  1.0000
  S   S164      1.0  0.04472  0.52961  0.35608  1.0000
  S   S165      1.0  0.04393  0.56965  0.34771  1.0000
  Fe  Fe87      1.0  0.05005  0.52433  0.33600  1.0000
  S   S166      1.0  0.06740  0.50783  0.33054  1.0000
  Fe  Fe88      1.0  0.02418  0.52958  0.35549  1.0000
  S   S167      1.0  0.01170  0.51834  0.37293  1.0000
  S   S168      1.0  0.04767  0.54569  0.32476  1.0000
  S   S169      1.0  0.01894  0.55120  0.34600  1.0000
  C   C535      1.0  0.14849  0.96486  0.37746  1.0000
  Fe  Fe89      1.0  0.04722  0.71807  0.40886  1.0000
  S   S170      1.0  0.06854  0.71850  0.40012  1.0000
  S   S171      1.0  0.03184  0.72513  0.39663  1.0000
  Fe  Fe90      1.0  0.05162  0.70433  0.43639  1.0000
  S   S172      1.0  0.07341  0.70324  0.43016  1.0000
  S   S173      1.0  0.04261  0.69561  0.45744  1.0000
  Fe  Fe91      1.0  0.06771  0.72432  0.41897  1.0000
  S   S174      1.0  0.07673  0.73995  0.42103  1.0000
  Fe  Fe92      1.0  0.07210  0.69746  0.41208  1.0000
  S   S175      1.0  0.08713  0.68165  0.40260  1.0000
  S   S176      1.0  0.04597  0.72584  0.42667  1.0000
  S   S177      1.0  0.05085  0.69657  0.41942  1.0000
  H   H638      1.0  0.99327  0.67644  0.47756  1.0000
  C   C536      1.0  0.99947  0.54462  0.38707  1.0000
  N   N41       1.0  0.01612  0.79374  0.47583  1.0000
  C   C537      1.0  0.01747  0.72117  0.40775  1.0000
  C   C538      1.0  0.01775  0.71556  0.42116  1.0000
  C   C539      1.0  0.00681  0.71127  0.43003  1.0000
  N   N42       1.0  0.99598  0.68182  0.39825  1.0000
  H   H639      1.0  0.00528  0.52718  0.28889  1.0000
  H   H640      1.0  0.02643  0.71434  0.42477  1.0000
  H   H641      1.0  0.00728  0.70665  0.44029  1.0000
  H   H642      1.0  0.01072  0.48415  0.30115  1.0000
  H   H643      1.0  0.09004  0.82547  0.42638  1.0000
  Fe  Fe93      1.0  0.12374  0.53377  0.02479  1.0000
  C   C540      1.0  0.01403  0.57542  0.42361  1.0000
  H   H644      1.0  0.10167  0.96430  0.43895  1.0000
  H   H645      1.0  0.11397  0.61916  0.44020  1.0000
  C   C541      1.0  0.98861  0.56128  0.42170  1.0000
  C   C542      1.0  0.00841  0.51760  0.29514  1.0000
  C   C543      1.0  0.04487  0.57738  0.38754  1.0000
  C   C544      1.0  0.04560  0.56441  0.38652  1.0000
  C   C545      1.0  0.04522  0.56188  0.37443  1.0000
  C   C546      1.0  0.04431  0.57229  0.36319  1.0000
  C   C547      1.0  0.04360  0.58525  0.36421  1.0000
  C   C548      1.0  0.04375  0.58781  0.37636  1.0000
  H   H646      1.0  0.04650  0.55628  0.39512  1.0000
  H   H647      1.0  0.04587  0.55185  0.37373  1.0000
  H   H648      1.0  0.04301  0.59336  0.35556  1.0000
  H   H649      1.0  0.04313  0.59784  0.37702  1.0000
  C   C549      1.0  0.07786  0.64391  0.39917  1.0000
  C   C550      1.0  0.06840  0.65196  0.40726  1.0000
  C   C551      1.0  0.07104  0.66365  0.40850  1.0000
  C   C552      1.0  0.08306  0.66729  0.40154  1.0000
  C   C553      1.0  0.09241  0.65918  0.39356  1.0000
  C   C554      1.0  0.08984  0.64756  0.39240  1.0000
  H   H650      1.0  0.05924  0.64903  0.41273  1.0000
  H   H651      1.0  0.06396  0.66967  0.41500  1.0000
  H   H652      1.0  0.10174  0.66187  0.38824  1.0000
  H   H653      1.0  0.09719  0.64136  0.38618  1.0000
  H   H654      1.0  0.02888  0.80778  0.46906  1.0000
  H   H655      1.0  0.00209  0.66968  0.38359  1.0000
  H   H656      1.0  0.12380  0.92459  0.46017  1.0000
  C   C555      1.0  0.08719  0.49003  0.07947  1.0000
  C   C556      1.0  0.98862  0.49661  0.36911  1.0000
  C   C557      1.0  0.16284  0.94390  0.37342  1.0000
  H   H657      1.0  0.03245  0.59383  0.32318  1.0000
  C   C558      1.0  0.10768  0.96069  0.46969  1.0000
  C   C559      1.0  0.99186  0.51183  0.11550  1.0000
  H   H658      1.0  0.13200  0.96788  0.36041  1.0000
  S   S178      1.0  0.05354  0.48817  0.10285  1.0000
  H   H659      1.0  0.09327  0.51766  0.02213  1.0000
  H   H660      1.0  0.06760  0.51562  0.06213  1.0000
  C   C560      1.0  0.03225  0.70806  0.46554  1.0000
  C   C561      1.0  0.02421  0.71902  0.45881  1.0000
  C   C562      1.0  0.01631  0.72913  0.46535  1.0000
  C   C563      1.0  0.00070  0.51914  0.11574  1.0000
  H   H661      1.0  0.18024  0.48892  0.01173  1.0000
  H   H662      1.0  0.02400  0.71966  0.44861  1.0000
  H   H663      1.0  0.01031  0.73770  0.46005  1.0000
  C   C564      1.0  0.05210  0.62444  0.47265  1.0000
  H   H664      1.0  0.98950  0.79099  0.41734  1.0000
  C   C565      1.0  0.03487  0.61376  0.47311  1.0000
  C   C566      1.0  0.03654  0.61804  0.45921  1.0000
  C   C567      1.0  0.04594  0.62561  0.45205  1.0000
  C   C568      1.0  0.05356  0.62896  0.45879  1.0000
  H   H665      1.0  0.00977  0.57483  0.24662  1.0000
  C   C569      1.0  0.00592  0.72306  0.40334  1.0000
  H   H666      1.0  0.04729  0.62896  0.44133  1.0000
  H   H667      1.0  0.06069  0.63493  0.45321  1.0000
  C   C570      1.0  0.03178  0.67346  0.41246  1.0000
  H   H668      1.0  0.17388  0.98233  0.40300  1.0000
  C   C571      1.0  0.13774  0.98109  0.44246  1.0000
  C   C572      1.0  0.99272  0.58710  0.41948  1.0000
  H   H669      1.0  0.18109  0.88945  0.47688  1.0000
  C   C573      1.0  0.14223  0.89910  0.46341  1.0000
  H   H670      1.0  0.00028  0.52919  0.34976  1.0000
  H   H671      1.0  0.04392  0.75893  0.44464  1.0000
  C   C574      1.0  0.14996  0.95229  0.37465  1.0000
  C   C575      1.0  0.04131  0.55201  0.26784  1.0000
  C   C576      1.0  0.04631  0.55419  0.27759  1.0000
  C   C577      1.0  0.03868  0.55388  0.29063  1.0000
  C   C578      1.0  0.02584  0.55183  0.29386  1.0000
  C   C579      1.0  0.02070  0.55000  0.28402  1.0000
  C   C580      1.0  0.02845  0.54995  0.27107  1.0000
  H   H672      1.0  0.05611  0.55610  0.27508  1.0000
  H   H673      1.0  0.04265  0.55559  0.29805  1.0000
  H   H674      1.0  0.01068  0.54866  0.28641  1.0000
  H   H675      1.0  0.02435  0.54866  0.26352  1.0000
  C   C581      1.0  0.02507  0.49480  0.23893  1.0000
  H   H676      1.0  0.14424  0.95469  0.47453  1.0000
  C   C582      1.0  0.10296  0.96652  0.44768  1.0000
  H   H677      1.0  0.05621  0.50703  0.26403  1.0000
  H   H678      1.0  0.01992  0.54421  0.38550  1.0000
  S   S179      1.0  0.99764  0.54009  0.24368  1.0000
  H   H679      1.0  0.02254  0.50417  0.24192  1.0000
  C   C583      1.0  0.04935  0.52068  0.16460  1.0000
  C   C584      1.0  0.04581  0.53442  0.15982  1.0000
  C   C585      1.0  0.04478  0.54312  0.16788  1.0000
  C   C586      1.0  0.04695  0.53811  0.18086  1.0000
  C   C587      1.0  0.05005  0.52436  0.18578  1.0000
  C   C588      1.0  0.05134  0.51566  0.17763  1.0000
  H   H680      1.0  0.04399  0.53835  0.14989  1.0000
  H   H681      1.0  0.04238  0.55376  0.16405  1.0000
  H   H682      1.0  0.05188  0.52042  0.19574  1.0000
  C   C589      1.0  0.17774  0.54656  0.02370  1.0000
  H   H683      1.0  0.99795  0.76321  0.46634  1.0000
  C   C590      1.0  0.14131  0.93451  0.37156  1.0000
  C   C591      1.0  0.99393  0.77293  0.46075  1.0000
  C   C592      1.0  0.00791  0.51087  0.16258  1.0000
  C   C593      1.0  0.09439  0.53902  0.04994  1.0000
  C   C594      1.0  0.10201  0.53895  0.05859  1.0000
  C   C595      1.0  0.09596  0.53992  0.07188  1.0000
  C   C596      1.0  0.08232  0.54065  0.07671  1.0000
  C   C597      1.0  0.07472  0.54069  0.06806  1.0000
  C   C598      1.0  0.08071  0.54001  0.05471  1.0000
  H   H684      1.0  0.11255  0.53820  0.05503  1.0000
  H   H685      1.0  0.10190  0.54002  0.07847  1.0000
  H   H686      1.0  0.06416  0.54154  0.07160  1.0000
  H   H687      1.0  0.07473  0.54017  0.04806  1.0000
  H   H688      1.0  0.02303  0.61894  0.38345  1.0000
  H   H689      1.0  0.98896  0.71112  0.47388  1.0000
  H   H690      1.0  0.00692  0.69021  0.46036  1.0000
  H   H691      1.0  0.04600  0.78238  0.43775  1.0000
  H   H692      1.0  0.15767  0.94385  0.40721  1.0000
  S   S180      1.0  0.06225  0.62828  0.48071  1.0000
  C   C599      1.0  0.02414  0.78382  0.46783  1.0000
  C   C600      1.0  0.01001  0.49993  0.17351  1.0000
  H   H693      1.0  0.06928  0.76831  0.45202  1.0000
  C   C601      1.0  0.07373  0.90455  0.47403  1.0000
  H   H694      1.0  0.04795  0.51203  0.29780  1.0000
  H   H695      1.0  0.16413  0.93716  0.43343  1.0000
  C   C602      1.0  0.01669  0.49379  0.31259  1.0000
  C   C603      1.0  0.11389  0.96359  0.41212  1.0000
  C   C604      1.0  0.12687  0.95810  0.41370  1.0000
  C   C605      1.0  0.13547  0.96648  0.41182  1.0000
  H   H696      1.0  0.98801  0.58417  0.43024  1.0000
  H   H697      1.0  0.02432  0.64155  0.47113  1.0000
  H   H698      1.0  0.02152  0.50587  0.32273  1.0000
  H   H699      1.0  0.13038  0.94744  0.41613  1.0000
  H   H700      1.0  0.14553  0.96232  0.41289  1.0000
  C   C606      1.0  0.06792  0.76009  0.47300  1.0000
  H   H701      1.0  0.16693  0.97592  0.45134  1.0000
  H   H702      1.0  0.04039  0.48690  0.15523  1.0000
  C   C607      1.0  0.07079  0.50854  0.07106  1.0000
  C   C608      1.0  0.13252  0.89776  0.45782  1.0000
  C   C609      1.0  0.08162  0.52119  0.98899  1.0000
  S   S181      1.0  0.05155  0.50952  0.15449  1.0000
  C   C610      1.0  0.08036  0.86253  0.40221  1.0000
  C   C611      1.0  0.06998  0.87077  0.40928  1.0000
  C   C612      1.0  0.07199  0.88238  0.41133  1.0000
  C   C613      1.0  0.08444  0.88570  0.40665  1.0000
  C   C614      1.0  0.09496  0.87715  0.40010  1.0000
  C   C615      1.0  0.09287  0.86570  0.39776  1.0000
  H   H703      1.0  0.06029  0.86853  0.41270  1.0000
  H   H704      1.0  0.06375  0.88904  0.41624  1.0000
  H   H705      1.0  0.10454  0.87968  0.39628  1.0000
  H   H706      1.0  0.10096  0.85940  0.39225  1.0000
  C   C616      1.0  0.05378  0.78269  0.40923  1.0000
  C   C617      1.0  0.06462  0.78007  0.41501  1.0000
  C   C618      1.0  0.07163  0.76691  0.41864  1.0000
  C   C619      1.0  0.06784  0.75636  0.41646  1.0000
  C   C620      1.0  0.05697  0.75899  0.41075  1.0000
  C   C621      1.0  0.05000  0.77213  0.40710  1.0000
  H   H707      1.0  0.06766  0.78816  0.41660  1.0000
  H   H708      1.0  0.08008  0.76492  0.42299  1.0000
  H   H709      1.0  0.05409  0.75095  0.40887  1.0000
  H   H710      1.0  0.04173  0.77410  0.40249  1.0000
  H   H711      1.0  0.14359  0.95614  0.35134  1.0000
  C   C622      1.0  0.07726  0.53302  0.13047  1.0000
  N   N43       1.0  0.06213  0.51305  0.27878  1.0000
  C   C623      1.0  0.05042  0.82628  0.46564  1.0000
  C   C624      1.0  0.04294  0.83905  0.46174  1.0000
  C   C625      1.0  0.04217  0.84911  0.46805  1.0000
  C   C626      1.0  0.08085  0.49075  0.05919  1.0000
  H   H712      1.0  0.07856  0.56984  0.13598  1.0000
  H   H713      1.0  0.03775  0.84119  0.45387  1.0000
  H   H714      1.0  0.03655  0.85905  0.46489  1.0000
  H   H715      1.0  0.99968  0.79844  0.46650  1.0000
  H   H716      1.0  0.00079  0.66830  0.44678  1.0000
  H   H717      1.0  0.08699  0.48656  0.32155  1.0000
  H   H718      1.0  0.09820  0.87745  0.43125  1.0000
  C   C627      1.0  0.00404  0.83974  0.40550  1.0000
  H   H719      1.0  0.15856  0.96117  0.43137  1.0000
  C   C628      1.0  0.06830  0.73572  0.46724  1.0000
  H   H720      1.0  0.98854  0.52508  0.28067  1.0000
  H   H721      1.0  0.01437  0.83793  0.40051  1.0000
  H   H722      1.0  0.04763  0.73023  0.46227  1.0000
  C   C629      1.0  0.07359  0.84211  0.44146  1.0000
  C   C630      1.0  0.00653  0.80343  0.46832  1.0000
  C   C631      1.0  0.15931  0.98061  0.44525  1.0000
  C   C632      1.0  0.13505  0.95719  0.35998  1.0000
  C   C633      1.0  0.01993  0.68024  0.41912  1.0000
  H   H723      1.0  0.07054  0.91112  0.38481  1.0000
  N   N44       1.0  0.09989  0.51859  0.00094  1.0000
  H   H724      1.0  0.14441  0.92756  0.38063  1.0000
  N   N45       1.0  0.00450  0.57679  0.41540  1.0000
  H   H725      1.0  0.17657  0.88508  0.45763  1.0000
  C   C634      1.0  0.99482  0.71891  0.41232  1.0000
  C   C635      1.0  0.07769  0.48576  0.32021  1.0000
  C   C636      1.0  0.01772  0.50575  0.31444  1.0000
  H   H726      1.0  0.10907  0.52952  0.00855  1.0000
  C   C637      1.0  0.18315  0.90200  0.44380  1.0000
  H   H727      1.0  0.02916  0.68011  0.44871  1.0000
  H   H728      1.0  0.00316  0.58384  0.39479  1.0000
  H   H729      1.0  0.00560  0.72759  0.39300  1.0000
  H   H730      1.0  0.07753  0.52845  0.15498  1.0000
  H   H731      1.0  0.04631  0.91563  0.39311  1.0000
  N   N46       1.0  0.00077  0.50521  0.28257  1.0000
  H   H732      1.0  0.01811  0.56794  0.37430  1.0000
  H   H733      1.0  0.05943  0.73278  0.44662  1.0000
  H   H734      1.0  0.08898  0.71636  0.46095  1.0000
  C   C638      1.0  0.02299  0.67385  0.45607  1.0000
  C   C639      1.0  0.98998  0.57197  0.25017  1.0000
  S   S182      1.0  0.15347  0.90218  0.40094  1.0000
  H   H735      1.0  0.00637  0.49845  0.20661  1.0000
  C   C640      1.0  0.00428  0.49681  0.19763  1.0000
  C   C641      1.0  0.00955  0.56359  0.37710  1.0000
  Fe  Fe94      1.0  0.14173  0.52527  0.99925  1.0000
  S   S183      1.0  0.03310  0.51108  0.12836  1.0000
  C   C642      1.0  0.07784  0.60204  0.45275  1.0000
  H   H736      1.0  0.07737  0.64613  0.43509  1.0000
  H   H737      1.0  0.00975  0.77134  0.44393  1.0000
  H   H738      1.0  0.03749  0.65574  0.45420  1.0000
  H   H739      1.0  0.12448  0.93589  0.46921  1.0000
  C   C643      1.0  0.04847  0.84624  0.47861  1.0000
  C   C644      1.0  0.98836  0.59299  0.34385  1.0000
  H   H740      1.0  0.06478  0.49171  0.28319  1.0000
  H   H741      1.0  0.12666  0.95462  0.35785  1.0000
  C   C645      1.0  0.15973  0.94118  0.44233  1.0000
  H   H742      1.0  0.04307  0.86683  0.40230  1.0000
  C   C646      1.0  0.98718  0.55215  0.38396  1.0000
  C   C647      1.0  0.07770  0.55347  0.16808  1.0000
  H   H743      1.0  0.99860  0.85945  0.47498  1.0000
  C   C648      1.0  0.15654  0.95493  0.44127  1.0000
  Fe  Fe95      1.0  0.14996  0.51368  0.02596  1.0000
  H   H744      1.0  0.13175  0.97594  0.46909  1.0000
  H   H745      1.0  0.99151  0.57165  0.23984  1.0000
  C   C649      1.0  0.01036  0.58181  0.40118  1.0000
  N   N47       1.0  0.10798  0.94207  0.45953  1.0000
  C   C650      1.0  0.00272  0.67152  0.47250  1.0000
  H   H746      1.0  0.99455  0.70299  0.39312  1.0000
  H   H747      1.0  0.02270  0.59079  0.31381  1.0000
  H   H748      1.0  0.00540  0.49649  0.23671  1.0000
  H   H749      1.0  0.99128  0.56553  0.32554  1.0000
  C   C651      1.0  0.99238  0.53380  0.21027  1.0000
  H   H750      1.0  0.08164  0.52794  0.01255  1.0000
  C   C652      1.0  0.00483  0.63353  0.38684  1.0000
  H   H751      1.0  0.14978  0.93106  0.47583  1.0000
  C   C653      1.0  0.99323  0.79967  0.41728  1.0000
  H   H752      1.0  0.03023  0.67645  0.48057  1.0000
  H   H753      1.0  0.10007  0.92523  0.47217  1.0000
  H   H754      1.0  0.99965  0.49589  0.38333  1.0000
  H   H755      1.0  0.07200  0.51447  0.07749  1.0000
  H   H756      1.0  0.04125  0.66355  0.39630  1.0000
  C   C654      1.0  0.02401  0.58936  0.32410  1.0000
  H   H757      1.0  0.11309  0.50384  0.01247  1.0000
  H   H758      1.0  0.02967  0.75106  0.46654  1.0000
  H   H759      1.0  0.13243  0.93181  0.37065  1.0000
  H   H760      1.0  0.06835  0.83488  0.44072  1.0000
  C   C655      1.0  0.15730  0.93260  0.45477  1.0000
  H   H761      1.0  0.01961  0.68341  0.42798  1.0000
  C   C656      1.0  0.08359  0.61220  0.45274  1.0000
  C   C657      1.0  0.03267  0.78783  0.45543  1.0000
  C   C658      1.0  0.99614  0.53245  0.11669  1.0000
  H   H762      1.0  0.08247  0.60550  0.41935  1.0000
  H   H763      1.0  0.07232  0.85051  0.43276  1.0000
  H   H764      1.0  0.10614  0.92847  0.44896  1.0000
  H   H765      1.0  0.09832  0.81758  0.45215  1.0000
  H   H766      1.0  0.09084  0.64364  0.42109  1.0000
  H   H767      1.0  0.06834  0.84588  0.45067  1.0000
  H   H768      1.0  0.03407  0.79789  0.45204  1.0000
  H   H769      1.0  0.08109  0.70877  0.45322  1.0000
  S   S184      1.0  0.10158  0.53698  0.03343  1.0000
  H   H770      1.0  0.99686  0.58161  0.36920  1.0000
  C   C659      1.0  0.02178  0.48639  0.35003  1.0000
  S   S185      1.0  0.00687  0.54172  0.11768  1.0000
  H   H771      1.0  0.99856  0.82935  0.39401  1.0000
  H   H772      1.0  0.07793  0.57364  0.15763  1.0000
  H   H773      1.0  0.12939  0.94479  0.39342  1.0000
  H   H774      1.0  0.09488  0.94425  0.44668  1.0000
  H   H775      1.0  0.01923  0.57468  0.39725  1.0000
  N   N48       1.0  0.09458  0.63168  0.44017  1.0000
  H   H776      1.0  0.00626  0.54149  0.21532  1.0000
  H   H777      1.0  0.08305  0.82529  0.46216  1.0000
  H   H778      1.0  0.05540  0.87007  0.36561  1.0000
  H   H779      1.0  0.01435  0.52690  0.30728  1.0000
  C   C660      1.0  0.03211  0.66928  0.40115  1.0000
  H   H780      1.0  0.00439  0.52361  0.26898  1.0000
  N   N49       1.0  0.14727  0.97512  0.45130  1.0000
  H   H781      1.0  0.01010  0.57131  0.43434  1.0000
  H   H782      1.0  0.06244  0.50372  0.07688  1.0000
  C   C661      1.0  0.16236  0.91260  0.40314  1.0000
  H   H783      1.0  0.11900  0.50589  0.99493  1.0000
  C   C662      1.0  0.05747  0.72593  0.45651  1.0000
  Fe  Fe96      1.0  0.14989  0.54226  0.01255  1.0000
  H   H784      1.0  0.11218  0.84887  0.46413  1.0000
  C   C663      1.0  0.10514  0.93932  0.44790  1.0000
  H   H785      1.0  0.08837  0.86144  0.42756  1.0000
  C   C664      1.0  0.00091  0.51305  0.36711  1.0000
  H   H786      1.0  0.99722  0.53508  0.19985  1.0000
  C   C665      1.0  0.17589  0.55539  0.01164  1.0000
  C   C666      1.0  0.00700  0.50558  0.29312  1.0000
  H   H787      1.0  0.07708  0.53188  0.12051  1.0000
  H   H788      1.0  0.11648  0.48543  0.04283  1.0000
  S   S186      1.0  0.15991  0.49353  0.03600  1.0000
  C   C667      1.0  0.99546  0.71268  0.42557  1.0000
  H   H789      1.0  0.15195  0.89982  0.45727  1.0000
  C   C668      1.0  0.01997  0.65204  0.46905  1.0000
  S   S187      1.0  0.16136  0.55846  0.00583  1.0000
  S   S188      1.0  0.11930  0.89241  0.42144  1.0000
  N   N50       1.0  0.04229  0.87790  0.38232  1.0000
  H   H790      1.0  0.16992  0.54172  0.03002  1.0000
  H   H791      1.0  0.06857  0.88216  0.46950  1.0000
  N   N51       1.0  0.06791  0.72330  0.46404  1.0000
  C   C669      1.0  0.09392  0.84546  0.44410  1.0000
  H   H792      1.0  0.09398  0.84141  0.42021  1.0000
  H   H793      1.0  0.08861  0.94113  0.47173  1.0000
  H   H794      1.0  0.11373  0.63664  0.43387  1.0000
  C   C670      1.0  0.01366  0.51760  0.30569  1.0000
  H   H795      1.0  0.99810  0.80367  0.40680  1.0000
  C   C671      1.0  0.08086  0.71823  0.45572  1.0000
  H   H796      1.0  0.01933  0.50134  0.26855  1.0000
  H   H797      1.0  0.04279  0.52512  0.28445  1.0000
  C   C672      1.0  0.08970  0.54991  0.11995  1.0000
  H   H798      1.0  0.06810  0.92573  0.46685  1.0000
  C   C673      1.0  0.01644  0.72824  0.47863  1.0000
  H   H799      1.0  0.01339  0.60470  0.37600  1.0000
  C   C674      1.0  0.07815  0.54877  0.14312  1.0000
  C   C675      1.0  0.00725  0.61374  0.37889  1.0000
  H   H800      1.0  0.08274  0.81668  0.45026  1.0000
  H   H801      1.0  0.02147  0.66811  0.38782  1.0000
  H   H802      1.0  0.10202  0.83265  0.46127  1.0000
  C   C676      1.0  0.01495  0.51460  0.18487  1.0000
  C   C677      1.0  0.07131  0.89352  0.37855  1.0000
  H   H803      1.0  0.02866  0.87999  0.40125  1.0000
  C   C678      1.0  0.09508  0.52021  0.98879  1.0000
  C   C679      1.0  0.99955  0.84723  0.41532  1.0000
  H   H804      1.0  0.07341  0.59619  0.46214  1.0000
  H   H805      1.0  0.13911  0.97193  0.37832  1.0000
  C   C680      1.0  0.00838  0.68283  0.41452  1.0000
  H   H806      1.0  0.03655  0.89022  0.36431  1.0000
  C   C681      1.0  0.07841  0.56149  0.14443  1.0000
  C   C682      1.0  0.07780  0.54080  0.16709  1.0000
  H   H807      1.0  0.10518  0.82795  0.42828  1.0000
  H   H808      1.0  0.01782  0.53168  0.41453  1.0000
  C   C683      1.0  0.10610  0.95643  0.45891  1.0000
  C   C684      1.0  0.08282  0.60734  0.42870  1.0000
  H   H809      1.0  0.99532  0.59682  0.41799  1.0000
  H   H810      1.0  0.15967  0.92192  0.45561  1.0000
  C   C685      1.0  0.10985  0.50588  0.00295  1.0000
  C   C686      1.0  0.17602  0.90849  0.40261  1.0000
  C   C687      1.0  0.03041  0.76139  0.46335  1.0000
  C   C688      1.0  0.10586  0.86416  0.44792  1.0000
  H   H811      1.0  0.07020  0.74738  0.44672  1.0000
  H   H812      1.0  0.08609  0.52569  0.13340  1.0000
  C   C689      1.0  0.05411  0.49376  0.32233  1.0000
  H   H813      1.0  0.99800  0.81628  0.42868  1.0000
  C   C690      1.0  0.08881  0.62053  0.44060  1.0000
  C   C691      1.0  0.00120  0.57906  0.32832  1.0000
  C   C692      1.0  0.17152  0.96005  0.37830  1.0000
  C   C693      1.0  0.99696  0.52016  0.35523  1.0000
  S   S189      1.0  0.12588  0.91896  0.42620  1.0000
  C   C694      1.0  0.00207  0.49738  0.15133  1.0000
  C   C695      1.0  0.01049  0.67952  0.46265  1.0000
  C   C696      1.0  0.08834  0.64409  0.43176  1.0000
  H   H814      1.0  0.02217  0.78411  0.42674  1.0000
  H   H815      1.0  0.09502  0.49652  0.04053  1.0000
  H   H816      1.0  0.03038  0.49246  0.19510  1.0000
  C   C697      1.0  0.09452  0.83254  0.42861  1.0000
  C   C698      1.0  0.01148  0.49366  0.30207  1.0000
  C   C699      1.0  0.15581  0.92532  0.40502  1.0000
  C   C700      1.0  0.05022  0.88698  0.38269  1.0000
  C   C701      1.0  0.07811  0.56377  0.15676  1.0000
  H   H817      1.0  0.05671  0.55432  0.13332  1.0000
  C   C702      1.0  0.06588  0.55585  0.12564  1.0000
  H   H818      1.0  0.06613  0.56651  0.12365  1.0000
  C   C703      1.0  0.00843  0.67920  0.40274  1.0000
  H   H819      1.0  0.04284  0.50816  0.28523  1.0000
  H   H820      1.0  0.06820  0.53018  0.13746  1.0000
  C   C704      1.0  0.09280  0.63440  0.45351  1.0000
  H   H821      1.0  0.07712  0.53292  0.17603  1.0000
  C   C705      1.0  0.11693  0.89760  0.47912  1.0000
  H   H822      1.0  0.07058  0.49787  0.29388  1.0000
  C   C706      1.0  0.05028  0.86658  0.37610  1.0000
  H   H823      1.0  0.14545  0.92877  0.40497  1.0000
  H   H824      1.0  0.99410  0.50255  0.19692  1.0000
  C   C707      1.0  0.10945  0.97747  0.40926  1.0000
  C   C708      1.0  0.15081  0.96051  0.45272  1.0000
  H   H825      1.0  0.14232  0.98029  0.43197  1.0000
  H   H826      1.0  0.14914  0.93242  0.36263  1.0000
  C   C709      1.0  0.10895  0.62856  0.43428  1.0000
  N   N52       1.0  0.08767  0.83596  0.44170  1.0000
  C   C710      1.0  0.01036  0.49715  0.27334  1.0000
  S   S190      1.0  0.13197  0.54511  0.00430  1.0000
  H   H827      1.0  0.99544  0.50159  0.11463  1.0000
  C   C711      1.0  0.01271  0.62181  0.38311  1.0000
  C   C712      1.0  0.03961  0.77897  0.44718  1.0000
  C   C713      1.0  0.10614  0.52978  0.99931  1.0000
  C   C714      1.0  0.02064  0.67204  0.39633  1.0000
  S   S191      1.0  0.13222  0.51419  0.01890  1.0000
  S   S192      1.0  0.04306  0.52686  0.09713  1.0000
  H   H828      1.0  0.08213  0.63680  0.45844  1.0000
  N   N53       1.0  0.05706  0.69641  0.37307  1.0000
  C   C715      1.0  0.07129  0.69686  0.36836  1.0000
  C   C716      1.0  0.04936  0.70925  0.36663  1.0000
  C   C717      1.0  0.05328  0.69554  0.38762  1.0000
  C   C718      1.0  0.05464  0.68460  0.37037  1.0000
  C   C719      1.0  0.06262  0.67179  0.37414  1.0000
  C   C720      1.0  0.04398  0.68527  0.36468  1.0000
  C   C721      1.0  0.06027  0.66043  0.37211  1.0000
  C   C722      1.0  0.04169  0.67382  0.36273  1.0000
  C   C723      1.0  0.04980  0.66143  0.36646  1.0000
  H   H829      1.0  0.07497  0.69609  0.35774  1.0000
  H   H830      1.0  0.07314  0.70624  0.36926  1.0000
  H   H831      1.0  0.07767  0.68882  0.37439  1.0000
  H   H832      1.0  0.05138  0.71036  0.35564  1.0000
  H   H833      1.0  0.05179  0.71793  0.36847  1.0000
  H   H834      1.0  0.03854  0.71036  0.37087  1.0000
  H   H835      1.0  0.05909  0.68648  0.39313  1.0000
  C   C724      1.0  0.17635  0.92996  0.40572  1.0000
  H   H836      1.0  0.04260  0.69546  0.39165  1.0000
  H   H837      1.0  0.07065  0.67038  0.37890  1.0000
  H   H838      1.0  0.03723  0.69452  0.36172  1.0000
  H   H839      1.0  0.06651  0.65074  0.37511  1.0000
  H   H840      1.0  0.03354  0.67451  0.35836  1.0000
  H   H841      1.0  0.04794  0.65255  0.36506  1.0000
  C   C725      1.0  0.01051  0.55027  0.38348  1.0000
  H   H842      1.0  0.02469  0.89313  0.37935  1.0000
  C   C726      1.0  0.04837  0.51465  0.28691  1.0000
  H   H843      1.0  0.09025  0.56047  0.11812  1.0000
  S   S193      1.0  0.05052  0.49349  0.23985  1.0000
  C   C727      1.0  0.03568  0.87228  0.39611  1.0000
  H   H844      1.0  0.08045  0.86693  0.47160  1.0000
  H   H845      1.0  0.06994  0.87609  0.37412  1.0000
  H   H846      1.0  0.02622  0.87864  0.37366  1.0000
  N   N54       1.0  0.00236  0.79595  0.42647  1.0000
  C   C728      1.0  0.07798  0.53840  0.15484  1.0000
  H   H847      1.0  0.18303  0.94105  0.37476  1.0000
  C   C729      1.0  0.16276  0.93390  0.40629  1.0000
  C   C730      1.0  0.12187  0.93534  0.46009  1.0000
  C   C731      1.0  0.14854  0.95146  0.46526  1.0000
  C   C732      1.0  0.06418  0.88474  0.37796  1.0000
  H   H848      1.0  0.03343  0.90068  0.39207  1.0000
  H   H849      1.0  0.04513  0.50076  0.32530  1.0000
  H   H850      1.0  0.02263  0.51815  0.17621  1.0000
  H   H851      1.0  0.12320  0.96118  0.38448  1.0000
  H   H852      1.0  0.01632  0.58512  0.42282  1.0000
  C   C733      1.0  0.00965  0.53995  0.41656  1.0000
  H   H853      1.0  0.99880  0.84203  0.47827  1.0000
  C   C734      1.0  0.06487  0.90464  0.38394  1.0000
  N   N55       1.0  0.08316  0.49879  0.06718  1.0000
  H   H854      1.0  0.18118  0.89865  0.40105  1.0000
  C   C735      1.0  0.09364  0.50634  0.06002  1.0000
  C   C736      1.0  0.99557  0.79046  0.44021  1.0000
  C   C737      1.0  0.00346  0.65025  0.44043  1.0000
  H   H855      1.0  0.01362  0.59119  0.39970  1.0000
  H   H856      1.0  0.09929  0.53957  0.99682  1.0000
  H   H857      1.0  0.07143  0.51238  0.25817  1.0000
  H   H858      1.0  0.04405  0.86000  0.37584  1.0000
  C   C738      1.0  0.07738  0.59966  0.44077  1.0000
  H   H859      1.0  0.01367  0.48666  0.27845  1.0000
  H   H860      1.0  0.17966  0.96273  0.38019  1.0000
  H   H861      1.0  0.02372  0.56882  0.42043  1.0000
  H   H862      1.0  0.10341  0.49966  0.05728  1.0000
  H   H863      1.0  0.09498  0.51240  0.06627  1.0000
  H   H864      1.0  0.09115  0.51347  0.05082  1.0000
  C   C739      1.0  0.13119  0.98030  0.40841  1.0000
  H   H865      1.0  0.98701  0.60068  0.34914  1.0000
  C   C740      1.0  0.99806  0.68020  0.38441  1.0000
  H   H866      1.0  0.98938  0.61836  0.44373  1.0000
  C   C741      1.0  0.18326  0.89622  0.46735  1.0000
  H   H867      1.0  0.06411  0.70363  0.47333  1.0000
  H   H868      1.0  0.02977  0.86521  0.39627  1.0000
  C   C742      1.0  0.02472  0.80104  0.47825  1.0000
  H   H869      1.0  0.05667  0.71666  0.45438  1.0000
  C   C743      1.0  0.18067  0.89361  0.45635  1.0000
  C   C744      1.0  0.08849  0.61759  0.42857  1.0000
  C   C745      1.0  0.03375  0.48651  0.35242  1.0000
  C   C746      1.0  0.06866  0.52280  0.28032  1.0000
  C   C747      1.0  0.06898  0.52363  0.29324  1.0000
  C   C748      1.0  0.07535  0.53121  0.26928  1.0000
  C   C749      1.0  0.07543  0.53239  0.29501  1.0000
  C   C750      1.0  0.08179  0.53995  0.27115  1.0000
  C   C751      1.0  0.08181  0.54056  0.28399  1.0000
  H   H870      1.0  0.00236  0.51804  0.14352  1.0000
  S   S194      1.0  0.11616  0.92061  0.39879  1.0000
  C   C752      1.0  0.00806  0.48765  0.17274  1.0000
  H   H871      1.0  0.07272  0.59192  0.44082  1.0000
  H   H872      1.0  0.00429  0.48607  0.19980  1.0000
  N   N56       1.0  0.01403  0.50095  0.18528  1.0000
  C   C753      1.0  0.07863  0.87767  0.47154  1.0000
  C   C754      1.0  0.09327  0.85838  0.43577  1.0000
  H   H873      1.0  0.98807  0.74082  0.47339  1.0000
  H   H874      1.0  0.06433  0.51743  0.30214  1.0000
  H   H875      1.0  0.07547  0.53151  0.25907  1.0000
  H   H876      1.0  0.07546  0.53277  0.30503  1.0000
  S   S195      1.0  0.04269  0.53899  0.12247  1.0000
  H   H877      1.0  0.08670  0.54743  0.28541  1.0000
  N   N57       1.0  0.01174  0.59533  0.33289  1.0000
  C   C755      1.0  0.00803  0.60965  0.32670  1.0000
  C   C756      1.0  0.01496  0.59402  0.34586  1.0000
  H   H878      1.0  0.10694  0.97715  0.47787  1.0000
  H   H879      1.0  0.03483  0.49500  0.17720  1.0000
  H   H880      1.0  0.07928  0.48503  0.08619  1.0000
  C   C757      1.0  0.10678  0.85152  0.45627  1.0000
  H   H881      1.0  0.14784  0.97559  0.47122  1.0000
  H   H882      1.0  0.01267  0.80576  0.43385  1.0000
  H   H883      1.0  0.00093  0.53424  0.39200  1.0000
  C   C758      1.0  0.99750  0.53743  0.21905  1.0000
  H   H884      1.0  0.01635  0.61467  0.32462  1.0000
  H   H885      1.0  0.01690  0.58342  0.35123  1.0000
  H   H886      1.0  0.02399  0.59772  0.34457  1.0000
  H   H887      1.0  0.00697  0.59974  0.35252  1.0000
  H   H888      1.0  0.07282  0.90290  0.46486  1.0000
  H   H889      1.0  0.00993  0.57544  0.32130  1.0000
  H   H890      1.0  0.10075  0.87659  0.47971  1.0000
  C   C759      1.0  0.02717  0.49208  0.18620  1.0000
  H   H891      1.0  0.10584  0.49729  0.00327  1.0000
  C   C760      1.0  0.12697  0.95063  0.38371  1.0000
  H   H892      1.0  0.09688  0.64306  0.45285  1.0000
  C   C761      1.0  0.02332  0.77022  0.47165  1.0000
  S   S196      1.0  0.16024  0.52326  0.00583  1.0000
  H   H893      1.0  0.99935  0.68748  0.42043  1.0000
  C   C762      1.0  0.04397  0.89844  0.38809  1.0000
  C   C763      1.0  0.07105  0.91780  0.47502  1.0000
  H   H894      1.0  0.08200  0.89142  0.37530  1.0000
  C   C764      1.0  0.15910  0.96858  0.37938  1.0000
  H   H895      1.0  0.06488  0.55424  0.11616  1.0000
  H   H896      1.0  0.02726  0.57852  0.32822  1.0000
  H   H897      1.0  0.08453  0.50993  0.01560  1.0000
  H   H898      1.0  0.04065  0.67123  0.41621  1.0000
  H   H899      1.0  0.05503  0.70420  0.39010  1.0000
  H   H900      1.0  0.13486  0.89719  0.44746  1.0000
  C   C765      1.0  0.08803  0.82336  0.45205  1.0000
  H   H901      1.0  0.11100  0.62726  0.42388  1.0000
  C   C766      1.0  0.00654  0.80799  0.42640  1.0000
  H   H902      1.0  0.08984  0.54820  0.11009  1.0000
  H   H903      1.0  0.09166  0.65294  0.43198  1.0000
  H   H904      1.0  0.08943  0.49575  0.08548  1.0000
  H   H905      1.0  0.08604  0.88198  0.46309  1.0000
  C   C767      1.0  0.99973  0.57389  0.26715  1.0000
  H   H906      1.0  0.09888  0.54360  0.12310  1.0000
  H   H907      1.0  0.08323  0.72539  0.44607  1.0000
  C   C768      1.0  0.10090  0.84226  0.45447  1.0000
  C   C769      1.0  0.05123  0.90709  0.38871  1.0000
  H   H908      1.0  0.01733  0.76611  0.48103  1.0000
  H   H909      1.0  0.00598  0.49677  0.26523  1.0000
  H   H910      1.0  0.05598  0.52433  0.26068  1.0000
  C   C770      1.0  0.00053  0.58902  0.33502  1.0000
  C   C771      1.0  0.98833  0.69563  0.39863  1.0000
  H   H911      1.0  0.18338  0.59601  0.99981  1.0000
  C   C772      1.0  0.13600  0.48730  0.04188  1.0000
  H   H912      1.0  0.11839  0.94753  0.38263  1.0000
  C   C773      1.0  0.10583  0.97418  0.46940  1.0000
  S   S197      1.0  0.18435  0.94198  0.40618  1.0000
  H   H913      1.0  0.01381  0.84740  0.47571  1.0000
  C   C774      1.0  0.06145  0.51427  0.26480  1.0000
  H   H914      1.0  0.01404  0.64746  0.43986  1.0000
  C   C775      1.0  0.03202  0.88532  0.37457  1.0000
  C   C776      1.0  0.11980  0.89727  0.46562  1.0000
  H   H915      1.0  0.09792  0.62582  0.46023  1.0000
  C   C777      1.0  0.01204  0.55262  0.41437  1.0000
  C   C778      1.0  0.03803  0.48719  0.23780  1.0000
  C   C779      1.0  0.06889  0.75944  0.45994  1.0000
  H   H916      1.0  0.00804  0.57527  0.27001  1.0000
  C   C780      1.0  0.99376  0.61707  0.37902  1.0000
  H   H917      1.0  0.02216  0.55371  0.41060  1.0000
  H   H918      1.0  0.99459  0.72260  0.45886  1.0000
  C   C781      1.0  0.02768  0.66013  0.45921  1.0000
  H   H919      1.0  0.02856  0.49008  0.12211  1.0000
  H   H920      1.0  0.99135  0.51799  0.26668  1.0000
  H   H921      1.0  0.00937  0.52056  0.16209  1.0000
  C   C782      1.0  0.04271  0.61686  0.47981  1.0000
  H   H922      1.0  0.18574  0.98170  0.38770  1.0000
  C   C783      1.0  0.00160  0.56365  0.41710  1.0000
  C   C784      1.0  0.06924  0.74742  0.45704  1.0000
  H   H923      1.0  0.11531  0.52964  0.99138  1.0000
  C   C785      1.0  0.00305  0.84941  0.48033  1.0000
  H   H924      1.0  0.02762  0.60788  0.47869  1.0000
  H   H925      1.0  0.11037  0.95362  0.47846  1.0000
  C   C786      1.0  0.15175  0.93774  0.46618  1.0000
  C   C787      1.0  0.00063  0.77775  0.44778  1.0000
  C   C788      1.0  0.09911  0.93598  0.47164  1.0000
  C   C789      1.0  0.08929  0.51849  0.01330  1.0000
  C   C790      1.0  0.99682  0.53792  0.42134  1.0000
  C   C791      1.0  0.06609  0.49487  0.32418  1.0000
  H   H926      1.0  0.10128  0.93640  0.48102  1.0000
  C   C792      1.0  0.98914  0.49908  0.28881  1.0000
  C   C793      1.0  0.00390  0.50957  0.15176  1.0000
  C   C794      1.0  0.13917  0.89998  0.47677  1.0000
  H   H927      1.0  0.01777  0.51511  0.19395  1.0000
  H   H928      1.0  0.00529  0.52173  0.18438  1.0000
  C   C795      1.0  0.18303  0.91714  0.40401  1.0000
  H   H929      1.0  0.99376  0.66199  0.40815  1.0000
  H   H930      1.0  0.07988  0.49771  0.27731  1.0000
  C   C796      1.0  0.99508  0.83488  0.40182  1.0000
  H   H931      1.0  0.01197  0.77721  0.42072  1.0000
  C   C797      1.0  0.17341  0.94781  0.37519  1.0000
  H   H932      1.0  0.00479  0.68642  0.37724  1.0000
  C   C798      1.0  0.03233  0.70717  0.47877  1.0000
  C   C799      1.0  0.06808  0.73656  0.48033  1.0000
  C   C800      1.0  0.99610  0.51856  0.27443  1.0000
  H   H933      1.0  0.07412  0.52051  0.99812  1.0000
  C   C801      1.0  0.99760  0.57128  0.37417  1.0000
  H   H934      1.0  0.18108  0.89999  0.43529  1.0000
  C   C802      1.0  0.99104  0.53621  0.23249  1.0000
  C   C803      1.0  0.01434  0.78655  0.42099  1.0000
  H   H935      1.0  0.06301  0.48591  0.14325  1.0000
  H   H936      1.0  0.01412  0.49539  0.34929  1.0000
  C   C804      1.0  0.01532  0.49039  0.23610  1.0000
  H   H937      1.0  0.13254  0.49501  0.04753  1.0000
  H   H938      1.0  0.01259  0.81188  0.41647  1.0000
  H   H939      1.0  0.16390  0.97895  0.43500  1.0000
  H   H940      1.0  0.11046  0.87131  0.44930  1.0000
  C   C805      1.0  0.06503  0.71259  0.47601  1.0000
  H   H941      1.0  0.99905  0.49645  0.14285  1.0000
  H   H942      1.0  0.18536  0.50125  0.02209  1.0000
  H   H943      1.0  0.00513  0.61107  0.31711  1.0000
  C   C806      1.0  0.00064  0.57375  0.25395  1.0000
  C   C807      1.0  0.08764  0.49075  0.04571  1.0000
  H   H944      1.0  0.99956  0.61504  0.33329  1.0000
  C   C808      1.0  0.18596  0.56180  0.00368  1.0000
  C   C809      1.0  0.00418  0.48643  0.16179  1.0000
  H   H945      1.0  0.12933  0.97604  0.44581  1.0000
  C   C810      1.0  0.02820  0.48523  0.11477  1.0000
  H   H946      1.0  0.18437  0.56885  0.99455  1.0000
  H   H947      1.0  0.03527  0.49561  0.35371  1.0000
  H   H948      1.0  0.18565  0.58912  0.02274  1.0000
  C   C811      1.0  0.00722  0.65752  0.47608  1.0000
  C   C812      1.0  0.98795  0.67241  0.40738  1.0000
  C   C813      1.0  0.14109  0.97938  0.46415  1.0000
  H   H949      1.0  0.18501  0.53443  0.99426  1.0000
  H   H950      1.0  0.15761  0.97805  0.38193  1.0000
  S   S198      1.0  0.14291  0.51711  0.98160  1.0000
  H   H951      1.0  0.01974  0.48460  0.31949  1.0000
  H   H952      1.0  0.06728  0.76948  0.47534  1.0000
  H   H953      1.0  0.00045  0.81123  0.47385  1.0000
  C   C814      1.0  0.98871  0.51555  0.35035  1.0000
  C   C815      1.0  0.99601  0.66188  0.44447  1.0000
  C   C816      1.0  0.99047  0.57323  0.33066  1.0000
  C   C817      1.0  0.10135  0.97998  0.44740  1.0000
  H   H954      1.0  0.09938  0.98179  0.40813  1.0000
  H   H955      1.0  0.00594  0.63135  0.47973  1.0000
  H   H956      1.0  0.98778  0.57164  0.28707  1.0000
  C   C818      1.0  0.98828  0.57191  0.27673  1.0000
  C   C819      1.0  0.05387  0.48376  0.31627  1.0000
  C   C820      1.0  0.05947  0.56114  0.88346  1.0000
  Fe  Fe97      1.0  0.06630  0.84783  0.52684  1.0000
  S   S199      1.0  0.04743  0.86125  0.52185  1.0000
  S   S200      1.0  0.08503  0.85414  0.52611  1.0000
  Fe  Fe98      1.0  0.05773  0.82258  0.52698  1.0000
  S   S201      1.0  0.03865  0.83419  0.52123  1.0000
  S   S202      1.0  0.06156  0.80011  0.53329  1.0000
  C   C821      1.0  0.07963  0.65716  0.56771  1.0000
  H   H957      1.0  0.99503  0.71320  0.57357  1.0000
  Fe  Fe99      1.0  0.03717  0.84561  0.53627  1.0000
  S   S203      1.0  0.01809  0.84986  0.55128  1.0000
  C   C822      1.0  0.00820  0.77015  0.54561  1.0000
  S   S204      1.0  0.05572  0.83330  0.54293  1.0000
  Fe  Fe100     1.0  0.11286  0.91570  0.52044  1.0000
  S   S205      1.0  0.11908  0.92641  0.49922  1.0000
  S   S206      1.0  0.09282  0.91013  0.52814  1.0000
  Fe  Fe101     1.0  0.13795  0.91666  0.52740  1.0000
  S   S207      1.0  0.14629  0.92699  0.50673  1.0000
  S   S208      1.0  0.14939  0.91289  0.54314  1.0000
  Fe  Fe102     1.0  0.12591  0.93972  0.50745  1.0000
  S   S209      1.0  0.12438  0.96147  0.49735  1.0000
  Fe  Fe103     1.0  0.13884  0.91282  0.50045  1.0000
  C   C823      1.0  0.99821  0.53137  0.59803  1.0000
  S   S210      1.0  0.11787  0.93039  0.52872  1.0000
  S   S211      1.0  0.13234  0.90112  0.52106  1.0000
  Fe  Fe104     1.0  0.03113  0.52995  0.84157  1.0000
  S   S212      1.0  0.05116  0.53507  0.83209  1.0000
  S   S213      1.0  0.01054  0.54153  0.84823  1.0000
  Fe  Fe105     1.0  0.04126  0.50111  0.84133  1.0000
  S   S214      1.0  0.06212  0.50301  0.83254  1.0000
  H   H958      1.0  0.18228  0.57207  0.87589  1.0000
  Fe  Fe106     1.0  0.05873  0.51647  0.84651  1.0000
  S   S215      1.0  0.07210  0.51158  0.86112  1.0000
  Fe  Fe107     1.0  0.05327  0.52122  0.81871  1.0000
  S   S216      1.0  0.06356  0.52170  0.79705  1.0000
  S   S217      1.0  0.03864  0.51244  0.85672  1.0000
  S   S218      1.0  0.03260  0.51835  0.82675  1.0000
  Fe  Fe108     1.0  0.11732  0.53804  0.88974  1.0000
  S   S219      1.0  0.11329  0.52888  0.91177  1.0000
  S   S220      1.0  0.10194  0.54643  0.87696  1.0000
  Fe  Fe109     1.0  0.14684  0.53483  0.88823  1.0000
  S   S221      1.0  0.14540  0.52514  0.90980  1.0000
  S   S222      1.0  0.16578  0.53793  0.87348  1.0000
  Fe  Fe110     1.0  0.13217  0.51414  0.90661  1.0000
  H   H959      1.0  0.10891  0.51727  0.67166  1.0000
  Fe  Fe111     1.0  0.12678  0.54073  0.91323  1.0000
  S   S223      1.0  0.12253  0.55151  0.92982  1.0000
  S   S224      1.0  0.13532  0.52233  0.88452  1.0000
  S   S225      1.0  0.12916  0.55145  0.89166  1.0000
  C   C824      1.0  0.01844  0.66562  0.51379  1.0000
  N   N58       1.0  0.00050  0.84850  0.49488  1.0000
  H   H960      1.0  0.00676  0.51057  0.76296  1.0000
  C   C825      1.0  0.07840  0.64250  0.55432  1.0000
  S   S226      1.0  0.04794  0.49557  0.73454  1.0000
  H   H961      1.0  0.03183  0.49486  0.62741  1.0000
  H   H962      1.0  0.02680  0.83681  0.49240  1.0000
  C   C826      1.0  0.04564  0.52724  0.65200  1.0000
  H   H963      1.0  0.01269  0.66473  0.54140  1.0000
  Fe  Fe112     1.0  0.06884  0.60639  0.52793  1.0000
  C   C827      1.0  0.04366  0.52659  0.67542  1.0000
  H   H964      1.0  0.05356  0.49481  0.68197  1.0000
  C   C828      1.0  0.09967  0.52348  0.96438  1.0000
  C   C829      1.0  0.12908  0.88945  0.56046  1.0000
  C   C830      1.0  0.04288  0.66416  0.53029  1.0000
  C   C831      1.0  0.05626  0.67765  0.51244  1.0000
  C   C832      1.0  0.09749  0.55833  0.53299  1.0000
  C   C833      1.0  1.00000  0.49434  0.74252  1.0000
  C   C834      1.0  0.07606  0.91068  0.49685  1.0000
  H   H965      1.0  0.01602  0.61885  0.53681  1.0000
  S   S227      1.0  0.05115  0.54433  0.60251  1.0000
  S   S228      1.0  0.08743  0.54969  0.58798  1.0000
  C   C835      1.0  0.10399  0.52111  0.97615  1.0000
  H   H966      1.0  0.00675  0.56236  0.57165  1.0000
  Fe  Fe113     1.0  0.04889  0.53188  0.58995  1.0000
  H   H967      1.0  0.08860  0.63664  0.57088  1.0000
  H   H968      1.0  0.09453  0.57132  0.51427  1.0000
  H   H969      1.0  0.99235  0.49308  0.82226  1.0000
  N   N59       1.0  0.07953  0.87972  0.48440  1.0000
  H   H970      1.0  0.01922  0.80750  0.48542  1.0000
  Fe  Fe114     1.0  0.01667  0.73673  0.53231  1.0000
  S   S229      1.0  0.00428  0.73459  0.55310  1.0000
  H   H971      1.0  0.09795  0.63415  0.53489  1.0000
  S   S230      1.0  0.03850  0.73581  0.52790  1.0000
  Fe  Fe115     1.0  0.04312  0.51739  0.73432  1.0000
  H   H972      1.0  0.10714  0.89712  0.48521  1.0000
  S   S231      1.0  0.03242  0.52387  0.75371  1.0000
  Fe  Fe116     1.0  0.05336  0.52517  0.70417  1.0000
  C   C836      1.0  0.08432  0.51616  0.67190  1.0000
  S   S232      1.0  0.05736  0.53925  0.68417  1.0000
  Fe  Fe117     1.0  0.04003  0.50196  0.71592  1.0000
  H   H973      1.0  0.03552  0.65810  0.49955  1.0000
  S   S233      1.0  0.03324  0.52343  0.71682  1.0000
  S   S234      1.0  0.06278  0.52120  0.72163  1.0000
  C   C837      1.0  0.05967  0.48556  0.64632  1.0000
  H   H974      1.0  0.98962  0.83271  0.53400  1.0000
  C   C838      1.0  0.01223  0.60282  0.53109  1.0000
  N   N60       1.0  0.99844  0.67633  0.52963  1.0000
  H   H975      1.0  0.07493  0.55361  0.89442  1.0000
  C   C839      1.0  0.99837  0.56770  0.57839  1.0000
  S   S235      1.0  0.05541  0.70381  0.51090  1.0000
  C   C840      1.0  0.06550  0.53829  0.89487  1.0000
  C   C841      1.0  0.12660  0.89899  0.48467  1.0000
  H   H976      1.0  0.01164  0.51898  0.81331  1.0000
  N   N61       1.0  0.17342  0.49350  0.88112  1.0000
  H   H977      1.0  0.08307  0.52650  0.95572  1.0000
  H   H978      1.0  0.08745  0.49423  0.69172  1.0000
  C   C842      1.0  0.00639  0.85840  0.49718  1.0000
  H   H979      1.0  0.11435  0.52025  0.97529  1.0000
  C   C843      1.0  0.17100  0.52968  0.95444  1.0000
  H   H980      1.0  0.99724  0.50754  0.62540  1.0000
  H   H981      1.0  0.99359  0.69780  0.52692  1.0000
  H   H982      1.0  0.05548  0.71594  0.48282  1.0000
  N   N62       1.0  0.17596  0.97452  0.52842  1.0000
  C   C844      1.0  0.00471  0.63484  0.48897  1.0000
  H   H983      1.0  0.16496  0.89874  0.52268  1.0000
  C   C845      1.0  0.00676  0.50033  0.62633  1.0000
  H   H984      1.0  0.18249  0.49265  0.95496  1.0000
  H   H985      1.0  0.02941  0.67436  0.54520  1.0000
  C   C846      1.0  0.05542  0.54170  0.54516  1.0000
  C   C847      1.0  0.04004  0.52298  0.66555  1.0000
  H   H986      1.0  0.18316  0.58601  0.89063  1.0000
  C   C848      1.0  0.99128  0.60723  0.52486  1.0000
  C   C849      1.0  0.09269  0.87216  0.48699  1.0000
  Fe  Fe118     1.0  0.03416  0.75250  0.51045  1.0000
  C   C850      1.0  0.09851  0.49229  0.81642  1.0000
  H   H987      1.0  0.99194  0.78602  0.54076  1.0000
  C   C851      1.0  0.08649  0.56279  0.57373  1.0000
  C   C852      1.0  0.07489  0.56834  0.56884  1.0000
  C   C853      1.0  0.07482  0.57869  0.55724  1.0000
  C   C854      1.0  0.08639  0.58330  0.55047  1.0000
  C   C855      1.0  0.09783  0.57783  0.55551  1.0000
  C   C856      1.0  0.09785  0.56774  0.56711  1.0000
  H   H988      1.0  0.06603  0.56467  0.57401  1.0000
  H   H989      1.0  0.06593  0.58291  0.55343  1.0000
  H   H990      1.0  0.10680  0.58132  0.55036  1.0000
  H   H991      1.0  0.10680  0.56354  0.57085  1.0000
  C   C857      1.0  0.05263  0.53485  0.67180  1.0000
  C   C858      1.0  0.05812  0.53928  0.65824  1.0000
  C   C859      1.0  0.05478  0.53533  0.64835  1.0000
  H   H992      1.0  0.98915  0.73526  0.53465  1.0000
  H   H993      1.0  0.08368  0.52281  0.67851  1.0000
  H   H994      1.0  0.06504  0.54571  0.65538  1.0000
  H   H995      1.0  0.05909  0.53874  0.63791  1.0000
  H   H996      1.0  0.15338  0.97147  0.52215  1.0000
  C   C860      1.0  0.01917  0.53800  0.58906  1.0000
  C   C861      1.0  0.01728  0.54311  0.60027  1.0000
  C   C862      1.0  0.17853  0.91067  0.48874  1.0000
  H   H997      1.0  0.02459  0.54769  0.60117  1.0000
  H   H998      1.0  0.99417  0.50088  0.83425  1.0000
  Fe  Fe119     1.0  0.04160  0.60579  0.52687  1.0000
  S   S236      1.0  0.04224  0.77098  0.50084  1.0000
  H   H999      1.0  0.00319  0.52005  0.71277  1.0000
  S   S237      1.0  0.01833  0.72161  0.52079  1.0000
  C   C863      1.0  0.18320  0.94181  0.51767  1.0000
  H   H1000     1.0  0.99844  0.52417  0.82641  1.0000
  C   C864      1.0  0.12832  0.54216  0.94421  1.0000
  C   C865      1.0  0.12651  0.54806  0.95493  1.0000
  C   C866      1.0  0.13112  0.54062  0.96647  1.0000
  C   C867      1.0  0.13764  0.52728  0.96722  1.0000
  C   C868      1.0  0.13955  0.52149  0.95646  1.0000
  C   C869      1.0  0.13481  0.52883  0.94506  1.0000
  H   H1001     1.0  0.12149  0.55840  0.95431  1.0000
  H   H1002     1.0  0.04359  0.49017  0.79723  1.0000
  H   H1003     1.0  0.14472  0.51128  0.95697  1.0000
  H   H1004     1.0  0.13610  0.52412  0.93699  1.0000
  H   H1005     1.0  0.01340  0.51727  0.69706  1.0000
  C   C870      1.0  0.07742  0.52331  0.97717  1.0000
  S   S238      1.0  0.03401  0.53799  0.57726  1.0000
  H   H1006     1.0  0.09952  0.62089  0.55806  1.0000
  N   N63       1.0  0.05673  0.55577  0.54066  1.0000
  S   S239      1.0  0.05941  0.50408  0.70230  1.0000
  H   H1007     1.0  0.09906  0.50250  0.81532  1.0000
  H   H1008     1.0  0.00440  0.54651  0.61890  1.0000
  S   S240      1.0  0.02854  0.49157  0.70924  1.0000
  H   H1009     1.0  0.17548  0.49459  0.93424  1.0000
  S   S241      1.0  0.08727  0.59567  0.53554  1.0000
  H   H1010     1.0  0.12129  0.50231  0.89413  1.0000
  N   N64       1.0  0.09601  0.50489  0.67236  1.0000
  C   C871      1.0  0.08082  0.52142  0.86473  1.0000
  C   C872      1.0  0.08848  0.51551  0.87441  1.0000
  C   C873      1.0  0.09534  0.52292  0.87794  1.0000
  C   C874      1.0  0.09446  0.53642  0.87195  1.0000
  C   C875      1.0  0.08684  0.54233  0.86222  1.0000
  C   C876      1.0  0.08012  0.53486  0.85855  1.0000
  H   H1011     1.0  0.08904  0.50514  0.87929  1.0000
  H   H1012     1.0  0.10106  0.51828  0.88551  1.0000
  H   H1013     1.0  0.08608  0.55277  0.85756  1.0000
  H   H1014     1.0  0.07440  0.53953  0.85098  1.0000
  C   C877      1.0  0.05471  0.52172  0.78538  1.0000
  C   C878      1.0  0.06172  0.51830  0.77316  1.0000
  C   C879      1.0  0.05501  0.51868  0.76347  1.0000
  C   C880      1.0  0.04123  0.52272  0.76583  1.0000
  C   C881      1.0  0.03422  0.52607  0.77808  1.0000
  C   C882      1.0  0.04091  0.52543  0.78788  1.0000
  H   H1015     1.0  0.07240  0.51552  0.77110  1.0000
  H   H1016     1.0  0.06052  0.51614  0.75406  1.0000
  H   H1017     1.0  0.02359  0.52939  0.77991  1.0000
  H   H1018     1.0  0.03541  0.52830  0.79713  1.0000
  C   C883      1.0  0.12531  0.97174  0.50720  1.0000
  H   H1019     1.0  0.11714  0.50201  0.66622  1.0000
  C   C884      1.0  0.00974  0.50698  0.79461  1.0000
  H   H1020     1.0  0.16990  0.55832  0.89106  1.0000
  C   C885      1.0  0.12443  0.97557  0.52877  1.0000
  C   C886      1.0  0.12395  0.96721  0.52100  1.0000
  H   H1021     1.0  0.99579  0.69439  0.50604  1.0000
  H   H1022     1.0  0.11360  0.87809  0.58307  1.0000
  H   H1023     1.0  0.12322  0.97202  0.53947  1.0000
  H   H1024     1.0  0.12236  0.95732  0.52574  1.0000
  H   H1025     1.0  0.01113  0.52819  0.57919  1.0000
  S   S242      1.0  0.06992  0.83590  0.51138  1.0000
  C   C887      1.0  0.00652  0.83487  0.50135  1.0000
  H   H1026     1.0  0.03933  0.52316  0.68584  1.0000
  H   H1027     1.0  0.00126  0.78284  0.48806  1.0000
  H   H1028     1.0  0.16985  0.93340  0.51272  1.0000
  H   H1029     1.0  0.17249  0.49878  0.86040  1.0000
  H   H1030     1.0  0.02354  0.79842  0.51661  1.0000
  H   H1031     1.0  0.12429  0.89935  0.49508  1.0000
  H   H1032     1.0  0.16812  0.48577  0.97693  1.0000
  C   C888      1.0  0.08675  0.86993  0.52650  1.0000
  C   C889      1.0  0.07609  0.87938  0.53160  1.0000
  C   C890      1.0  0.07809  0.89165  0.53209  1.0000
  C   C891      1.0  0.09070  0.89461  0.52736  1.0000
  C   C892      1.0  0.10130  0.88524  0.52208  1.0000
  C   C893      1.0  0.09933  0.87295  0.52172  1.0000
  H   H1033     1.0  0.06636  0.87717  0.53534  1.0000
  H   H1034     1.0  0.06983  0.89886  0.53615  1.0000
  H   H1035     1.0  0.11104  0.88738  0.51839  1.0000
  H   H1036     1.0  0.10764  0.86569  0.51777  1.0000
  C   C894      1.0  0.05719  0.79146  0.52399  1.0000
  C   C895      1.0  0.05350  0.77928  0.53025  1.0000
  C   C896      1.0  0.04897  0.77277  0.52326  1.0000
  C   C897      1.0  0.04856  0.77823  0.50985  1.0000
  C   C898      1.0  0.05293  0.79002  0.50343  1.0000
  C   C899      1.0  0.05710  0.79671  0.51051  1.0000
  H   H1037     1.0  0.05401  0.77492  0.54055  1.0000
  H   H1038     1.0  0.07010  0.86337  0.49497  1.0000
  H   H1039     1.0  0.13464  0.88007  0.56586  1.0000
  H   H1040     1.0  0.06025  0.80593  0.50556  1.0000
  H   H1041     1.0  0.09091  0.88426  0.56422  1.0000
  C   C900      1.0  0.18528  0.89871  0.52132  1.0000
  C   C901      1.0  0.00225  0.84052  0.54102  1.0000
  C   C902      1.0  0.00445  0.84346  0.55210  1.0000
  H   H1042     1.0  0.01597  0.51529  0.64526  1.0000
  H   H1043     1.0  0.03705  0.81459  0.50220  1.0000
  H   H1044     1.0  0.17493  0.52892  0.89870  1.0000
  H   H1045     1.0  0.00899  0.84235  0.53144  1.0000
  C   C903      1.0  0.18150  0.53253  0.87728  1.0000
  C   C904      1.0  0.05252  0.66541  0.51841  1.0000
  Fe  Fe120     1.0  0.01605  0.73922  0.50377  1.0000
  H   H1046     1.0  0.01442  0.63198  0.49187  1.0000
  C   C905      1.0  0.02449  0.71726  0.48527  1.0000
  C   C906      1.0  0.99945  0.53095  0.85181  1.0000
  C   C907      1.0  0.00421  0.51716  0.85382  1.0000
  H   H1047     1.0  0.02347  0.50228  0.77672  1.0000
  H   H1048     1.0  0.05284  0.55834  0.56084  1.0000
  S   S243      1.0  0.03755  0.73871  0.49702  1.0000
  H   H1049     1.0  0.01454  0.51291  0.85329  1.0000
  H   H1050     1.0  0.98833  0.82788  0.51203  1.0000
  C   C908      1.0  0.12726  0.49487  0.95124  1.0000
  C   C909      1.0  0.99738  0.62439  0.53098  1.0000
  H   H1051     1.0  0.06690  0.65288  0.53914  1.0000
  C   C910      1.0  0.00381  0.51073  0.77348  1.0000
  H   H1052     1.0  0.99888  0.54369  0.64325  1.0000
  C   C911      1.0  0.01415  0.49005  0.72150  1.0000
  C   C912      1.0  0.16837  0.50283  0.86958  1.0000
  H   H1053     1.0  0.17134  0.54351  0.97898  1.0000
  C   C913      1.0  0.16098  0.55438  0.91160  1.0000
  C   C914      1.0  0.01246  0.68627  0.49232  1.0000
  C   C915      1.0  0.16168  0.55361  0.92460  1.0000
  H   H1054     1.0  0.05915  0.87945  0.49374  1.0000
  H   H1055     1.0  0.03857  0.69874  0.48402  1.0000
  C   C916      1.0  0.99832  0.68868  0.53337  1.0000
  C   C917      1.0  0.02042  0.83039  0.49882  1.0000
  C   C918      1.0  0.00856  0.78783  0.48905  1.0000
  H   H1056     1.0  0.99214  0.77479  0.57558  1.0000
  H   H1057     1.0  0.00286  0.65526  0.53831  1.0000
  N   N65       1.0  0.99332  0.51362  0.81477  1.0000
  H   H1058     1.0  0.06973  0.93110  0.48735  1.0000
  C   C919      1.0  0.09381  0.49997  0.65150  1.0000
  H   H1059     1.0  0.17072  0.49220  0.90210  1.0000
  H   H1060     1.0  0.15237  0.55236  0.90986  1.0000
  C   C920      1.0  0.11245  0.87863  0.55835  1.0000
  C   C921      1.0  0.01167  0.49523  0.73280  1.0000
  H   H1061     1.0  0.06173  0.53575  0.53776  1.0000
  H   H1062     1.0  0.99817  0.62904  0.49714  1.0000
  C   C922      1.0  0.07859  0.54984  0.54725  1.0000
  H   H1063     1.0  0.99513  0.63438  0.53255  1.0000
  C   C923      1.0  0.09611  0.49882  0.68665  1.0000
  H   H1064     1.0  0.17074  0.96459  0.54901  1.0000
  C   C924      1.0  0.00770  0.53963  0.66007  1.0000
  S   S244      1.0  0.04920  0.61079  0.54180  1.0000
  H   H1065     1.0  0.98789  0.50886  0.71208  1.0000
  C   C925      1.0  0.00507  0.81250  0.51502  1.0000
  C   C926      1.0  0.17547  0.53785  0.97128  1.0000
  H   H1066     1.0  0.10754  0.55937  0.53142  1.0000
  H   H1067     1.0  0.06176  0.67466  0.54436  1.0000
  C   C927      1.0  0.00923  0.61566  0.53328  1.0000
  C   C928      1.0  0.00476  0.52422  0.70180  1.0000
  H   H1068     1.0  0.08466  0.61684  0.56984  1.0000
  C   C929      1.0  0.99025  0.71515  0.56538  1.0000
  H   H1069     1.0  0.09196  0.60897  0.55608  1.0000
  N   N66       1.0  0.08153  0.62941  0.55081  1.0000
  H   H1070     1.0  0.04987  0.57349  0.54847  1.0000
  H   H1071     1.0  0.00800  0.65106  0.50206  1.0000
  C   C930      1.0  0.18284  0.55990  0.91625  1.0000
  C   C931      1.0  0.00705  0.67592  0.51620  1.0000
  H   H1072     1.0  0.00273  0.79554  0.49484  1.0000
  H   H1073     1.0  0.07005  0.48562  0.85764  1.0000
  H   H1074     1.0  0.11159  0.90348  0.54480  1.0000
  H   H1075     1.0  0.10833  0.51563  0.65565  1.0000
  H   H1076     1.0  0.01414  0.53544  0.67800  1.0000
  H   H1077     1.0  0.07443  0.54437  0.55690  1.0000
  C   C932      1.0  0.18426  0.52342  0.95122  1.0000
  C   C933      1.0  0.99636  0.53648  0.60925  1.0000
  H   H1078     1.0  0.00131  0.86880  0.49340  1.0000
  S   S245      1.0  0.07429  0.51865  0.61224  1.0000
  C   C934      1.0  0.05042  0.56187  0.52903  1.0000
  C   C935      1.0  0.05011  0.68876  0.51810  1.0000
  H   H1079     1.0  0.15429  0.48998  0.93525  1.0000
  H   H1080     1.0  0.07296  0.70912  0.48175  1.0000
  Fe  Fe121     1.0  0.06690  0.49976  0.72081  1.0000
  C   C936      1.0  0.99555  0.84126  0.56439  1.0000
  S   S246      1.0  0.03872  0.64874  0.53870  1.0000
  N   N67       1.0  0.11485  0.88941  0.56287  1.0000
  H   H1081     1.0  0.06773  0.72813  0.48871  1.0000
  H   H1082     1.0  0.09736  0.54576  0.55258  1.0000
  C   C937      1.0  0.10828  0.90249  0.55576  1.0000
  H   H1083     1.0  0.01876  0.49988  0.73409  1.0000
  C   C938      1.0  0.07069  0.65373  0.54712  1.0000
  S   S247      1.0  0.07040  0.52529  0.58138  1.0000
  H   H1084     1.0  0.10507  0.85029  0.54689  1.0000
  S   S248      1.0  0.06144  0.59977  0.51381  1.0000
  H   H1085     1.0  0.12816  0.85212  0.54349  1.0000
  C   C939      1.0  0.09176  0.55066  0.54488  1.0000
  C   C940      1.0  0.17417  0.96362  0.52360  1.0000
  H   H1086     1.0  0.11334  0.48404  0.82810  1.0000
  H   H1087     1.0  0.15636  0.54189  0.96683  1.0000
  S   S249      1.0  0.01218  0.75444  0.51584  1.0000
  C   C941      1.0  0.08640  0.52457  0.96489  1.0000
  H   H1088     1.0  0.06697  0.74922  0.49328  1.0000
  H   H1089     1.0  0.07188  0.56968  0.51769  1.0000
  C   C942      1.0  0.17317  0.49036  0.95551  1.0000
  C   C943      1.0  0.99898  0.82549  0.50965  1.0000
  H   H1090     1.0  0.05015  0.57271  0.52567  1.0000
  H   H1091     1.0  0.08383  0.49822  0.80512  1.0000
  H   H1092     1.0  0.99810  0.49830  0.75128  1.0000
  H   H1093     1.0  0.07198  0.53057  0.90054  1.0000
  S   S250      1.0  0.04788  0.51386  0.60660  1.0000
  C   C944      1.0  0.17880  0.96922  0.54194  1.0000
  H   H1094     1.0  0.02968  0.49248  0.64492  1.0000
  H   H1095     1.0  0.02524  0.75618  0.55140  1.0000
  C   C945      1.0  0.00584  0.54245  0.61029  1.0000
  C   C946      1.0  0.00958  0.53228  0.58781  1.0000
  S   S251      1.0  0.13419  0.49255  0.91642  1.0000
  H   H1096     1.0  0.00561  0.58860  0.52524  1.0000
  C   C947      1.0  0.06908  0.62524  0.55250  1.0000
  H   H1097     1.0  0.11049  0.91093  0.55822  1.0000
  H   H1098     1.0  0.12961  0.54520  0.97474  1.0000
  H   H1099     1.0  0.99951  0.49801  0.85831  1.0000
  C   C948      1.0  0.17262  0.55631  0.92692  1.0000
  C   C949      1.0  0.18338  0.52888  0.89038  1.0000
  H   H1100     1.0  0.09562  0.50626  0.69233  1.0000
  C   C950      1.0  0.00323  0.59853  0.52701  1.0000
  C   C951      1.0  0.99560  0.50864  0.85667  1.0000
  C   C952      1.0  0.08277  0.64457  0.56478  1.0000
  H   H1101     1.0  0.99438  0.56013  0.58687  1.0000
  Fe  Fe122     1.0  0.05053  0.84862  0.50735  1.0000
  H   H1102     1.0  0.00490  0.76288  0.54281  1.0000
  C   C953      1.0  0.06265  0.48539  0.58416  1.0000
  Fe  Fe123     1.0  0.07277  0.53651  0.59505  1.0000
  H   H1103     1.0  0.07102  0.61506  0.55076  1.0000
  H   H1104     1.0  0.08278  0.63734  0.52961  1.0000
  C   C954      1.0  0.06765  0.66625  0.55008  1.0000
  H   H1105     1.0  0.01654  0.54307  0.65408  1.0000
  S   S252      1.0  0.06744  0.62738  0.51587  1.0000
  C   C955      1.0  0.02500  0.49190  0.63714  1.0000
  H   H1106     1.0  0.12521  0.50277  0.95685  1.0000
  C   C956      1.0  0.98847  0.62021  0.52667  1.0000
  H   H1107     1.0  0.11761  0.49334  0.95085  1.0000
  C   C957      1.0  0.98874  0.50426  0.65256  1.0000
  H   H1108     1.0  0.13386  0.89096  0.54964  1.0000
  H   H1109     1.0  0.99739  0.59300  0.56755  1.0000
  H   H1110     1.0  0.10526  0.49109  0.68797  1.0000
  S   S253      1.0  0.04689  0.85859  0.48694  1.0000
  C   C958      1.0  0.01324  0.50609  0.78125  1.0000
  H   H1111     1.0  0.16409  0.52886  0.94925  1.0000
  H   H1112     1.0  0.00577  0.85713  0.50803  1.0000
  H   H1113     1.0  0.06009  0.83097  0.49123  1.0000
  N   N68       1.0  0.01159  0.50070  0.63788  1.0000
  C   C959      1.0  0.00271  0.66493  0.54030  1.0000
  H   H1114     1.0  0.09177  0.62071  0.53376  1.0000
  C   C960      1.0  0.02371  0.67620  0.49037  1.0000
  H   H1115     1.0  0.08152  0.88991  0.50433  1.0000
  C   C961      1.0  0.02668  0.66588  0.50108  1.0000
  C   C962      1.0  0.16667  0.53701  0.96433  1.0000
  H   H1116     1.0  0.99709  0.84364  0.57295  1.0000
  C   C963      1.0  0.07210  0.66797  0.56036  1.0000
  C   C964      1.0  0.00095  0.78321  0.54440  1.0000
  Fe  Fe124     1.0  0.03979  0.72207  0.51486  1.0000
  C   C965      1.0  0.01879  0.80851  0.51247  1.0000
  N   N69       1.0  0.02107  0.79930  0.55684  1.0000
  C   C966      1.0  0.03309  0.79404  0.56249  1.0000
  C   C967      1.0  0.02405  0.80982  0.54480  1.0000
  C   C968      1.0  0.01040  0.80540  0.56695  1.0000
  C   C969      1.0  0.01676  0.78911  0.55319  1.0000
  S   S254      1.0  0.00689  0.74097  0.48684  1.0000
  C   C970      1.0  0.00512  0.79258  0.54813  1.0000
  C   C971      1.0  0.00496  0.48401  0.71989  1.0000
  C   C972      1.0  0.00077  0.52275  0.81601  1.0000
  C   C973      1.0  0.09933  0.87729  0.56002  1.0000
  H   H1117     1.0  0.04178  0.78995  0.55516  1.0000
  H   H1118     1.0  0.03604  0.80202  0.56504  1.0000
  H   H1119     1.0  0.03155  0.78620  0.57175  1.0000
  H   H1120     1.0  0.02720  0.81779  0.54715  1.0000
  H   H1121     1.0  0.01540  0.81474  0.54021  1.0000
  H   H1122     1.0  0.03217  0.80567  0.53702  1.0000
  H   H1123     1.0  0.00772  0.79779  0.57612  1.0000
  H   H1124     1.0  0.01335  0.81315  0.56988  1.0000
  H   H1125     1.0  0.00127  0.81050  0.56322  1.0000
  H   H1126     1.0  0.00360  0.52184  0.63559  1.0000
  H   H1127     1.0  0.99911  0.80260  0.54702  1.0000
  H   H1128     1.0  0.11133  0.89572  0.58125  1.0000
  H   H1129     1.0  0.06288  0.62521  0.56276  1.0000
  H   H1130     1.0  0.13310  0.86955  0.55032  1.0000
  N   N70       1.0  0.03774  0.54187  0.87753  1.0000
  C   C974      1.0  0.04162  0.54405  0.86279  1.0000
  C   C975      1.0  0.03608  0.52794  0.88286  1.0000
  C   C976      1.0  0.02465  0.55072  0.88126  1.0000
  C   C977      1.0  0.04781  0.54491  0.88250  1.0000
  C   C978      1.0  0.04991  0.55804  0.87905  1.0000
  C   C979      1.0  0.05604  0.53504  0.89044  1.0000
  C   C980      1.0  0.99715  0.50041  0.82353  1.0000
  H   H1131     1.0  0.00801  0.49640  0.82149  1.0000
  C   C981      1.0  0.03673  0.67528  0.53592  1.0000
  H   H1132     1.0  0.03420  0.54203  0.85863  1.0000
  H   H1133     1.0  0.04259  0.55443  0.85790  1.0000
  H   H1134     1.0  0.05133  0.53742  0.85961  1.0000
  H   H1135     1.0  0.04527  0.52070  0.87946  1.0000
  H   H1136     1.0  0.02812  0.52611  0.87932  1.0000
  H   H1137     1.0  0.03336  0.52554  0.89396  1.0000
  H   H1138     1.0  0.02454  0.56133  0.87635  1.0000
  H   H1139     1.0  0.01679  0.54823  0.87812  1.0000
  H   H1140     1.0  0.02168  0.54992  0.89224  1.0000
  H   H1141     1.0  0.04440  0.56597  0.87265  1.0000
  H   H1142     1.0  0.05569  0.52466  0.89305  1.0000
  C   C982      1.0  0.02641  0.81751  0.50439  1.0000
  S   S255      1.0  0.02743  0.59235  0.53306  1.0000
  S   S256      1.0  0.04085  0.52226  0.64005  1.0000
  H   H1143     1.0  0.99594  0.66554  0.55022  1.0000
  H   H1144     1.0  0.07699  0.91302  0.50574  1.0000
  H   H1145     1.0  0.03287  0.51685  0.66846  1.0000
  C   C983      1.0  0.00624  0.53505  0.67389  1.0000
  H   H1146     1.0  0.99268  0.68897  0.54378  1.0000
  H   H1147     1.0  0.08444  0.52271  0.66181  1.0000
  H   H1148     1.0  0.06391  0.67851  0.50340  1.0000
  H   H1149     1.0  0.02048  0.51755  0.62740  1.0000
  H   H1150     1.0  0.01381  0.50306  0.61669  1.0000
  C   C984      1.0  0.11995  0.49240  0.89896  1.0000
  H   H1151     1.0  0.99185  0.64755  0.50838  1.0000
  H   H1152     1.0  0.15111  0.95267  0.51536  1.0000
  H   H1153     1.0  0.07003  0.87399  0.50516  1.0000
  C   C985      1.0  0.99810  0.65316  0.49978  1.0000
  C   C986      1.0  0.17159  0.90195  0.52642  1.0000
  H   H1154     1.0  0.15363  0.55103  0.93284  1.0000
  H   H1155     1.0  0.09460  0.86159  0.48641  1.0000
  C   C987      1.0  0.99383  0.58779  0.56206  1.0000
  H   H1156     1.0  0.17100  0.51266  0.86737  1.0000
  C   C988      1.0  0.98912  0.51262  0.70108  1.0000
  H   H1157     1.0  0.03554  0.69606  0.53429  1.0000
  H   H1158     1.0  0.01025  0.69434  0.48398  1.0000
  H   H1159     1.0  0.01756  0.50382  0.80000  1.0000
  H   H1160     1.0  0.02472  0.71644  0.49547  1.0000
  C   C989      1.0  0.07700  0.56412  0.52554  1.0000
  C   C990      1.0  0.06721  0.55129  0.89140  1.0000
  H   H1161     1.0  0.00854  0.68955  0.53267  1.0000
  C   C991      1.0  0.99486  0.53033  0.68197  1.0000
  C   C992      1.0  0.00205  0.49694  0.65051  1.0000
  H   H1162     1.0  0.06710  0.52418  0.97750  1.0000
  C   C993      1.0  0.00565  0.48640  0.66126  1.0000
  C   C994      1.0  0.99072  0.51584  0.77919  1.0000
  H   H1163     1.0  0.06967  0.67771  0.56264  1.0000
  C   C995      1.0  0.99781  0.53992  0.65393  1.0000
  C   C996      1.0  0.01964  0.76639  0.55054  1.0000
  C   C997      1.0  0.12014  0.85909  0.54828  1.0000
  C   C998      1.0  0.16200  0.96348  0.52100  1.0000
  C   C999      1.0  0.17116  0.55795  0.90084  1.0000
  C   C1000     1.0  0.16655  0.90896  0.53663  1.0000
  S   S257      1.0  0.03734  0.62682  0.51503  1.0000
  C   C1001     1.0  0.17110  0.94188  0.51543  1.0000
  C   C1002     1.0  0.00427  0.68622  0.50502  1.0000
  H   H1164     1.0  0.99681  0.50507  0.69618  1.0000
  C   C1003     1.0  0.16055  0.95272  0.51701  1.0000
  Fe  Fe125     1.0  0.05788  0.62122  0.50310  1.0000
  H   H1165     1.0  0.02130  0.65731  0.52159  1.0000
  H   H1166     1.0  0.00747  0.53391  0.70014  1.0000
  H   H1167     1.0  0.99104  0.52655  0.59728  1.0000
  C   C1004     1.0  0.08881  0.63048  0.53668  1.0000
  Fe  Fe126     1.0  0.04709  0.63135  0.52869  1.0000
  H   H1168     1.0  0.04501  0.54086  0.54679  1.0000
  C   C1005     1.0  0.08979  0.61864  0.55911  1.0000
  H   H1169     1.0  0.03852  0.56263  0.55403  1.0000
  C   C1006     1.0  0.10812  0.51019  0.66620  1.0000
  H   H1170     1.0  0.05565  0.55701  0.52050  1.0000
  C   C1007     1.0  0.17526  0.91286  0.54158  1.0000
  H   H1171     1.0  0.05819  0.53680  0.55492  1.0000
  H   H1172     1.0  0.15745  0.50493  0.87128  1.0000
  C   C1008     1.0  0.09678  0.86709  0.55606  1.0000
  H   H1173     1.0  0.08668  0.86641  0.55717  1.0000
  H   H1174     1.0  0.08302  0.65855  0.57574  1.0000
  C   C1009     1.0  0.16510  0.48640  0.96789  1.0000
  C   C1010     1.0  0.04920  0.56286  0.55146  1.0000
  C   C1011     1.0  0.07080  0.55647  0.53764  1.0000
  Fe  Fe127     1.0  0.05234  0.52554  0.61856  1.0000
  H   H1175     1.0  0.17580  0.90084  0.49293  1.0000
  H   H1176     1.0  0.04153  0.61331  0.49051  1.0000
  H   H1177     1.0  0.09838  0.88920  0.57997  1.0000
  H   H1178     1.0  0.03295  0.77209  0.55790  1.0000
  H   H1179     1.0  0.00251  0.58430  0.55434  1.0000
  H   H1180     1.0  0.17313  0.55578  0.93704  1.0000
  H   H1181     1.0  0.01533  0.78053  0.49520  1.0000
  H   H1182     1.0  0.07498  0.51255  0.67520  1.0000
  H   H1183     1.0  0.99356  0.66388  0.49944  1.0000
  H   H1184     1.0  0.17957  0.91392  0.49730  1.0000
  C   C1012     1.0  0.99068  0.48859  0.74078  1.0000
  H   H1185     1.0  0.09369  0.87184  0.49713  1.0000
  H   H1186     1.0  0.17141  0.91828  0.54948  1.0000
  C   C1013     1.0  0.12283  0.86923  0.55226  1.0000
  C   C1014     1.0  0.07870  0.89743  0.49596  1.0000
  H   H1187     1.0  0.13058  0.89771  0.56387  1.0000
  C   C1015     1.0  0.10929  0.88804  0.57741  1.0000
  H   H1188     1.0  0.06118  0.57114  0.88044  1.0000
  C   C1016     1.0  0.04020  0.68759  0.52975  1.0000
  N   N71       1.0  0.99912  0.64940  0.48717  1.0000
  C   C1017     1.0  0.02393  0.77568  0.55429  1.0000
  H   H1189     1.0  0.12559  0.48558  0.97730  1.0000
  H   H1190     1.0  0.09734  0.90395  0.55807  1.0000
  C   C1018     1.0  0.07753  0.89390  0.48459  1.0000
  C   C1019     1.0  0.09556  0.49541  0.66484  1.0000
  C   C1020     1.0  0.10716  0.85798  0.55024  1.0000
  H   H1191     1.0  0.16943  0.50886  0.89196  1.0000
  C   C1021     1.0  0.09013  0.56505  0.52335  1.0000
  C   C1022     1.0  0.99322  0.72501  0.55398  1.0000
  H   H1192     1.0  0.99906  0.80548  0.52106  1.0000
  H   H1193     1.0  0.10659  0.52473  0.95478  1.0000
  H   H1194     1.0  0.15628  0.50060  0.89560  1.0000
  H   H1195     1.0  0.05281  0.79416  0.49299  1.0000
  Fe  Fe128     1.0  0.06969  0.50824  0.59913  1.0000
  H   H1196     1.0  0.03990  0.56108  0.53156  1.0000
  C   C1023     1.0  0.99657  0.51234  0.80072  1.0000
  N   N72       1.0  0.99284  0.52574  0.69668  1.0000
  H   H1197     1.0  0.09270  0.51037  0.64659  1.0000
  H   H1198     1.0  0.04261  0.49564  0.81832  1.0000
  H   H1199     1.0  0.06297  0.63192  0.54543  1.0000
  H   H1200     1.0  0.05728  0.65693  0.51394  1.0000
  H   H1201     1.0  0.99842  0.53272  0.80933  1.0000
  C   C1024     1.0  0.01297  0.51440  0.63647  1.0000
  H   H1202     1.0  0.06610  0.49254  0.80259  1.0000
  C   C1025     1.0  0.18472  0.95242  0.52182  1.0000
  H   H1203     1.0  0.04583  0.76354  0.52822  1.0000
  H   H1204     1.0  0.13205  0.49887  0.94080  1.0000
  C   C1026     1.0  0.06927  0.87392  0.49502  1.0000
  C   C1027     1.0  0.16720  0.49902  0.89322  1.0000
  H   H1205     1.0  0.03743  0.49561  0.66342  1.0000
  H   H1206     1.0  0.00255  0.57334  0.58287  1.0000
  C   C1028     1.0  0.07206  0.92085  0.48647  1.0000
  H   H1207     1.0  0.16998  0.91771  0.48493  1.0000
  C   C1029     1.0  0.14855  0.48472  0.95704  1.0000
  C   C1030     1.0  0.16918  0.49148  0.94387  1.0000
  C   C1031     1.0  0.15706  0.48873  0.94457  1.0000
  H   H1208     1.0  0.17996  0.97716  0.54608  1.0000
  H   H1209     1.0  0.00526  0.49028  0.62716  1.0000
  C   C1032     1.0  0.99126  0.83515  0.54242  1.0000
  C   C1033     1.0  0.08974  0.48966  0.81056  1.0000
  C   C1034     1.0  0.18242  0.56090  0.90285  1.0000
  H   H1210     1.0  0.01696  0.85769  0.49200  1.0000
  H   H1211     1.0  0.08003  0.48978  0.78887  1.0000
  H   H1212     1.0  0.05911  0.49952  0.66426  1.0000
  H   H1213     1.0  0.05456  0.49582  0.64586  1.0000
  H   H1214     1.0  0.05969  0.49611  0.58250  1.0000
  H   H1215     1.0  0.09244  0.49484  0.63389  1.0000
  H   H1216     1.0  0.11030  0.49130  0.88434  1.0000
  H   H1217     1.0  0.14869  0.48833  0.88637  1.0000
  H   H1218     1.0  0.15545  0.98255  0.53666  1.0000
  C   C1035     1.0  0.03807  0.48783  0.81859  1.0000
  C   C1036     1.0  0.05541  0.83331  0.48293  1.0000
  H   H1219     1.0  0.06949  0.48665  0.67387  1.0000
  C   C1037     1.0  0.06774  0.74864  0.48312  1.0000
  C   C1038     1.0  0.05908  0.49088  0.67290  1.0000
  H   H1220     1.0  0.06564  0.48909  0.62492  1.0000
  C   C1039     1.0  0.09372  0.49115  0.64410  1.0000
  C   C1040     1.0  0.12477  0.48561  0.91044  1.0000
  C   C1041     1.0  0.11361  0.48620  0.89348  1.0000
  H   H1221     1.0  0.03336  0.48930  0.68096  1.0000
  S   S258      1.0  0.15058  0.90352  0.48331  1.0000
  C   C1042     1.0  0.98703  0.72751  0.54341  1.0000
  S   S259      1.0  0.07922  0.48675  0.59905  1.0000
  C   C1043     1.0  0.03885  0.48458  0.80658  1.0000
  C   C1044     1.0  0.03895  0.48645  0.67132  1.0000
  H   H1222     1.0  0.08661  0.48583  0.85703  1.0000
  C   C1045     1.0  0.07275  0.48494  0.79703  1.0000
  S   S260      1.0  0.08641  0.48543  0.72114  1.0000
  H   H1223     1.0  0.18320  0.59416  0.97945  1.0000
  N   N73       1.0  0.98816  0.57646  0.57105  1.0000
  H   H1224     1.0  0.03318  0.79406  0.48228  1.0000
  C   C1046     1.0  0.98707  0.51662  0.79263  1.0000
  H   H1225     1.0  0.18650  0.61019  0.97812  1.0000
  H   H1226     1.0  0.04998  0.48380  0.57250  1.0000
  Fe  Fe129     1.0  0.34783  0.03371  0.43947  1.0000
  S   S261      1.0  0.32618  0.03521  0.44204  1.0000
  S   S262      1.0  0.35521  0.02616  0.45861  1.0000
  Fe  Fe130     1.0  0.35357  0.03533  0.40942  1.0000
  S   S263      1.0  0.33230  0.03663  0.41001  1.0000
  H   H1227     1.0  0.38609  0.37371  0.00984  1.0000
  Fe  Fe131     1.0  0.32758  0.05084  0.42319  1.0000
  S   S264      1.0  0.31147  0.06920  0.41987  1.0000
  H   H1228     1.0  0.36237  0.43128  0.99065  1.0000
  H   H1229     1.0  0.29384  0.98889  0.45989  1.0000
  S   S265      1.0  0.34891  0.05090  0.42150  1.0000
  H   H1230     1.0  0.20949  0.00490  0.41942  1.0000
  Fe  Fe132     1.0  0.35832  0.45403  0.02791  1.0000
  S   S266      1.0  0.34356  0.46636  0.01571  1.0000
  S   S267      1.0  0.37067  0.46020  0.03783  1.0000
  Fe  Fe133     1.0  0.35615  0.42784  0.02419  1.0000
  Fe  Fe134     1.0  0.35359  0.45241  0.00200  1.0000
  C   C1047     1.0  0.19524  0.04538  0.47454  1.0000
  H   H1231     1.0  0.37306  0.40412  0.06800  1.0000
  H   H1232     1.0  0.21172  0.09312  0.41071  1.0000
  Fe  Fe135     1.0  0.33177  0.45074  0.02664  1.0000
  S   S268      1.0  0.30969  0.45817  0.03180  1.0000
  S   S269      1.0  0.36965  0.44165  0.01291  1.0000
  S   S270      1.0  0.34576  0.43947  0.04014  1.0000
  Fe  Fe136     1.0  0.26036  0.42216  0.02691  1.0000
  S   S271      1.0  0.27042  0.42277  0.00558  1.0000
  S   S272      1.0  0.27536  0.41619  0.03972  1.0000
  Fe  Fe137     1.0  0.23297  0.43197  0.02042  1.0000
  S   S273      1.0  0.24133  0.43413  0.99840  1.0000
  S   S274      1.0  0.21075  0.43851  0.02798  1.0000
  Fe  Fe138     1.0  0.33267  0.02092  0.42866  1.0000
  Fe  Fe139     1.0  0.25668  0.44245  0.00159  1.0000
  C   C1048     1.0  0.26998  0.00858  0.47310  1.0000
  S   S275      1.0  0.24534  0.41142  0.02632  1.0000
  S   S276      1.0  0.24724  0.44248  0.02305  1.0000
  S   S277      1.0  0.26499  0.02655  0.41566  1.0000
  S   S278      1.0  0.23552  0.04208  0.40912  1.0000
  H   H1233     1.0  0.34733  0.05826  0.39243  1.0000
  Fe  Fe140     1.0  0.25387  0.01853  0.43602  1.0000
  S   S279      1.0  0.24001  0.03773  0.43929  1.0000
  C   C1049     1.0  0.27285  0.01608  0.48021  1.0000
  Fe  Fe141     1.0  0.22670  0.03222  0.42992  1.0000
  S   S280      1.0  0.20498  0.03350  0.43937  1.0000
  Fe  Fe142     1.0  0.25029  0.04556  0.41836  1.0000
  S   S281      1.0  0.25564  0.06535  0.41409  1.0000
  S   S282      1.0  0.34074  0.43769  0.01198  1.0000
  C   C1050     1.0  0.36150  0.05462  0.47319  1.0000
  C   C1051     1.0  0.26882  0.02751  0.45448  1.0000
  C   C1052     1.0  0.26790  0.01426  0.46028  1.0000
  H   H1234     1.0  0.19191  0.46320  0.02770  1.0000
  H   H1235     1.0  0.26742  0.03190  0.44443  1.0000
  C   C1053     1.0  0.32187  0.47985  0.98894  1.0000
  C   C1054     1.0  0.19854  0.03721  0.41521  1.0000
  C   C1055     1.0  0.19442  0.03418  0.42910  1.0000
  C   C1056     1.0  0.38060  0.39832  0.02604  1.0000
  H   H1236     1.0  0.20855  0.03831  0.41063  1.0000
  C   C1057     1.0  0.19162  0.07296  0.43192  1.0000
  H   H1237     1.0  0.20615  0.05051  0.45448  1.0000
  C   C1058     1.0  0.29774  0.98780  0.46852  1.0000
  H   H1238     1.0  0.21166  0.02868  0.37828  1.0000
  H   H1239     1.0  0.21425  0.07439  0.40169  1.0000
  H   H1240     1.0  0.19311  0.38100  0.98940  1.0000
  C   C1059     1.0  0.30046  0.44640  0.03343  1.0000
  C   C1060     1.0  0.30594  0.43276  0.03641  1.0000
  C   C1061     1.0  0.29817  0.42354  0.03836  1.0000
  C   C1062     1.0  0.28503  0.42791  0.03689  1.0000
  C   C1063     1.0  0.27974  0.44157  0.03341  1.0000
  C   C1064     1.0  0.28736  0.45078  0.03190  1.0000
  H   H1241     1.0  0.31603  0.42928  0.03766  1.0000
  H   H1242     1.0  0.30231  0.41300  0.04108  1.0000
  H   H1243     1.0  0.26960  0.44503  0.03236  1.0000
  H   H1244     1.0  0.28302  0.46131  0.02966  1.0000
  H   H1245     1.0  0.22617  0.01829  0.40724  1.0000
  H   H1246     1.0  0.35705  0.05391  0.45491  1.0000
  Fe  Fe143     1.0  0.25444  0.41416  0.00437  1.0000
  H   H1247     1.0  0.30024  0.41803  0.99030  1.0000
  H   H1248     1.0  0.35013  0.98477  0.37059  1.0000
  H   H1249     1.0  0.34234  0.39078  0.01967  1.0000
  C   C1065     1.0  0.29608  0.06739  0.41866  1.0000
  C   C1066     1.0  0.29296  0.05493  0.42130  1.0000
  C   C1067     1.0  0.28056  0.05408  0.42001  1.0000
  C   C1068     1.0  0.27130  0.06568  0.41604  1.0000
  C   C1069     1.0  0.27451  0.07804  0.41347  1.0000
  C   C1070     1.0  0.28677  0.07889  0.41481  1.0000
  H   H1250     1.0  0.30007  0.04597  0.42431  1.0000
  H   H1251     1.0  0.27823  0.04446  0.42205  1.0000
  H   H1252     1.0  0.26746  0.08704  0.41042  1.0000
  H   H1253     1.0  0.28906  0.08854  0.41279  1.0000
  H   H1254     1.0  0.21522  0.99077  0.44398  1.0000
  H   H1255     1.0  0.35808  0.41298  0.98391  1.0000
  H   H1256     1.0  0.21595  0.07194  0.43592  1.0000
  H   H1257     1.0  0.29978  0.05144  0.39414  1.0000
  H   H1258     1.0  0.36627  0.38715  0.01332  1.0000
  H   H1259     1.0  0.29033  0.06340  0.46463  1.0000
  C   C1071     1.0  0.19661  0.00220  0.38804  1.0000
  H   H1260     1.0  0.24222  0.04884  0.46883  1.0000
  H   H1261     1.0  0.34747  0.98534  0.43545  1.0000
  C   C1072     1.0  0.19835  0.01530  0.38594  1.0000
  H   H1262     1.0  0.33428  0.00203  0.38730  1.0000
  N   N74       1.0  0.31635  0.00661  0.47954  1.0000
  H   H1263     1.0  0.36494  0.41583  0.05545  1.0000
  H   H1264     1.0  0.36228  0.99081  0.38189  1.0000
  C   C1073     1.0  0.30920  0.99658  0.47986  1.0000
  H   H1265     1.0  0.22811  0.98897  0.37250  1.0000
  N   N75       1.0  0.30765  0.43540  0.98805  1.0000
  H   H1266     1.0  0.21304  0.00743  0.45635  1.0000
  C   C1074     1.0  0.35878  0.04834  0.46462  1.0000
  H   H1267     1.0  0.26924  0.99838  0.47767  1.0000
  H   H1268     1.0  0.27207  0.04540  0.45735  1.0000
  C   C1075     1.0  0.20513  0.07212  0.40905  1.0000
  C   C1076     1.0  0.29937  0.43745  0.00130  1.0000
  C   C1077     1.0  0.20434  0.42190  0.01635  1.0000
  C   C1078     1.0  0.21088  0.46905  0.00652  1.0000
  H   H1269     1.0  0.21470  0.41717  0.01476  1.0000
  C   C1079     1.0  0.35850  0.03482  0.46864  1.0000
  C   C1080     1.0  0.21048  0.01871  0.37937  1.0000
  H   H1270     1.0  0.29899  0.42787  0.00877  1.0000
  H   H1271     1.0  0.28095  0.99880  0.38610  1.0000
  C   C1081     1.0  0.18927  0.48296  0.00635  1.0000
  C   C1082     1.0  0.22116  0.00925  0.37449  1.0000
  C   C1083     1.0  0.21557  0.06873  0.42707  1.0000
  C   C1084     1.0  0.22656  0.01571  0.47015  1.0000
  H   H1272     1.0  0.20700  0.46066  0.00600  1.0000
  H   H1273     1.0  0.21520  0.47375  0.99611  1.0000
  H   H1274     1.0  0.29312  0.46154  0.98878  1.0000
  H   H1275     1.0  0.24692  0.98464  0.42488  1.0000
  H   H1276     1.0  0.23066  0.01183  0.36975  1.0000
  C   C1085     1.0  0.23967  0.00271  0.39812  1.0000
  C   C1086     1.0  0.32291  0.98767  0.39960  1.0000
  C   C1087     1.0  0.21971  0.99639  0.37606  1.0000
  H   H1277     1.0  0.36876  0.99822  0.45968  1.0000
  H   H1278     1.0  0.38380  0.98659  0.27015  1.0000
  H   H1279     1.0  0.22485  0.07028  0.41953  1.0000
  C   C1088     1.0  0.36352  0.99018  0.46386  1.0000
  H   H1280     1.0  0.34694  0.07572  0.38713  1.0000
  C   C1089     1.0  0.34028  0.38809  0.00122  1.0000
  C   C1090     1.0  0.30155  0.42755  0.98304  1.0000
  C   C1091     1.0  0.28952  0.99095  0.38277  1.0000
  N   N76       1.0  0.33817  0.06811  0.37583  1.0000
  H   H1281     1.0  0.23268  0.41022  0.99980  1.0000
  C   C1092     1.0  0.32908  0.99818  0.39726  1.0000
  C   C1093     1.0  0.35085  0.06597  0.36582  1.0000
  S   S283      1.0  0.23967  0.01213  0.42897  1.0000
  S   S284      1.0  0.25271  0.01098  0.39264  1.0000
  S   S285      1.0  0.26361  0.00474  0.45199  1.0000
  H   H1282     1.0  0.36174  0.06506  0.47009  1.0000
  H   H1283     1.0  0.33351  0.02630  0.37453  1.0000
  C   C1094     1.0  0.32908  0.00328  0.40799  1.0000
  H   H1284     1.0  0.31240  0.06827  0.38985  1.0000
  H   H1285     1.0  0.27363  0.48118  0.98984  1.0000
  H   H1286     1.0  0.35791  0.98421  0.35353  1.0000
  H   H1287     1.0  0.19393  0.09627  0.41503  1.0000
  C   C1095     1.0  0.27331  0.02943  0.47479  1.0000
  C   C1096     1.0  0.18959  0.03923  0.40715  1.0000
  H   H1288     1.0  0.32174  0.08494  0.37858  1.0000
  H   H1289     1.0  0.30388  0.02293  0.46845  1.0000
  S   S286      1.0  0.26802  0.45741  0.98791  1.0000
  C   C1097     1.0  0.36122  0.38645  0.00624  1.0000
  H   H1290     1.0  0.19665  0.07748  0.40422  1.0000
  H   H1291     1.0  0.34651  0.04282  0.36957  1.0000
  H   H1292     1.0  0.33426  0.01106  0.40624  1.0000
  S   S287      1.0  0.25974  0.39946  0.99133  1.0000
  C   C1098     1.0  0.25895  0.47378  0.98571  1.0000
  H   H1293     1.0  0.35801  0.05690  0.36957  1.0000
  H   H1294     1.0  0.29474  0.99492  0.37245  1.0000
  C   C1099     1.0  0.22687  0.06817  0.48091  1.0000
  C   C1100     1.0  0.33033  0.08149  0.37081  1.0000
  C   C1101     1.0  0.34745  0.38859  0.00997  1.0000
  C   C1102     1.0  0.21895  0.98784  0.45305  1.0000
  N   N77       1.0  0.22155  0.00411  0.47936  1.0000
  H   H1295     1.0  0.19985  0.39236  0.99376  1.0000
  C   C1103     1.0  0.22783  0.00828  0.40599  1.0000
  C   C1104     1.0  0.32270  0.99799  0.42096  1.0000
  H   H1296     1.0  0.21893  0.46429  0.01208  1.0000
  H   H1297     1.0  0.34924  0.06508  0.35631  1.0000
  C   C1105     1.0  0.21836  0.00072  0.41284  1.0000
  C   C1106     1.0  0.31633  0.98766  0.42321  1.0000
  H   H1298     1.0  0.32656  0.08152  0.36213  1.0000
  C   C1107     1.0  0.36032  0.98560  0.47765  1.0000
  H   H1299     1.0  0.35603  0.07424  0.36345  1.0000
  C   C1108     1.0  0.20765  0.99283  0.38276  1.0000
  C   C1109     1.0  0.19972  0.43241  0.02290  1.0000
  H   H1300     1.0  0.19034  0.02295  0.38957  1.0000
  C   C1110     1.0  0.19568  0.47194  0.02728  1.0000
  S   S288      1.0  0.32298  0.00368  0.43463  1.0000
  C   C1111     1.0  0.31175  0.47395  0.99767  1.0000
  C   C1112     1.0  0.37347  0.47846  0.04929  1.0000
  C   C1113     1.0  0.26204  0.99437  0.35953  1.0000
  S   S289      1.0  0.35420  0.01819  0.42716  1.0000
  N   N78       1.0  0.20358  0.07598  0.42179  1.0000
  H   H1301     1.0  0.38210  0.40290  0.98150  1.0000
  H   H1302     1.0  0.22042  0.02121  0.46271  1.0000
  C   C1114     1.0  0.32791  0.00656  0.46813  1.0000
  H   H1303     1.0  0.31016  0.03030  0.38679  1.0000
  S   S290      1.0  0.36351  0.40550  0.02945  1.0000
  Fe  Fe144     1.0  0.24931  0.02214  0.40859  1.0000
  S   S291      1.0  0.36636  0.03378  0.38885  1.0000
  H   H1304     1.0  0.37672  0.43212  0.03872  1.0000
  H   H1305     1.0  0.37785  0.37873  0.03688  1.0000
  H   H1306     1.0  0.20313  0.09400  0.42739  1.0000
  H   H1307     1.0  0.32959  0.38981  0.00410  1.0000
  H   H1308     1.0  0.19926  0.40898  0.00732  1.0000
  C   C1115     1.0  0.19553  0.41723  0.01224  1.0000
  C   C1116     1.0  0.34127  0.06807  0.38846  1.0000
  H   H1309     1.0  0.33627  0.08925  0.36761  1.0000
  N   N79       1.0  0.20037  0.47880  0.01332  1.0000
  H   H1310     1.0  0.18744  0.47849  0.03293  1.0000
  N   N80       1.0  0.38286  0.38204  0.98975  1.0000
  H   H1311     1.0  0.30633  0.47777  0.04978  1.0000
  H   H1312     1.0  0.37675  0.29230  0.01020  1.0000
  C   C1117     1.0  0.21790  0.99735  0.46016  1.0000
  H   H1313     1.0  0.30324  0.44363  0.00544  1.0000
  C   C1118     1.0  0.33055  0.05778  0.37841  1.0000
  C   C1119     1.0  0.31574  0.03795  0.38431  1.0000
  C   C1120     1.0  0.32306  0.05549  0.46433  1.0000
  C   C1121     1.0  0.32889  0.03573  0.37740  1.0000
  C   C1122     1.0  0.30750  0.02000  0.47784  1.0000
  H   H1314     1.0  0.33218  0.07001  0.39634  1.0000
  C   C1123     1.0  0.27158  0.03511  0.46174  1.0000
  C   C1124     1.0  0.30991  0.04986  0.38844  1.0000
  H   H1315     1.0  0.38197  0.43691  0.06278  1.0000
  H   H1316     1.0  0.31388  0.46344  0.00231  1.0000
  C   C1125     1.0  0.31721  0.05958  0.38572  1.0000
  C   C1126     1.0  0.33625  0.04542  0.37451  1.0000
  C   C1127     1.0  0.37848  0.00036  0.37384  1.0000
  C   C1128     1.0  0.29895  0.48152  0.00051  1.0000
  C   C1129     1.0  0.23973  0.04602  0.47991  1.0000
  C   C1130     1.0  0.37164  0.99071  0.37476  1.0000
  H   H1317     1.0  0.33257  0.05507  0.45735  1.0000
  H   H1318     1.0  0.19277  0.04202  0.39642  1.0000
  H   H1319     1.0  0.20604  0.06124  0.41068  1.0000
  C   C1131     1.0  0.24695  0.47710  0.98176  1.0000
  C   C1132     1.0  0.38158  0.03875  0.38194  1.0000
  H   H1320     1.0  0.36677  0.43484  0.06134  1.0000
  H   H1321     1.0  0.22661  0.02311  0.47560  1.0000
  C   C1133     1.0  0.20305  0.09046  0.41862  1.0000
  H   H1322     1.0  0.29643  0.98921  0.38940  1.0000
  H   H1323     1.0  0.18888  0.99708  0.41411  1.0000
  C   C1134     1.0  0.22286  0.99388  0.47194  1.0000
  H   H1324     1.0  0.28888  0.44214  0.00090  1.0000
  C   C1135     1.0  0.29930  0.06022  0.46841  1.0000
  C   C1136     1.0  0.36829  0.38379  0.99358  1.0000
  H   H1325     1.0  0.19524  0.08054  0.44719  1.0000
  H   H1326     1.0  0.22865  0.07114  0.46984  1.0000
  H   H1327     1.0  0.21600  0.05785  0.43001  1.0000
  C   C1137     1.0  0.31151  0.05984  0.45951  1.0000
  C   C1138     1.0  0.36692  0.47625  0.04082  1.0000
  H   H1328     1.0  0.31202  0.06286  0.44884  1.0000
  H   H1329     1.0  0.25049  0.98565  0.38985  1.0000
  H   H1330     1.0  0.22393  0.05564  0.46075  1.0000
  C   C1139     1.0  0.22472  0.41683  0.98218  1.0000
  H   H1331     1.0  0.29124  0.48117  0.04502  1.0000
  C   C1140     1.0  0.20583  0.04953  0.46490  1.0000
  C   C1141     1.0  0.35985  0.98466  0.45542  1.0000
  H   H1332     1.0  0.29114  0.47689  0.00732  1.0000
  H   H1333     1.0  0.32662  0.43366  0.99203  1.0000
  C   C1142     1.0  0.23445  0.41011  0.98940  1.0000
  H   H1334     1.0  0.27282  0.00216  0.36808  1.0000
  C   C1143     1.0  0.24150  0.98995  0.39609  1.0000
  C   C1144     1.0  0.21598  0.05236  0.46862  1.0000
  H   H1335     1.0  0.32017  0.41886  0.99889  1.0000
  C   C1145     1.0  0.22062  0.98765  0.41156  1.0000
  H   H1336     1.0  0.33378  0.01373  0.46771  1.0000
  H   H1337     1.0  0.38263  0.28501  0.99579  1.0000
  H   H1338     1.0  0.32504  0.00929  0.45840  1.0000
  H   H1339     1.0  0.37443  0.00752  0.38019  1.0000
  H   H1340     1.0  0.38034  0.47033  0.05404  1.0000
  C   C1146     1.0  0.27086  0.99306  0.36747  1.0000
  H   H1341     1.0  0.38196  0.04583  0.39873  1.0000
  H   H1342     1.0  0.37880  0.40333  0.05076  1.0000
  H   H1343     1.0  0.38260  0.39779  0.99879  1.0000
  C   C1147     1.0  0.37476  0.41025  0.05765  1.0000
  H   H1344     1.0  0.21542  0.42230  0.98702  1.0000
  H   H1345     1.0  0.20379  0.46825  0.03281  1.0000
  C   C1148     1.0  0.32247  0.05160  0.47807  1.0000
  C   C1149     1.0  0.34687  0.38555  0.98870  1.0000
  C   C1150     1.0  0.30423  0.99729  0.46867  1.0000
  N   N81       1.0  0.38358  0.41928  0.05596  1.0000
  C   C1151     1.0  0.32088  0.42746  0.99021  1.0000
  C   C1152     1.0  0.19192  0.39164  0.98939  1.0000
  H   H1346     1.0  0.36255  0.98884  0.44486  1.0000
  H   H1347     1.0  0.23685  0.01252  0.46458  1.0000
  H   H1348     1.0  0.25777  0.00416  0.35428  1.0000
  C   C1153     1.0  0.36100  0.02766  0.48114  1.0000
  H   H1349     1.0  0.37555  0.47675  0.98404  1.0000
  C   C1154     1.0  0.37630  0.42922  0.06423  1.0000
  H   H1350     1.0  0.33455  0.99658  0.46884  1.0000
  H   H1351     1.0  0.22623  0.48339  0.00606  1.0000
  H   H1352     1.0  0.37043  0.48029  0.00506  1.0000
  H   H1353     1.0  0.30514  0.00535  0.45997  1.0000
  C   C1155     1.0  0.24683  0.40391  0.98306  1.0000
  C   C1156     1.0  0.38610  0.42663  0.04186  1.0000
  H   H1354     1.0  0.38403  0.03281  0.36360  1.0000
  H   H1355     1.0  0.20133  0.01324  0.47777  1.0000
  H   H1356     1.0  0.33159  0.47352  0.98706  1.0000
  C   C1157     1.0  0.36066  0.38346  0.98484  1.0000
  H   H1357     1.0  0.38265  0.30207  0.99410  1.0000
  C   C1158     1.0  0.38439  0.29201  0.00074  1.0000
  H   H1358     1.0  0.37389  0.42441  0.07501  1.0000
  H   H1359     1.0  0.31258  0.02785  0.47740  1.0000
  C   C1159     1.0  0.38638  0.39463  0.98912  1.0000
  C   C1160     1.0  0.38498  0.38471  0.03118  1.0000
  C   C1161     1.0  0.18881  0.07598  0.44468  1.0000
  H   H1360     1.0  0.33182  0.04840  0.48107  1.0000
  H   H1361     1.0  0.18740  0.04318  0.47157  1.0000
  H   H1362     1.0  0.25171  0.98426  0.35240  1.0000
  H   H1363     1.0  0.34125  0.38556  0.98172  1.0000
  H   H1364     1.0  0.38668  0.41632  0.01439  1.0000
  H   H1365     1.0  0.32689  0.42305  0.98159  1.0000
  H   H1366     1.0  0.38636  0.36177  0.00086  1.0000
  H   H1367     1.0  0.25946  0.98374  0.44104  1.0000
  C   C1162     1.0  0.35908  0.43326  0.98150  1.0000
  Fe  Fe145     1.0  0.33610  0.04256  0.53926  1.0000
  S   S292      1.0  0.34665  0.03190  0.52282  1.0000
  S   S293      1.0  0.31420  0.05052  0.54204  1.0000
  Fe  Fe146     1.0  0.36165  0.04051  0.54739  1.0000
  S   S294      1.0  0.37439  0.02994  0.53131  1.0000
  S   S295      1.0  0.36820  0.04501  0.56366  1.0000
  Fe  Fe147     1.0  0.36130  0.04452  0.51812  1.0000
  C   C1163     1.0  0.30208  0.47216  0.97011  1.0000
  Fe  Fe148     1.0  0.35851  0.01833  0.53737  1.0000
  C   C1164     1.0  0.19762  0.03619  0.53114  1.0000
  S   S296      1.0  0.34993  0.05627  0.53369  1.0000
  S   S297      1.0  0.34658  0.02782  0.55439  1.0000
  H   H1368     1.0  0.38652  0.36903  0.97638  1.0000
  H   H1369     1.0  0.19519  0.39411  0.95080  1.0000
  H   H1370     1.0  0.38515  0.40173  0.88911  1.0000
  H   H1371     1.0  0.24101  0.47867  0.91249  1.0000
  C   C1165     1.0  0.34213  0.46690  0.91139  1.0000
  H   H1372     1.0  0.24039  0.98880  0.52886  1.0000
  H   H1373     1.0  0.28884  0.05711  0.48865  1.0000
  H   H1374     1.0  0.29842  0.47876  0.92684  1.0000
  C   C1166     1.0  0.32138  0.00425  0.49177  1.0000
  H   H1375     1.0  0.32801  0.05067  0.50255  1.0000
  H   H1376     1.0  0.33804  0.00818  0.53401  1.0000
  N   N82       1.0  0.30901  0.04809  0.50206  1.0000
  C   C1167     1.0  0.33335  0.99417  0.52615  1.0000
  H   H1377     1.0  0.22557  0.04004  0.50501  1.0000
  H   H1378     1.0  0.30584  0.02885  0.50330  1.0000
  H   H1379     1.0  0.20877  0.38620  0.96665  1.0000
  H   H1380     1.0  0.36011  0.46478  0.93364  1.0000
  H   H1381     1.0  0.36603  0.02810  0.49905  1.0000
  S   S298      1.0  0.33758  0.45674  0.90395  1.0000
  H   H1382     1.0  0.18802  0.42615  0.87572  1.0000
  C   C1168     1.0  0.37982  0.99537  0.61580  1.0000
  S   S299      1.0  0.21576  0.42768  0.95955  1.0000
  H   H1383     1.0  0.32462  0.47475  0.87117  1.0000
  Fe  Fe149     1.0  0.33800  0.43621  0.91672  1.0000
  Fe  Fe150     1.0  0.21233  0.41654  0.91826  1.0000
  S   S300      1.0  0.20149  0.43144  0.93075  1.0000
  S   S301      1.0  0.19958  0.40283  0.91895  1.0000
  Fe  Fe151     1.0  0.23764  0.42647  0.91109  1.0000
  C   C1169     1.0  0.35048  0.48313  0.92243  1.0000
  S   S302      1.0  0.25864  0.42721  0.90004  1.0000
  Fe  Fe152     1.0  0.21978  0.42654  0.93836  1.0000
  H   H1384     1.0  0.28701  0.45891  0.88113  1.0000
  C   C1170     1.0  0.31170  0.47045  0.89051  1.0000
  S   S303      1.0  0.23011  0.41014  0.92753  1.0000
  S   S304      1.0  0.22068  0.43154  0.90080  1.0000
  S   S305      1.0  0.22861  0.44218  0.92287  1.0000
  H   H1385     1.0  0.32683  0.01190  0.49111  1.0000
  C   C1171     1.0  0.38561  0.07433  0.55233  1.0000
  H   H1386     1.0  0.22488  0.01204  0.52384  1.0000
  Fe  Fe153     1.0  0.27058  0.01289  0.53382  1.0000
  H   H1387     1.0  0.38538  0.38646  0.96830  1.0000
  S   S306      1.0  0.28481  0.00558  0.54738  1.0000
  Fe  Fe154     1.0  0.26765  0.02773  0.50575  1.0000
  H   H1388     1.0  0.20319  0.00021  0.49234  1.0000
  H   H1389     1.0  0.25985  0.44405  0.93642  1.0000
  S   S307      1.0  0.22231  0.03494  0.53424  1.0000
  H   H1390     1.0  0.20850  0.46838  0.95039  1.0000
  C   C1172     1.0  0.19323  0.41616  0.89469  1.0000
  Fe  Fe155     1.0  0.26137  0.00071  0.51683  1.0000
  C   C1173     1.0  0.27380  0.41880  0.93284  1.0000
  C   C1174     1.0  0.35121  0.43803  0.95751  1.0000
  C   C1175     1.0  0.35296  0.44858  0.96170  1.0000
  H   H1391     1.0  0.32850  0.99450  0.49333  1.0000
  H   H1392     1.0  0.34810  0.43988  0.94828  1.0000
  H   H1393     1.0  0.35093  0.45863  0.95589  1.0000
  C   C1176     1.0  0.22732  0.41721  0.96857  1.0000
  C   C1177     1.0  0.23934  0.41008  0.96233  1.0000
  C   C1178     1.0  0.24915  0.40334  0.96965  1.0000
  H   H1394     1.0  0.37386  0.47741  0.96174  1.0000
  H   H1395     1.0  0.37529  0.07610  0.55729  1.0000
  H   H1396     1.0  0.27453  0.01139  0.49000  1.0000
  H   H1397     1.0  0.24134  0.41028  0.95181  1.0000
  H   H1398     1.0  0.25880  0.39853  0.96472  1.0000
  S   S308      1.0  0.35561  0.42122  0.92278  1.0000
  C   C1179     1.0  0.31816  0.44782  0.96565  1.0000
  C   C1180     1.0  0.26952  0.42433  0.91062  1.0000
  C   C1181     1.0  0.26518  0.42073  0.92446  1.0000
  H   H1399     1.0  0.36636  0.46895  0.88271  1.0000
  C   C1182     1.0  0.28678  0.42053  0.92747  1.0000
  C   C1183     1.0  0.29121  0.42394  0.91360  1.0000
  C   C1184     1.0  0.28257  0.42589  0.90519  1.0000
  H   H1400     1.0  0.25522  0.41929  0.92872  1.0000
  H   H1401     1.0  0.29089  0.04097  0.50713  1.0000
  H   H1402     1.0  0.30127  0.42505  0.90937  1.0000
  H   H1403     1.0  0.28601  0.42850  0.89448  1.0000
  S   S309      1.0  0.24985  0.02014  0.50766  1.0000
  H   H1404     1.0  0.23449  0.05234  0.50316  1.0000
  H   H1405     1.0  0.31173  0.44876  0.91242  1.0000
  H   H1406     1.0  0.24205  0.46564  0.87793  1.0000
  H   H1407     1.0  0.32436  0.43858  0.96336  1.0000
  H   H1408     1.0  0.27498  0.45142  0.95941  1.0000
  H   H1409     1.0  0.21345  0.39764  0.97284  1.0000
  H   H1410     1.0  0.20274  0.41882  0.89182  1.0000
  N   N83       1.0  0.19237  0.40008  0.97570  1.0000
  H   H1411     1.0  0.36311  0.99000  0.48412  1.0000
  C   C1185     1.0  0.37844  0.00804  0.59345  1.0000
  H   H1412     1.0  0.34231  0.98928  0.60026  1.0000
  C   C1186     1.0  0.37864  0.38511  0.92255  1.0000
  C   C1187     1.0  0.30137  0.03750  0.50805  1.0000
  H   H1413     1.0  0.20890  0.00472  0.51640  1.0000
  H   H1414     1.0  0.29862  0.46164  0.93468  1.0000
  C   C1188     1.0  0.25616  0.45996  0.95292  1.0000
  Fe  Fe156     1.0  0.24342  0.02425  0.52806  1.0000
  H   H1415     1.0  0.36008  0.00145  0.57756  1.0000
  C   C1189     1.0  0.37814  0.00755  0.60672  1.0000
  C   C1190     1.0  0.38059  0.99628  0.58881  1.0000
  C   C1191     1.0  0.20741  0.00863  0.48542  1.0000
  C   C1192     1.0  0.27889  0.46747  0.88219  1.0000
  H   H1416     1.0  0.23895  0.47289  0.94547  1.0000
  N   N84       1.0  0.29713  0.46696  0.91404  1.0000
  H   H1417     1.0  0.19018  0.46798  0.88149  1.0000
  H   H1418     1.0  0.34115  0.48226  0.96586  1.0000
  C   C1193     1.0  0.34945  0.46117  0.92125  1.0000
  S   S310      1.0  0.36702  0.05521  0.49671  1.0000
  H   H1419     1.0  0.20763  0.40345  0.95783  1.0000
  H   H1420     1.0  0.31323  0.00447  0.50085  1.0000
  C   C1194     1.0  0.38504  0.41051  0.89280  1.0000
  C   C1195     1.0  0.37483  0.38184  0.91262  1.0000
  H   H1421     1.0  0.31297  0.46627  0.92286  1.0000
  C   C1196     1.0  0.30891  0.44797  0.97802  1.0000
  H   H1422     1.0  0.18912  0.98793  0.52302  1.0000
  H   H1423     1.0  0.32364  0.00014  0.52513  1.0000
  H   H1424     1.0  0.24594  0.46145  0.91183  1.0000
  N   N85       1.0  0.24133  0.47477  0.89375  1.0000
  H   H1425     1.0  0.21693  0.05688  0.50587  1.0000
  H   H1426     1.0  0.37591  0.06451  0.51868  1.0000
  C   C1197     1.0  0.20125  0.47509  0.91984  1.0000
  C   C1198     1.0  0.21482  0.01772  0.52458  1.0000
  C   C1199     1.0  0.19265  0.02083  0.52137  1.0000
  C   C1200     1.0  0.38254  0.06327  0.52548  1.0000
  C   C1201     1.0  0.27221  0.47227  0.95289  1.0000
  S   S311      1.0  0.19994  0.46683  0.90846  1.0000
  H   H1427     1.0  0.29748  0.45071  0.90574  1.0000
  C   C1202     1.0  0.36542  0.42223  0.88477  1.0000
  H   H1428     1.0  0.32780  0.03403  0.50197  1.0000
  H   H1429     1.0  0.24694  0.43535  0.94581  1.0000
  H   H1430     1.0  0.23968  0.99535  0.48633  1.0000
  C   C1203     1.0  0.30204  0.05982  0.50795  1.0000
  C   C1204     1.0  0.31741  0.47890  0.87912  1.0000
  C   C1205     1.0  0.31159  0.47169  0.95826  1.0000
  C   C1206     1.0  0.38655  0.04242  0.57783  1.0000
  H   H1431     1.0  0.27797  0.46412  0.92604  1.0000
  H   H1432     1.0  0.36050  0.43068  0.87782  1.0000
  C   C1207     1.0  0.30573  0.03793  0.54477  1.0000
  C   C1208     1.0  0.31240  0.02459  0.54686  1.0000
  C   C1209     1.0  0.30581  0.01462  0.54806  1.0000
  C   C1210     1.0  0.29262  0.01802  0.54692  1.0000
  C   C1211     1.0  0.28589  0.03135  0.54506  1.0000
  C   C1212     1.0  0.29240  0.04129  0.54412  1.0000
  H   H1433     1.0  0.32262  0.02197  0.54759  1.0000
  H   H1434     1.0  0.31102  0.00431  0.54958  1.0000
  H   H1435     1.0  0.27561  0.03399  0.54451  1.0000
  H   H1436     1.0  0.28716  0.05159  0.54271  1.0000
  H   H1437     1.0  0.37638  0.08868  0.51149  1.0000
  S   S312      1.0  0.26037  0.03376  0.52544  1.0000
  C   C1213     1.0  0.33874  0.48077  0.90721  1.0000
  H   H1438     1.0  0.35996  0.08126  0.52967  1.0000
  H   H1439     1.0  0.36099  0.01716  0.48425  1.0000
  C   C1214     1.0  0.36371  0.03389  0.48963  1.0000
  H   H1440     1.0  0.25610  0.42668  0.96545  1.0000
  C   C1215     1.0  0.20655  0.47406  0.94078  1.0000
  H   H1441     1.0  0.30724  0.06817  0.50333  1.0000
  C   C1216     1.0  0.23903  0.46402  0.88900  1.0000
  H   H1442     1.0  0.23025  0.45627  0.96032  1.0000
  H   H1443     1.0  0.19032  0.42085  0.96632  1.0000
  C   C1217     1.0  0.22897  0.99927  0.49022  1.0000
  C   C1218     1.0  0.26841  0.46026  0.95523  1.0000
  C   C1219     1.0  0.20611  0.39665  0.96787  1.0000
  H   H1444     1.0  0.37571  0.46702  0.90188  1.0000
  N   N86       1.0  0.37888  0.42321  0.88468  1.0000
  H   H1445     1.0  0.35228  0.45048  0.92433  1.0000
  C   C1220     1.0  0.25502  0.47672  0.88827  1.0000
  H   H1446     1.0  0.29865  0.02038  0.48622  1.0000
  N   N87       1.0  0.25133  0.44758  0.95615  1.0000
  H   H1447     1.0  0.19448  0.04496  0.53529  1.0000
  C   C1221     1.0  0.22586  0.05066  0.50058  1.0000
  C   C1222     1.0  0.30086  0.45263  0.91379  1.0000
  H   H1448     1.0  0.26461  0.45557  0.89007  1.0000
  S   S313      1.0  0.33052  0.42212  0.91024  1.0000
  H   H1449     1.0  0.30763  0.42497  0.97346  1.0000
  H   H1450     1.0  0.31006  0.98471  0.50010  1.0000
  S   S314      1.0  0.36391  0.99619  0.53986  1.0000
  C   C1223     1.0  0.38356  0.08640  0.51796  1.0000
  H   H1451     1.0  0.22885  0.47001  0.91318  1.0000
  H   H1452     1.0  0.36711  0.01589  0.57171  1.0000
  C   C1224     1.0  0.18943  0.40820  0.90730  1.0000
  S   S315      1.0  0.36046  0.39124  0.90683  1.0000
  H   H1453     1.0  0.35894  0.42196  0.89489  1.0000
  C   C1225     1.0  0.38303  0.37146  0.90660  1.0000
  C   C1226     1.0  0.30273  0.47555  0.90140  1.0000
  C   C1227     1.0  0.30195  0.46849  0.92510  1.0000
  C   C1228     1.0  0.35677  0.44620  0.97376  1.0000
  S   S316      1.0  0.27459  0.03907  0.48503  1.0000
  H   H1454     1.0  0.27852  0.47080  0.90854  1.0000
  H   H1455     1.0  0.36870  0.00577  0.56050  1.0000
  H   H1456     1.0  0.21726  0.07442  0.48504  1.0000
  C   C1229     1.0  0.28142  0.48018  0.87865  1.0000
  H   H1457     1.0  0.29144  0.48157  0.87472  1.0000
  S   S317      1.0  0.34909  0.41217  0.96170  1.0000
  S   S318      1.0  0.33452  0.40157  0.93871  1.0000
  C   C1230     1.0  0.31958  0.45953  0.95601  1.0000
  C   C1231     1.0  0.21080  0.02907  0.52991  1.0000
  C   C1232     1.0  0.36874  0.00540  0.57099  1.0000
  C   C1233     1.0  0.34156  0.99880  0.53106  1.0000
  C   C1234     1.0  0.28247  0.47092  0.91703  1.0000
  C   C1235     1.0  0.37810  0.43506  0.88962  1.0000
  C   C1236     1.0  0.20486  0.04678  0.49184  1.0000
  Fe  Fe157     1.0  0.34197  0.41719  0.94277  1.0000
  C   C1237     1.0  0.38457  0.04152  0.56573  1.0000
  C   C1238     1.0  0.24837  0.47230  0.94753  1.0000
  C   C1239     1.0  0.26592  0.46570  0.88713  1.0000
  C   C1240     1.0  0.20576  0.01360  0.52036  1.0000
  H   H1458     1.0  0.24279  0.45272  0.93888  1.0000
  Fe  Fe158     1.0  0.34711  0.40664  0.91820  1.0000
  Fe  Fe159     1.0  0.21106  0.44585  0.91421  1.0000
  H   H1459     1.0  0.38230  0.43313  0.86381  1.0000
  H   H1460     1.0  0.22845  0.46333  0.89204  1.0000
  H   H1461     1.0  0.38304  0.09573  0.52090  1.0000
  C   C1241     1.0  0.32198  0.04296  0.50595  1.0000
  C   C1242     1.0  0.30072  0.46051  0.97987  1.0000
  H   H1462     1.0  0.27007  0.43334  0.95610  1.0000
  H   H1463     1.0  0.32698  0.45914  0.94676  1.0000
  H   H1464     1.0  0.37693  0.01664  0.60989  1.0000
  S   S319      1.0  0.25315  0.00376  0.53776  1.0000
  C   C1243     1.0  0.31013  0.05197  0.48744  1.0000
  N   N88       1.0  0.38124  0.99709  0.57460  1.0000
  C   C1244     1.0  0.26014  0.43575  0.96273  1.0000
  C   C1245     1.0  0.35383  0.46927  0.92656  1.0000
  H   H1465     1.0  0.22491  0.99142  0.49832  1.0000
  H   H1466     1.0  0.38001  0.99500  0.62598  1.0000
  H   H1467     1.0  0.20318  0.45750  0.93564  1.0000
  C   C1246     1.0  0.20352  0.46790  0.93241  1.0000
  H   H1468     1.0  0.31493  0.45993  0.89078  1.0000
  H   H1469     1.0  0.24439  0.45398  0.89332  1.0000
  H   H1470     1.0  0.29572  0.48159  0.97182  1.0000
  H   H1471     1.0  0.37236  0.39300  0.92734  1.0000
  C   C1247     1.0  0.30696  0.98592  0.49103  1.0000
  H   H1472     1.0  0.37937  0.40890  0.90333  1.0000
  S   S320      1.0  0.29676  0.41923  0.93847  1.0000
  H   H1473     1.0  0.29640  0.44643  0.92335  1.0000
  C   C1248     1.0  0.35692  0.42284  0.97755  1.0000
  N   N89       1.0  0.22684  0.05384  0.48595  1.0000
  H   H1474     1.0  0.29169  0.06350  0.50668  1.0000
  Fe  Fe160     1.0  0.31869  0.41849  0.93129  1.0000
  H   H1475     1.0  0.30108  0.03376  0.51892  1.0000
  H   H1476     1.0  0.36500  0.38197  0.97483  1.0000
  H   H1477     1.0  0.23471  0.43962  0.96907  1.0000
  H   H1478     1.0  0.33834  0.98517  0.58073  1.0000
  H   H1479     1.0  0.30156  0.05750  0.51888  1.0000
  S   S321      1.0  0.32513  0.43369  0.93724  1.0000
  S   S322      1.0  0.27963  0.00798  0.51383  1.0000
  H   H1480     1.0  0.27040  0.41588  0.94355  1.0000
  H   H1481     1.0  0.37811  0.04496  0.58569  1.0000
  C   C1249     1.0  0.35289  0.42522  0.96562  1.0000
  H   H1482     1.0  0.32070  0.03996  0.51701  1.0000
  N   N90       1.0  0.38077  0.07567  0.52991  1.0000
  C   C1250     1.0  0.25019  0.44485  0.94375  1.0000
  C   C1251     1.0  0.23805  0.44915  0.96525  1.0000
  H   H1483     1.0  0.23481  0.07080  0.48380  1.0000
  H   H1484     1.0  0.38027  0.05507  0.53420  1.0000
  H   H1485     1.0  0.22837  0.00731  0.49520  1.0000
  C   C1252     1.0  0.36663  0.07953  0.53654  1.0000
  C   C1253     1.0  0.35402  0.99103  0.53266  1.0000
  C   C1254     1.0  0.23918  0.47104  0.90847  1.0000
  H   H1486     1.0  0.36455  0.08886  0.54008  1.0000
  H   H1487     1.0  0.38356  0.98504  0.56060  1.0000
  H   H1488     1.0  0.28121  0.47232  0.95546  1.0000
  C   C1255     1.0  0.37135  0.45927  0.88752  1.0000
  S   S323      1.0  0.35752  0.45944  0.97987  1.0000
  H   H1489     1.0  0.37722  0.01773  0.58677  1.0000
  H   H1490     1.0  0.36777  0.44929  0.87479  1.0000
  H   H1491     1.0  0.23809  0.45270  0.97401  1.0000
  H   H1492     1.0  0.20594  0.01616  0.49134  1.0000
  C   C1256     1.0  0.38216  0.98403  0.59837  1.0000
  H   H1493     1.0  0.36359  0.07153  0.54521  1.0000
  H   H1494     1.0  0.20379  0.04554  0.50243  1.0000
  C   C1257     1.0  0.18956  0.41419  0.97644  1.0000
  C   C1258     1.0  0.36390  0.04740  0.48577  1.0000
  C   C1259     1.0  0.38328  0.43431  0.90073  1.0000
  C   C1260     1.0  0.19470  0.04412  0.48797  1.0000
  H   H1495     1.0  0.23997  0.03517  0.48287  1.0000
  C   C1261     1.0  0.37657  0.45820  0.89837  1.0000
  C   C1262     1.0  0.37211  0.44792  0.88316  1.0000
  H   H1496     1.0  0.27871  0.48106  0.91908  1.0000
  H   H1497     1.0  0.24803  0.04753  0.48313  1.0000
  H   H1498     1.0  0.36555  0.41297  0.88191  1.0000
  H   H1499     1.0  0.24286  0.46940  0.98083  1.0000
  C   C1263     1.0  0.38245  0.44575  0.90500  1.0000
  H   H1500     1.0  0.38014  0.36887  0.89893  1.0000
  H   H1501     1.0  0.26137  0.43712  0.97222  1.0000
  H   H1502     1.0  0.31275  0.48074  0.95076  1.0000
  C   C1264     1.0  0.18854  0.03208  0.52685  1.0000
  H   H1503     1.0  0.19654  0.41599  0.98132  1.0000
  H   H1504     1.0  0.38620  0.44497  0.91365  1.0000
  C   C1265     1.0  0.21591  0.05089  0.48225  1.0000
  C   C1266     1.0  0.29857  0.05649  0.48217  1.0000
  H   H1505     1.0  0.29160  0.43321  0.98127  1.0000
  C   C1267     1.0  0.38332  0.98398  0.57134  1.0000
  C   C1268     1.0  0.28863  0.50617  0.03404  1.0000
  H   H1506     1.0  0.19211  0.48889  0.99607  1.0000
  C   C1269     1.0  0.27673  0.90536  0.43641  1.0000
  C   C1270     1.0  0.27273  0.96924  0.37333  1.0000
  N   N91       1.0  0.36921  0.97121  0.36767  1.0000
  H   H1507     1.0  0.31060  0.53603  0.04250  1.0000
  H   H1508     1.0  0.25077  0.90970  0.42233  1.0000
  C   C1271     1.0  0.35805  0.48683  0.03470  1.0000
  Fe  Fe161     1.0  0.23448  0.93856  0.40019  1.0000
  S   S324      1.0  0.23537  0.94314  0.41890  1.0000
  S   S325      1.0  0.25314  0.93678  0.38418  1.0000
  Fe  Fe162     1.0  0.20491  0.93885  0.40916  1.0000
  S   S326      1.0  0.20377  0.94320  0.42873  1.0000
  H   H1509     1.0  0.20761  0.57977  0.02825  1.0000
  Fe  Fe163     1.0  0.21624  0.95760  0.41690  1.0000
  C   C1272     1.0  0.26614  0.96720  0.46546  1.0000
  Fe  Fe164     1.0  0.22277  0.92819  0.42904  1.0000
  S   S327      1.0  0.22578  0.91325  0.44802  1.0000
  S   S328      1.0  0.21630  0.95449  0.39715  1.0000
  S   S329      1.0  0.22311  0.92236  0.41035  1.0000
  S   S330      1.0  0.30946  0.91897  0.39874  1.0000
  S   S331      1.0  0.30990  0.94951  0.41208  1.0000
  H   H1510     1.0  0.35286  0.48516  0.02824  1.0000
  C   C1273     1.0  0.18830  0.91300  0.44220  1.0000
  C   C1274     1.0  0.25780  0.91256  0.42635  1.0000
  H   H1511     1.0  0.36172  0.92203  0.37762  1.0000
  H   H1512     1.0  0.20606  0.56336  0.00085  1.0000
  C   C1275     1.0  0.27546  0.89539  0.41861  1.0000
  H   H1513     1.0  0.29573  0.95824  0.38254  1.0000
  H   H1514     1.0  0.37608  0.49266  0.05852  1.0000
  H   H1515     1.0  0.28360  0.88673  0.42099  1.0000
  H   H1516     1.0  0.37739  0.82615  0.01962  1.0000
  C   C1276     1.0  0.26173  0.89070  0.44053  1.0000
  Fe  Fe165     1.0  0.35516  0.53558  0.03327  1.0000
  S   S332      1.0  0.34148  0.55471  0.03756  1.0000
  S   S333      1.0  0.35973  0.51742  0.04927  1.0000
  Fe  Fe166     1.0  0.36050  0.54625  0.00373  1.0000
  S   S334      1.0  0.34729  0.56611  0.00530  1.0000
  C   C1277     1.0  0.32052  0.94189  0.47100  1.0000
  Fe  Fe167     1.0  0.35677  0.56466  0.02201  1.0000
  S   S335      1.0  0.36178  0.58398  0.02166  1.0000
  Fe  Fe168     1.0  0.33331  0.55447  0.02049  1.0000
  S   S336      1.0  0.31138  0.56034  0.02118  1.0000
  S   S337      1.0  0.37118  0.54548  0.01916  1.0000
  S   S338      1.0  0.34585  0.53459  0.01753  1.0000
  H   H1517     1.0  0.32836  0.52288  0.05432  1.0000
  C   C1278     1.0  0.25281  0.97521  0.42912  1.0000
  H   H1518     1.0  0.37948  0.62723  0.07247  1.0000
  H   H1519     1.0  0.20434  0.92307  0.46796  1.0000
  H   H1520     1.0  0.37591  0.95842  0.38509  1.0000
  H   H1521     1.0  0.28949  0.94372  0.45133  1.0000
  H   H1522     1.0  0.25831  0.96141  0.47039  1.0000
  H   H1523     1.0  0.29856  0.91750  0.45238  1.0000
  S   S339      1.0  0.33543  0.94128  0.38790  1.0000
  C   C1279     1.0  0.29760  0.96838  0.38030  1.0000
  H   H1524     1.0  0.32886  0.98083  0.45506  1.0000
  N   N92       1.0  0.19072  0.91018  0.47800  1.0000
  S   S340      1.0  0.28378  0.52787  0.00005  1.0000
  S   S341      1.0  0.24687  0.52491  0.00539  1.0000
  H   H1525     1.0  0.34549  0.48730  0.98489  1.0000
  C   C1280     1.0  0.19330  0.59239  0.00143  1.0000
  H   H1526     1.0  0.31086  0.52495  0.00051  1.0000
  C   C1281     1.0  0.33660  0.92839  0.45653  1.0000
  H   H1527     1.0  0.29175  0.96675  0.43829  1.0000
  H   H1528     1.0  0.35174  0.94849  0.46435  1.0000
  C   C1282     1.0  0.37857  0.59604  0.98711  1.0000
  C   C1283     1.0  0.37363  0.59031  0.05633  1.0000
  C   C1284     1.0  0.37160  0.92382  0.37374  1.0000
  H   H1529     1.0  0.35156  0.94926  0.44754  1.0000
  H   H1530     1.0  0.28632  0.50098  0.99709  1.0000
  C   C1285     1.0  0.26762  0.96231  0.44420  1.0000
  H   H1531     1.0  0.38287  0.82758  0.03348  1.0000
  H   H1532     1.0  0.20026  0.53904  0.99189  1.0000
  C   C1286     1.0  0.19444  0.58848  0.01476  1.0000
  H   H1533     1.0  0.25185  0.91730  0.43474  1.0000
  H   H1534     1.0  0.34469  0.96172  0.47949  1.0000
  C   C1287     1.0  0.21846  0.49126  0.00960  1.0000
  C   C1288     1.0  0.36250  0.50179  0.04553  1.0000
  H   H1535     1.0  0.25602  0.88656  0.43609  1.0000
  C   C1289     1.0  0.24166  0.91576  0.47693  1.0000
  H   H1536     1.0  0.28193  0.51058  0.04244  1.0000
  C   C1290     1.0  0.35600  0.49966  0.03690  1.0000
  H   H1537     1.0  0.21626  0.52119  0.01609  1.0000
  H   H1538     1.0  0.37776  0.96663  0.34819  1.0000
  H   H1539     1.0  0.34906  0.50778  0.03232  1.0000
  C   C1291     1.0  0.30406  0.55159  0.01457  1.0000
  C   C1292     1.0  0.31142  0.54057  0.00920  1.0000
  C   C1293     1.0  0.30514  0.53352  0.00453  1.0000
  C   C1294     1.0  0.29150  0.53750  0.00508  1.0000
  C   C1295     1.0  0.28417  0.54858  0.01031  1.0000
  C   C1296     1.0  0.29044  0.55557  0.01507  1.0000
  H   H1540     1.0  0.32191  0.53744  0.00874  1.0000
  C   C1297     1.0  0.37778  0.92723  0.38177  1.0000
  H   H1541     1.0  0.27364  0.55164  0.01093  1.0000
  H   H1542     1.0  0.28469  0.56405  0.01925  1.0000
  H   H1543     1.0  0.23335  0.96033  0.47317  1.0000
  H   H1544     1.0  0.29216  0.48865  0.05775  1.0000
  H   H1545     1.0  0.33034  0.96489  0.46632  1.0000
  C   C1298     1.0  0.22846  0.98020  0.47643  1.0000
  H   H1546     1.0  0.38094  0.61137  0.08401  1.0000
  S   S342      1.0  0.20977  0.97764  0.42165  1.0000
  H   H1547     1.0  0.23386  0.90122  0.47296  1.0000
  C   C1299     1.0  0.37919  0.48472  0.00281  1.0000
  H   H1548     1.0  0.23077  0.93906  0.44535  1.0000
  H   H1549     1.0  0.19108  0.53752  0.03714  1.0000
  C   C1300     1.0  0.25319  0.96378  0.42523  1.0000
  C   C1301     1.0  0.23424  0.93234  0.45380  1.0000
  N   N93       1.0  0.27519  0.96187  0.45396  1.0000
  H   H1550     1.0  0.26942  0.98163  0.40048  1.0000
  H   H1551     1.0  0.19261  0.52020  0.02324  1.0000
  C   C1302     1.0  0.18826  0.90749  0.46614  1.0000
  H   H1552     1.0  0.26216  0.92030  0.41849  1.0000
  H   H1553     1.0  0.21056  0.89845  0.47491  1.0000
  C   C1303     1.0  0.30640  0.50112  0.98617  1.0000
  H   H1554     1.0  0.27331  0.94110  0.44371  1.0000
  H   H1555     1.0  0.28805  0.94822  0.46653  1.0000
  C   C1304     1.0  0.23207  0.91943  0.45791  1.0000
  H   H1556     1.0  0.26196  0.50481  0.98460  1.0000
  H   H1557     1.0  0.37004  0.59907  0.99473  1.0000
  H   H1558     1.0  0.29175  0.96933  0.45406  1.0000
  H   H1559     1.0  0.26092  0.94272  0.42758  1.0000
  H   H1560     1.0  0.38399  0.56490  0.03174  1.0000
  C   C1305     1.0  0.20466  0.59107  0.99080  1.0000
  H   H1561     1.0  0.27520  0.91688  0.46383  1.0000
  H   H1562     1.0  0.38599  0.95616  0.36127  1.0000
  C   C1306     1.0  0.27854  0.97410  0.39760  1.0000
  C   C1307     1.0  0.18972  0.54419  0.02771  1.0000
  H   H1563     1.0  0.38669  0.81182  0.02903  1.0000
  C   C1308     1.0  0.34517  0.54613  0.98160  1.0000
  C   C1309     1.0  0.32267  0.51787  0.05121  1.0000
  H   H1564     1.0  0.22767  0.57768  0.01030  1.0000
  H   H1565     1.0  0.23350  0.97244  0.40146  1.0000
  S   S343      1.0  0.22939  0.54864  0.98628  1.0000
  H   H1566     1.0  0.36282  0.97300  0.43380  1.0000
  C   C1310     1.0  0.38298  0.60700  0.06007  1.0000
  C   C1311     1.0  0.26859  0.93239  0.38865  1.0000
  C   C1312     1.0  0.27876  0.92338  0.38237  1.0000
  C   C1313     1.0  0.29122  0.91961  0.38546  1.0000
  C   C1314     1.0  0.29386  0.92511  0.39457  1.0000
  C   C1315     1.0  0.28380  0.93440  0.40074  1.0000
  C   C1316     1.0  0.27112  0.93799  0.39782  1.0000
  H   H1567     1.0  0.27695  0.91914  0.37516  1.0000
  H   H1568     1.0  0.29890  0.91239  0.38071  1.0000
  H   H1569     1.0  0.28572  0.93853  0.40796  1.0000
  H   H1570     1.0  0.26335  0.94517  0.40250  1.0000
  C   C1317     1.0  0.21313  0.51275  0.01526  1.0000
  C   C1318     1.0  0.38601  0.57474  0.02897  1.0000
  S   S344      1.0  0.36992  0.92833  0.39838  1.0000
  C   C1319     1.0  0.29757  0.48589  0.04806  1.0000
  H   H1571     1.0  0.29797  0.52524  0.03510  1.0000
  C   C1320     1.0  0.35193  0.97450  0.43760  1.0000
  C   C1321     1.0  0.24086  0.93667  0.46072  1.0000
  H   H1572     1.0  0.22525  0.96722  0.45217  1.0000
  C   C1322     1.0  0.22924  0.97073  0.46939  1.0000
  C   C1323     1.0  0.37111  0.49111  0.05179  1.0000
  N   N94       1.0  0.26820  0.90101  0.43052  1.0000
  H   H1573     1.0  0.25438  0.89470  0.44887  1.0000
  Fe  Fe169     1.0  0.32628  0.95850  0.39769  1.0000
  C   C1324     1.0  0.27940  0.91381  0.45440  1.0000
  H   H1574     1.0  0.35639  0.59761  0.04793  1.0000
  H   H1575     1.0  0.31164  0.97443  0.41444  1.0000
  H   H1576     1.0  0.36555  0.95229  0.45131  1.0000
  H   H1577     1.0  0.21164  0.51803  0.98783  1.0000
  C   C1325     1.0  0.28521  0.97008  0.44739  1.0000
  C   C1326     1.0  0.32816  0.93679  0.48070  1.0000
  C   C1327     1.0  0.29011  0.90584  0.43017  1.0000
  C   C1328     1.0  0.22242  0.50227  0.01044  1.0000
  H   H1578     1.0  0.35322  0.91573  0.46457  1.0000
  C   C1329     1.0  0.19477  0.92298  0.47532  1.0000
  C   C1330     1.0  0.37971  0.59836  0.02001  1.0000
  C   C1331     1.0  0.32483  0.93785  0.45883  1.0000
  C   C1332     1.0  0.36295  0.61346  0.05106  1.0000
  H   H1579     1.0  0.37703  0.97087  0.12760  1.0000
  C   C1333     1.0  0.26784  0.95084  0.43990  1.0000
  C   C1334     1.0  0.33994  0.92731  0.47844  1.0000
  C   C1335     1.0  0.30988  0.49312  0.02578  1.0000
  H   H1580     1.0  0.19356  0.91403  0.40341  1.0000
  C   C1336     1.0  0.34987  0.96970  0.47476  1.0000
  H   H1581     1.0  0.34231  0.54672  0.99192  1.0000
  H   H1582     1.0  0.30490  0.96754  0.38617  1.0000
  H   H1583     1.0  0.27968  0.90295  0.41022  1.0000
  Fe  Fe170     1.0  0.26295  0.53649  0.99686  1.0000
  H   H1584     1.0  0.24286  0.94651  0.45723  1.0000
  H   H1585     1.0  0.22617  0.58411  0.98694  1.0000
  Fe  Fe171     1.0  0.23318  0.54484  0.00657  1.0000
  H   H1586     1.0  0.33621  0.50210  0.99081  1.0000
  H   H1587     1.0  0.29491  0.90294  0.42079  1.0000
  C   C1337     1.0  0.31268  0.52524  0.04454  1.0000
  C   C1338     1.0  0.31861  0.49754  0.04921  1.0000
  Fe  Fe172     1.0  0.32020  0.93151  0.40372  1.0000
  C   C1339     1.0  0.35640  0.97806  0.36389  1.0000
  C   C1340     1.0  0.30813  0.50473  0.04265  1.0000
  C   C1341     1.0  0.22461  0.97456  0.45766  1.0000
  C   C1342     1.0  0.20012  0.54996  0.01927  1.0000
  H   H1588     1.0  0.27558  0.96457  0.39921  1.0000
  C   C1343     1.0  0.19819  0.55872  0.00724  1.0000
  C   C1344     1.0  0.37700  0.58561  0.02346  1.0000
  H   H1589     1.0  0.33007  0.96623  0.44941  1.0000
  H   H1590     1.0  0.36134  0.95545  0.38263  1.0000
  H   H1591     1.0  0.32170  0.48685  0.05079  1.0000
  C   C1345     1.0  0.37621  0.96162  0.35896  1.0000
  C   C1346     1.0  0.28227  0.94825  0.45939  1.0000
  C   C1347     1.0  0.19085  0.91574  0.45317  1.0000
  C   C1348     1.0  0.35280  0.97427  0.46064  1.0000
  Fe  Fe173     1.0  0.34761  0.93396  0.40340  1.0000
  C   C1349     1.0  0.26072  0.95164  0.43056  1.0000
  C   C1350     1.0  0.30547  0.51884  0.04032  1.0000
  N   N95       1.0  0.37747  0.49805  0.99365  1.0000
  C   C1351     1.0  0.21711  0.58579  0.99439  1.0000
  N   N96       1.0  0.30109  0.49767  0.03775  1.0000
  H   H1592     1.0  0.31918  0.48621  0.02804  1.0000
  C   C1352     1.0  0.32554  0.50405  0.05364  1.0000
  H   H1593     1.0  0.35519  0.62115  0.04714  1.0000
  N   N97       1.0  0.28540  0.97859  0.38360  1.0000
  C   C1353     1.0  0.27158  0.90965  0.44862  1.0000
  H   H1594     1.0  0.36604  0.50769  0.00972  1.0000
  H   H1595     1.0  0.19107  0.97790  0.40325  1.0000
  C   C1354     1.0  0.37246  0.61684  0.05529  1.0000
  N   N98       1.0  0.34841  0.96841  0.45208  1.0000
  H   H1596     1.0  0.23280  0.50263  0.00743  1.0000
  H   H1597     1.0  0.34816  0.97010  0.43151  1.0000
  H   H1598     1.0  0.38043  0.48518  0.01266  1.0000
  C   C1355     1.0  0.38437  0.58254  0.98788  1.0000
  C   C1356     1.0  0.29249  0.91417  0.44800  1.0000
  C   C1357     1.0  0.24454  0.92841  0.47231  1.0000
  H   H1599     1.0  0.19495  0.92430  0.45125  1.0000
  H   H1600     1.0  0.37056  0.95392  0.36033  1.0000
  C   C1358     1.0  0.20492  0.49052  0.01349  1.0000
  H   H1601     1.0  0.24764  0.96434  0.41806  1.0000
  C   C1359     1.0  0.35456  0.95401  0.45390  1.0000
  H   H1602     1.0  0.19033  0.91945  0.43238  1.0000
  C   C1360     1.0  0.19983  0.51225  0.01921  1.0000
  C   C1361     1.0  0.29779  0.91026  0.43587  1.0000
  H   H1603     1.0  0.26884  0.89195  0.41460  1.0000
  H   H1604     1.0  0.19735  0.51248  0.98813  1.0000
  C   C1362     1.0  0.31954  0.49362  0.98292  1.0000
  S   S345      1.0  0.37080  0.54241  0.98350  1.0000
  H   H1605     1.0  0.30506  0.48764  0.02179  1.0000
  S   S346      1.0  0.33953  0.95209  0.41206  1.0000
  C   C1363     1.0  0.33382  0.97014  0.45592  1.0000
  C   C1364     1.0  0.36656  0.96340  0.38162  1.0000
  C   C1365     1.0  0.19274  0.53906  0.98657  1.0000
  C   C1366     1.0  0.29572  0.97748  0.47963  1.0000
  C   C1367     1.0  0.20680  0.58323  0.01791  1.0000
  C   C1368     1.0  0.37848  0.92205  0.36086  1.0000
  H   H1606     1.0  0.28311  0.50050  0.03111  1.0000
  H   H1607     1.0  0.33997  0.92521  0.44716  1.0000
  S   S347      1.0  0.33321  0.92259  0.41865  1.0000
  C   C1369     1.0  0.23192  0.98243  0.40276  1.0000
  H   H1608     1.0  0.35045  0.97086  0.36450  1.0000
  S   S348      1.0  0.24947  0.55623  0.99965  1.0000
  H   H1609     1.0  0.29053  0.51434  0.02521  1.0000
  Fe  Fe174     1.0  0.32404  0.94158  0.42581  1.0000
  H   H1610     1.0  0.30252  0.97091  0.36956  1.0000
  H   H1611     1.0  0.26916  0.88232  0.44486  1.0000
  H   H1612     1.0  0.27531  0.94163  0.46481  1.0000
  H   H1613     1.0  0.37382  0.91893  0.35488  1.0000
  H   H1614     1.0  0.33347  0.49839  0.05869  1.0000
  H   H1615     1.0  0.30794  0.91066  0.43078  1.0000
  C   C1370     1.0  0.25996  0.97455  0.43842  1.0000
  H   H1616     1.0  0.35646  0.50258  0.00153  1.0000
  S   S349      1.0  0.31541  0.94510  0.44665  1.0000
  C   C1371     1.0  0.19575  0.50133  0.01841  1.0000
  H   H1617     1.0  0.37986  0.57573  0.99631  1.0000
  C   C1372     1.0  0.34408  0.92304  0.46639  1.0000
  C   C1373     1.0  0.26438  0.48376  0.98672  1.0000
  S   S350      1.0  0.21546  0.54619  0.02381  1.0000
  H   H1618     1.0  0.31258  0.50168  0.01768  1.0000
  H   H1619     1.0  0.26142  0.90987  0.45379  1.0000
  H   H1620     1.0  0.27648  0.95931  0.37853  1.0000
  H   H1621     1.0  0.29030  0.97038  0.47968  1.0000
  H   H1622     1.0  0.37424  0.58005  0.05634  1.0000
  H   H1623     1.0  0.26114  0.97778  0.46250  1.0000
  C   C1374     1.0  0.23561  0.91119  0.46961  1.0000
  H   H1624     1.0  0.27146  0.96678  0.47312  1.0000
  H   H1625     1.0  0.26108  0.96193  0.36478  1.0000
  H   H1626     1.0  0.36009  0.96956  0.38876  1.0000
  H   H1627     1.0  0.31142  0.94923  0.47280  1.0000
  C   C1375     1.0  0.36354  0.60021  0.05157  1.0000
  H   H1628     1.0  0.36343  0.51692  0.99369  1.0000
  C   C1376     1.0  0.26388  0.97065  0.36543  1.0000
  C   C1377     1.0  0.36532  0.50665  0.99990  1.0000
  C   C1378     1.0  0.29628  0.49506  0.99474  1.0000
  H   H1629     1.0  0.37165  0.62727  0.05457  1.0000
  H   H1630     1.0  0.37278  0.60682  0.01580  1.0000
  C   C1379     1.0  0.21811  0.58200  0.00775  1.0000
  Fe  Fe175     1.0  0.24419  0.52972  0.98444  1.0000
  H   H1631     1.0  0.38404  0.95619  0.12077  1.0000
  H   H1632     1.0  0.28493  0.97255  0.40471  1.0000
  S   S351      1.0  0.32454  0.97974  0.38684  1.0000
  H   H1633     1.0  0.28066  0.98080  0.44431  1.0000
  C   C1380     1.0  0.27650  0.98037  0.37463  1.0000
  H   H1634     1.0  0.18826  0.54965  0.98274  1.0000
  H   H1635     1.0  0.38585  0.95556  0.14829  1.0000
  C   C1381     1.0  0.38571  0.82271  0.02486  1.0000
  C   C1382     1.0  0.25780  0.49709  0.98376  1.0000
  C   C1383     1.0  0.34068  0.49795  0.98172  1.0000
  C   C1384     1.0  0.25857  0.98320  0.35851  1.0000
  H   H1636     1.0  0.20733  0.98263  0.38391  1.0000
  C   C1385     1.0  0.37673  0.98123  0.36659  1.0000
  C   C1386     1.0  0.38329  0.59357  0.06045  1.0000
  C   C1387     1.0  0.38619  0.96532  0.12193  1.0000
  H   H1637     1.0  0.38637  0.55532  0.99175  1.0000
  C   C1388     1.0  0.38653  0.61778  0.07549  1.0000
  C   C1389     1.0  0.31645  0.98251  0.41255  1.0000
  H   H1638     1.0  0.30368  0.51172  0.98239  1.0000
  S   S352      1.0  0.25256  0.93401  0.48106  1.0000
  H   H1639     1.0  0.18714  0.93154  0.47158  1.0000
  H   H1640     1.0  0.31144  0.98352  0.43323  1.0000
  C   C1390     1.0  0.20492  0.51807  0.98163  1.0000
  C   C1391     1.0  0.24612  0.50044  0.97922  1.0000
  N   N99       1.0  0.31279  0.90275  0.50868  1.0000
  C   C1392     1.0  0.32112  0.89740  0.49695  1.0000
  Fe  Fe176     1.0  0.22683  0.93608  0.52674  1.0000
  S   S353      1.0  0.22677  0.91554  0.53955  1.0000
  S   S354      1.0  0.21620  0.95558  0.53230  1.0000
  Fe  Fe177     1.0  0.24460  0.92625  0.50272  1.0000
  S   S355      1.0  0.24632  0.90486  0.51315  1.0000
  C   C1393     1.0  0.31425  0.49260  0.87813  1.0000
  Fe  Fe178     1.0  0.22441  0.91081  0.52124  1.0000
  S   S356      1.0  0.21097  0.89944  0.51851  1.0000
  Fe  Fe179     1.0  0.24869  0.91149  0.53034  1.0000
  S   S357      1.0  0.26445  0.89973  0.54184  1.0000
  S   S358      1.0  0.22267  0.93174  0.50934  1.0000
  S   S359      1.0  0.24886  0.93234  0.51913  1.0000
  Fe  Fe180     1.0  0.32692  0.92769  0.53670  1.0000
  S   S360      1.0  0.32369  0.94026  0.51688  1.0000
  S   S361      1.0  0.31038  0.91941  0.55198  1.0000
  Fe  Fe181     1.0  0.35550  0.93091  0.53151  1.0000
  S   S362      1.0  0.35432  0.94344  0.51093  1.0000
  C   C1394     1.0  0.19153  0.56521  0.87839  1.0000
  Fe  Fe182     1.0  0.33432  0.95337  0.52082  1.0000
  H   H1641     1.0  0.19419  0.95162  0.52388  1.0000
  Fe  Fe183     1.0  0.34399  0.92898  0.50896  1.0000
  S   S363      1.0  0.37364  0.55308  0.89871  1.0000
  S   S364      1.0  0.33592  0.94189  0.54144  1.0000
  S   S365      1.0  0.34674  0.91535  0.52870  1.0000
  C   C1395     1.0  0.21273  0.60321  0.96839  1.0000
  C   C1396     1.0  0.33541  0.54709  0.97489  1.0000
  H   H1642     1.0  0.19110  0.53531  0.85645  1.0000
  Fe  Fe184     1.0  0.24871  0.51821  0.91853  1.0000
  S   S366      1.0  0.23408  0.52234  0.93719  1.0000
  S   S367      1.0  0.26992  0.50934  0.91993  1.0000
  Fe  Fe185     1.0  0.22696  0.52409  0.90322  1.0000
  S   S368      1.0  0.21075  0.52920  0.92049  1.0000
  S   S369      1.0  0.22351  0.52312  0.88382  1.0000
  Fe  Fe186     1.0  0.22442  0.53999  0.92334  1.0000
  S   S370      1.0  0.21661  0.56096  0.92630  1.0000
  Fe  Fe187     1.0  0.22200  0.51119  0.93239  1.0000
  S   S371      1.0  0.21280  0.49467  0.94623  1.0000
  S   S372      1.0  0.23985  0.53650  0.90485  1.0000
  S   S373      1.0  0.23743  0.50544  0.91494  1.0000
  C   C1397     1.0  0.37450  0.48638  0.96410  1.0000
  C   C1398     1.0  0.36221  0.59027  0.91624  1.0000
  C   C1399     1.0  0.28814  0.51727  0.95742  1.0000
  C   C1400     1.0  0.34507  0.97743  0.58601  1.0000
  Fe  Fe188     1.0  0.33034  0.53765  0.90930  1.0000
  S   S374      1.0  0.32824  0.52447  0.92981  1.0000
  S   S375      1.0  0.31329  0.54416  0.89887  1.0000
  Fe  Fe189     1.0  0.35752  0.54151  0.90946  1.0000
  S   S376      1.0  0.35745  0.52809  0.92970  1.0000
  S   S377      1.0  0.32690  0.97534  0.51793  1.0000
  Fe  Fe190     1.0  0.34939  0.51497  0.92252  1.0000
  S   S378      1.0  0.35620  0.49290  0.92932  1.0000
  Fe  Fe191     1.0  0.33639  0.53897  0.93477  1.0000
  S   S379      1.0  0.32685  0.54674  0.95333  1.0000
  S   S380      1.0  0.35124  0.52731  0.90155  1.0000
  S   S381      1.0  0.33671  0.55308  0.91500  1.0000
  H   H1643     1.0  0.30209  0.56263  0.92725  1.0000
  H   H1644     1.0  0.19102  0.56208  0.91859  1.0000
  H   H1645     1.0  0.36056  0.95674  0.55170  1.0000
  C   C1401     1.0  0.29964  0.48953  0.89994  1.0000
  C   C1402     1.0  0.34993  0.97381  0.52479  1.0000
  H   H1646     1.0  0.20891  0.55787  0.90241  1.0000
  C   C1403     1.0  0.23910  0.98185  0.52402  1.0000
  H   H1647     1.0  0.28238  0.96255  0.56742  1.0000
  H   H1648     1.0  0.28750  0.96978  0.52504  1.0000
  H   H1649     1.0  0.32956  0.97451  0.57005  1.0000
  H   H1650     1.0  0.30296  0.50856  0.88789  1.0000
  H   H1651     1.0  0.31636  0.88422  0.52318  1.0000
  N   N100      1.0  0.19866  0.53181  0.97562  1.0000
  C   C1404     1.0  0.37475  0.92138  0.57580  1.0000
  C   C1405     1.0  0.30531  0.49791  0.88851  1.0000
  C   C1406     1.0  0.27613  0.94317  0.55892  1.0000
  H   H1652     1.0  0.19561  0.91323  0.53983  1.0000
  H   H1653     1.0  0.34021  0.49961  0.90957  1.0000
  C   C1407     1.0  0.33893  0.54655  0.96144  1.0000
  C   C1408     1.0  0.35214  0.54554  0.95462  1.0000
  C   C1409     1.0  0.36193  0.54441  0.96134  1.0000
  H   H1654     1.0  0.25022  0.95231  0.53722  1.0000
  C   C1410     1.0  0.37112  0.92281  0.56373  1.0000
  H   H1655     1.0  0.36546  0.57761  0.97533  1.0000
  H   H1656     1.0  0.35482  0.54586  0.94411  1.0000
  C   C1411     1.0  0.34729  0.97996  0.59725  1.0000
  C   C1412     1.0  0.25813  0.93820  0.55324  1.0000
  C   C1413     1.0  0.36834  0.58539  0.94167  1.0000
  H   H1657     1.0  0.21501  0.53277  0.95850  1.0000
  H   H1658     1.0  0.32972  0.89973  0.51712  1.0000
  Fe  Fe192     1.0  0.24682  0.55807  0.97904  1.0000
  C   C1414     1.0  0.33953  0.97263  0.56337  1.0000
  H   H1659     1.0  0.18814  0.96150  0.54196  1.0000
  H   H1660     1.0  0.30286  0.88622  0.51586  1.0000
  C   C1415     1.0  0.24067  0.49048  0.97822  1.0000
  C   C1416     1.0  0.37643  0.49779  0.98021  1.0000
  C   C1417     1.0  0.25801  0.48949  0.88505  1.0000
  H   H1661     1.0  0.21364  0.52937  0.86045  1.0000
  H   H1662     1.0  0.20558  0.50490  0.92071  1.0000
  H   H1663     1.0  0.18915  0.89293  0.51373  1.0000
  H   H1664     1.0  0.33750  0.57866  0.95359  1.0000
  H   H1665     1.0  0.37583  0.58804  0.93291  1.0000
  H   H1666     1.0  0.33001  0.88980  0.49945  1.0000
  C   C1418     1.0  0.28540  0.97400  0.53398  1.0000
  H   H1667     1.0  0.27305  0.50099  0.87781  1.0000
  C   C1419     1.0  0.30030  0.97655  0.49085  1.0000
  C   C1420     1.0  0.22568  0.56520  0.93518  1.0000
  C   C1421     1.0  0.22518  0.57858  0.93438  1.0000
  C   C1422     1.0  0.23192  0.58196  0.94201  1.0000
  C   C1423     1.0  0.23879  0.57196  0.95077  1.0000
  C   C1424     1.0  0.23945  0.55864  0.95133  1.0000
  C   C1425     1.0  0.23305  0.55529  0.94348  1.0000
  H   H1668     1.0  0.21956  0.58632  0.92789  1.0000
  H   H1669     1.0  0.23142  0.59229  0.94148  1.0000
  H   H1670     1.0  0.24477  0.55082  0.95793  1.0000
  H   H1671     1.0  0.23353  0.54499  0.94424  1.0000
  C   C1426     1.0  0.28142  0.51960  0.91468  1.0000
  C   C1427     1.0  0.27886  0.53230  0.90652  1.0000
  C   C1428     1.0  0.28870  0.53978  0.90169  1.0000
  C   C1429     1.0  0.30107  0.53465  0.90510  1.0000
  C   C1430     1.0  0.30351  0.52203  0.91343  1.0000
  C   C1431     1.0  0.29371  0.51457  0.91825  1.0000
  H   H1672     1.0  0.26944  0.53625  0.90367  1.0000
  H   H1673     1.0  0.28677  0.54953  0.89521  1.0000
  H   H1674     1.0  0.31308  0.51783  0.91586  1.0000
  H   H1675     1.0  0.29575  0.50479  0.92462  1.0000
  H   H1676     1.0  0.18991  0.50288  0.87664  1.0000
  C   C1432     1.0  0.34707  0.58016  0.95328  1.0000
  H   H1677     1.0  0.36584  0.96886  0.55652  1.0000
  C   C1433     1.0  0.27781  0.56237  0.92948  1.0000
  C   C1434     1.0  0.36174  0.95973  0.56040  1.0000
  C   C1435     1.0  0.20490  0.49463  0.92407  1.0000
  H   H1678     1.0  0.30663  0.96146  0.54226  1.0000
  S   S382      1.0  0.24531  0.57598  0.96206  1.0000
  H   H1679     1.0  0.20057  0.58335  0.88302  1.0000
  C   C1436     1.0  0.35848  0.54452  0.97490  1.0000
  H   H1680     1.0  0.37650  0.51879  0.97172  1.0000
  C   C1437     1.0  0.20722  0.52600  0.88183  1.0000
  H   H1681     1.0  0.33690  0.60010  0.91813  1.0000
  N   N101      1.0  0.33059  0.49965  0.97407  1.0000
  H   H1682     1.0  0.31565  0.89263  0.49292  1.0000
  C   C1438     1.0  0.27598  0.95489  0.54862  1.0000
  H   H1683     1.0  0.27543  0.50449  0.95877  1.0000
  C   C1439     1.0  0.19028  0.60081  0.97443  1.0000
  H   H1684     1.0  0.34874  0.50311  0.97563  1.0000
  C   C1440     1.0  0.26738  0.93495  0.56111  1.0000
  H   H1685     1.0  0.20339  0.51936  0.95513  1.0000
  C   C1441     1.0  0.34384  0.94971  0.57465  1.0000
  C   C1442     1.0  0.27946  0.93249  0.49655  1.0000
  C   C1443     1.0  0.19248  0.53249  0.86659  1.0000
  H   H1686     1.0  0.34367  0.57500  0.97477  1.0000
  H   H1687     1.0  0.38130  0.58425  0.95415  1.0000
  H   H1688     1.0  0.19523  0.58013  0.90077  1.0000
  H   H1689     1.0  0.36275  0.91914  0.56375  1.0000
  H   H1690     1.0  0.34300  0.98211  0.55950  1.0000
  H   H1691     1.0  0.23031  0.49474  0.89541  1.0000
  C   C1444     1.0  0.20760  0.48734  0.93646  1.0000
  H   H1692     1.0  0.30683  0.93043  0.50684  1.0000
  H   H1693     1.0  0.19665  0.97252  0.51842  1.0000
  C   C1445     1.0  0.20526  0.52913  0.86886  1.0000
  H   H1694     1.0  0.36525  0.94640  0.58726  1.0000
  H   H1695     1.0  0.35322  0.96407  0.52257  1.0000
  S   S383      1.0  0.26144  0.53930  0.97575  1.0000
  H   H1696     1.0  0.37585  0.54626  0.92657  1.0000
  C   C1446     1.0  0.22828  0.97575  0.52941  1.0000
  C   C1447     1.0  0.22705  0.96610  0.52368  1.0000
  H   H1697     1.0  0.21617  0.53957  0.97125  1.0000
  H   H1698     1.0  0.33507  0.51823  0.96164  1.0000
  C   C1448     1.0  0.20148  0.48860  0.91587  1.0000
  C   C1449     1.0  0.24685  0.96927  0.50671  1.0000
  C   C1450     1.0  0.23583  0.96353  0.51185  1.0000
  C   C1451     1.0  0.19627  0.52568  0.89266  1.0000
  C   C1452     1.0  0.38387  0.60563  0.97684  1.0000
  H   H1699     1.0  0.25413  0.96654  0.49809  1.0000
  H   H1700     1.0  0.23450  0.95655  0.50703  1.0000
  C   C1453     1.0  0.27691  0.90611  0.54407  1.0000
  C   C1454     1.0  0.28347  0.89884  0.55430  1.0000
  C   C1455     1.0  0.29369  0.90306  0.55644  1.0000
  C   C1456     1.0  0.29783  0.91443  0.54816  1.0000
  C   C1457     1.0  0.29138  0.92179  0.53778  1.0000
  C   C1458     1.0  0.28085  0.91767  0.53579  1.0000
  H   H1701     1.0  0.28053  0.88991  0.56074  1.0000
  H   H1702     1.0  0.29846  0.89740  0.56458  1.0000
  H   H1703     1.0  0.29419  0.93084  0.53159  1.0000
  H   H1704     1.0  0.27579  0.92340  0.52791  1.0000
  H   H1705     1.0  0.19983  0.56831  0.87023  1.0000
  C   C1459     1.0  0.18783  0.49287  0.87829  1.0000
  C   C1460     1.0  0.37863  0.92852  0.55163  1.0000
  H   H1706     1.0  0.32955  0.49389  0.95670  1.0000
  H   H1707     1.0  0.28869  0.55420  0.95823  1.0000
  C   C1461     1.0  0.36279  0.57949  0.96583  1.0000
  H   H1708     1.0  0.20395  0.90124  0.49155  1.0000
  H   H1709     1.0  0.34182  0.94711  0.56615  1.0000
  S   S384      1.0  0.37533  0.92934  0.53610  1.0000
  C   C1462     1.0  0.24869  0.97811  0.51306  1.0000
  H   H1710     1.0  0.22143  0.97785  0.53852  1.0000
  H   H1711     1.0  0.19964  0.49426  0.90622  1.0000
  H   H1712     1.0  0.24597  0.49357  0.94159  1.0000
  H   H1713     1.0  0.20627  0.54636  0.89461  1.0000
  H   H1714     1.0  0.30294  0.54642  0.92515  1.0000
  C   C1463     1.0  0.35587  0.58397  0.94097  1.0000
  C   C1464     1.0  0.36006  0.95589  0.58971  1.0000
  C   C1465     1.0  0.35050  0.57803  0.96549  1.0000
  C   C1466     1.0  0.27758  0.51428  0.95469  1.0000
  H   H1715     1.0  0.19768  0.52316  0.90273  1.0000
  C   C1467     1.0  0.30143  0.91310  0.50458  1.0000
  H   H1716     1.0  0.37952  0.61607  0.97652  1.0000
  H   H1717     1.0  0.36792  0.97257  0.53045  1.0000
  C   C1468     1.0  0.20901  0.53850  0.96613  1.0000
  H   H1718     1.0  0.28315  0.94011  0.56525  1.0000
  S   S385      1.0  0.34985  0.92088  0.49029  1.0000
  H   H1719     1.0  0.31910  0.51617  0.96229  1.0000
  H   H1720     1.0  0.25156  0.93165  0.55477  1.0000
  H   H1721     1.0  0.20763  0.58362  0.96103  1.0000
  H   H1722     1.0  0.27321  0.91619  0.49411  1.0000
  H   H1723     1.0  0.32247  0.51999  0.97629  1.0000
  N   N102      1.0  0.28572  0.55358  0.93925  1.0000
  C   C1469     1.0  0.28276  0.56000  0.95066  1.0000
  C   C1470     1.0  0.29989  0.55272  0.93259  1.0000
  H   H1724     1.0  0.37134  0.58228  0.91582  1.0000
  C   C1471     1.0  0.28293  0.54009  0.94422  1.0000
  C   C1472     1.0  0.29073  0.53001  0.95240  1.0000
  C   C1473     1.0  0.27223  0.53667  0.94161  1.0000
  H   H1725     1.0  0.29844  0.96869  0.49960  1.0000
  C   C1474     1.0  0.26961  0.52396  0.94688  1.0000
  H   H1726     1.0  0.32499  0.94030  0.48983  1.0000
  H   H1727     1.0  0.27216  0.56105  0.95583  1.0000
  H   H1728     1.0  0.30652  0.54846  0.93972  1.0000
  H   H1729     1.0  0.28487  0.57013  0.94738  1.0000
  H   H1730     1.0  0.23220  0.97651  0.48543  1.0000
  H   H1731     1.0  0.37493  0.51872  0.94951  1.0000
  H   H1732     1.0  0.33304  0.48523  0.89959  1.0000
  C   C1475     1.0  0.36224  0.95854  0.60087  1.0000
  H   H1733     1.0  0.30082  0.94844  0.55502  1.0000
  H   H1734     1.0  0.32472  0.90547  0.48872  1.0000
  H   H1735     1.0  0.29873  0.53204  0.95515  1.0000
  H   H1736     1.0  0.26567  0.54361  0.93558  1.0000
  H   H1737     1.0  0.21813  0.57646  0.97265  1.0000
  H   H1738     1.0  0.26130  0.52161  0.94490  1.0000
  H   H1739     1.0  0.21068  0.61225  0.97241  1.0000
  H   H1740     1.0  0.20465  0.54857  0.96077  1.0000
  C   C1476     1.0  0.32653  0.51410  0.96840  1.0000
  H   H1741     1.0  0.34508  0.49743  0.95579  1.0000
  H   H1742     1.0  0.27952  0.55791  0.92075  1.0000
  H   H1743     1.0  0.38429  0.97454  0.59573  1.0000
  C   C1477     1.0  0.29914  0.95522  0.54539  1.0000
  H   H1744     1.0  0.36481  0.59963  0.91610  1.0000
  C   C1478     1.0  0.29161  0.90962  0.50059  1.0000
  H   H1745     1.0  0.36892  0.95117  0.60662  1.0000
  H   H1746     1.0  0.26505  0.96692  0.53322  1.0000
  C   C1479     1.0  0.26620  0.95808  0.54100  1.0000
  C   C1480     1.0  0.35579  0.97051  0.60470  1.0000
  H   H1747     1.0  0.21117  0.51237  0.97400  1.0000
  H   H1748     1.0  0.35702  0.56586  0.92781  1.0000
  C   C1481     1.0  0.20791  0.58175  0.97173  1.0000
  H   H1749     1.0  0.29295  0.97991  0.53232  1.0000
  H   H1750     1.0  0.37214  0.54351  0.95603  1.0000
  H   H1751     1.0  0.34190  0.60669  0.92921  1.0000
  C   C1482     1.0  0.35134  0.96520  0.58195  1.0000
  C   C1483     1.0  0.37504  0.50962  0.95719  1.0000
  H   H1752     1.0  0.19148  0.55501  0.87792  1.0000
  H   H1753     1.0  0.27088  0.93981  0.49385  1.0000
  N   N103      1.0  0.28544  0.96339  0.54639  1.0000
  H   H1754     1.0  0.28895  0.97639  0.55654  1.0000
  C   C1484     1.0  0.28903  0.93632  0.50016  1.0000
  C   C1485     1.0  0.37428  0.49806  0.95425  1.0000
  C   C1486     1.0  0.25750  0.94978  0.54327  1.0000
  N   N104      1.0  0.34907  0.96199  0.57030  1.0000
  C   C1487     1.0  0.33996  0.59758  0.92781  1.0000
  S   S386      1.0  0.23833  0.51705  0.97469  1.0000
  C   C1488     1.0  0.29991  0.92682  0.50403  1.0000
  H   H1755     1.0  0.28047  0.57226  0.92552  1.0000
  C   C1489     1.0  0.28078  0.91918  0.49673  1.0000
  H   H1756     1.0  0.37354  0.49814  0.94431  1.0000
  N   N105      1.0  0.19303  0.56548  0.89169  1.0000
  C   C1490     1.0  0.19318  0.52433  0.95800  1.0000
  C   C1491     1.0  0.34854  0.57448  0.92696  1.0000
  H   H1757     1.0  0.35090  0.94092  0.57893  1.0000
  H   H1758     1.0  0.21424  0.55957  0.88485  1.0000
  H   H1759     1.0  0.35907  0.59180  0.90675  1.0000
  C   C1492     1.0  0.30808  0.89173  0.51930  1.0000
  H   H1760     1.0  0.33994  0.57163  0.93477  1.0000
  H   H1761     1.0  0.31888  0.49909  0.86942  1.0000
  C   C1493     1.0  0.37168  0.58319  0.95394  1.0000
  C   C1494     1.0  0.38213  0.55309  0.92091  1.0000
  H   H1762     1.0  0.38343  0.97418  0.61868  1.0000
  H   H1763     1.0  0.29417  0.50976  0.96366  1.0000
  C   C1495     1.0  0.25231  0.48422  0.94521  1.0000
  H   H1764     1.0  0.19139  0.93333  0.51652  1.0000
  C   C1496     1.0  0.37603  0.50953  0.96995  1.0000
  H   H1765     1.0  0.34620  0.57580  0.91712  1.0000
  H   H1766     1.0  0.33825  0.96997  0.55453  1.0000
  N   N106      1.0  0.35183  0.58654  0.92818  1.0000
  C   C1497     1.0  0.19397  0.90297  0.52593  1.0000
  H   H1767     1.0  0.31574  0.91186  0.52289  1.0000
  H   H1768     1.0  0.33131  0.59505  0.93576  1.0000
  C   C1498     1.0  0.32135  0.90773  0.51398  1.0000
  H   H1769     1.0  0.26705  0.56443  0.93413  1.0000
  C   C1499     1.0  0.28204  0.96991  0.55778  1.0000
  H   H1770     1.0  0.26799  0.92580  0.56871  1.0000
  H   H1771     1.0  0.25042  0.49839  0.88616  1.0000
  H   H1772     1.0  0.30145  0.94893  0.53803  1.0000
  H   H1773     1.0  0.27189  0.97636  0.55871  1.0000
  H   H1774     1.0  0.21172  0.60644  0.95782  1.0000
  C   C1500     1.0  0.26412  0.48422  0.94802  1.0000
  H   H1775     1.0  0.27579  0.98131  0.53447  1.0000
  H   H1776     1.0  0.36901  0.91674  0.58511  1.0000
  H   H1777     1.0  0.32596  0.91545  0.50632  1.0000
  H   H1778     1.0  0.30112  0.89556  0.52794  1.0000
  H   H1779     1.0  0.26685  0.49356  0.94662  1.0000
  H   H1780     1.0  0.35740  0.97248  0.61345  1.0000
  H   H1781     1.0  0.35108  0.97181  0.49385  1.0000
  C   C1501     1.0  0.38325  0.55750  0.90712  1.0000
  H   H1782     1.0  0.29303  0.49404  0.90782  1.0000
  C   C1502     1.0  0.38580  0.92579  0.57591  1.0000
  C   C1503     1.0  0.20613  0.55698  0.89351  1.0000
  C   C1504     1.0  0.34280  0.48890  0.91284  1.0000
  C   C1505     1.0  0.33679  0.49301  0.96268  1.0000
  H   H1783     1.0  0.28784  0.94666  0.50026  1.0000
  H   H1784     1.0  0.33448  0.95085  0.58238  1.0000
  H   H1785     1.0  0.36939  0.95168  0.56464  1.0000
  N   N107      1.0  0.20380  0.59422  0.97663  1.0000
  H   H1786     1.0  0.29212  0.89944  0.50055  1.0000
  H   H1787     1.0  0.18767  0.51774  0.94350  1.0000
  C   C1506     1.0  0.19299  0.57935  0.89151  1.0000
  H   H1788     1.0  0.20147  0.57471  0.97751  1.0000
  H   H1789     1.0  0.23166  0.49309  0.97464  1.0000
  H   H1790     1.0  0.24444  0.90933  0.48592  1.0000
  C   C1507     1.0  0.27103  0.49113  0.88028  1.0000
  C   C1508     1.0  0.35825  0.97859  0.52936  1.0000
  C   C1509     1.0  0.18903  0.53139  0.96838  1.0000
  C   C1510     1.0  0.18895  0.91003  0.53612  1.0000
  C   C1511     1.0  0.18723  0.98007  0.51932  1.0000
  H   H1791     1.0  0.22335  0.59833  0.96792  1.0000
  H   H1792     1.0  0.19636  0.92473  0.48448  1.0000
  C   C1512     1.0  0.23123  0.48697  0.89000  1.0000
  C   C1513     1.0  0.33748  0.98158  0.52316  1.0000
  H   H1793     1.0  0.23351  0.49133  0.87908  1.0000
  H   H1794     1.0  0.22115  0.48497  0.89259  1.0000
  H   H1795     1.0  0.32516  0.54816  0.98017  1.0000
  H   H1796     1.0  0.37523  0.97883  0.57723  1.0000
  H   H1797     1.0  0.19006  0.60344  0.96364  1.0000
  C   C1514     1.0  0.20139  0.89939  0.48292  1.0000
  C   C1515     1.0  0.37552  0.48616  0.97693  1.0000
  H   H1798     1.0  0.19861  0.88957  0.48633  1.0000
  H   H1799     1.0  0.19316  0.48904  0.86913  1.0000
  H   H1800     1.0  0.19224  0.48651  0.88680  1.0000
  C   C1516     1.0  0.35353  0.97536  0.48309  1.0000
  S   S387      1.0  0.26339  0.98370  0.50774  1.0000
  C   C1517     1.0  0.38170  0.98366  0.61167  1.0000
  Fe  Fe193     1.0  0.54375  0.03731  0.24999  1.0000
  S   S388      1.0  0.53288  0.25712  0.99216  1.0000
  N   N108      1.0  0.55658  0.07557  0.22304  1.0000
  C   C1518     1.0  0.47258  0.09294  0.36411  1.0000
  S   S389      1.0  0.53928  0.03852  0.36762  1.0000
  Fe  Fe194     1.0  0.55626  0.03194  0.33196  1.0000
  S   S390      1.0  0.53568  0.02941  0.34188  1.0000
  S   S391      1.0  0.56715  0.02315  0.31408  1.0000
  Fe  Fe195     1.0  0.53278  0.04824  0.34817  1.0000
  S   S392      1.0  0.51290  0.06203  0.34711  1.0000
  Fe  Fe196     1.0  0.54382  0.01984  0.36016  1.0000
  S   S393      1.0  0.55282  0.05201  0.33643  1.0000
  Fe  Fe197     1.0  0.45813  0.04709  0.32235  1.0000
  C   C1519     1.0  0.40143  0.29350  0.02358  1.0000
  S   S394      1.0  0.47477  0.05800  0.31384  1.0000
  H   H1801     1.0  0.49206  0.05712  0.18665  1.0000
  S   S395      1.0  0.45648  0.03224  0.31211  1.0000
  H   H1802     1.0  0.47108  0.05141  0.15667  1.0000
  H   H1803     1.0  0.49167  0.99963  0.19454  1.0000
  H   H1804     1.0  0.52386  0.10426  0.98516  1.0000
  H   H1805     1.0  0.46348  0.08439  0.17589  1.0000
  N   N109      1.0  0.40919  0.05766  0.05497  1.0000
  H   H1806     1.0  0.48592  0.08315  0.16378  1.0000
  S   S396      1.0  0.43672  0.05770  0.32386  1.0000
  Fe  Fe198     1.0  0.42179  0.02418  0.09445  1.0000
  S   S397      1.0  0.43320  0.01212  0.10996  1.0000
  Fe  Fe199     1.0  0.42851  0.04996  0.09388  1.0000
  S   S398      1.0  0.44031  0.04044  0.10961  1.0000
  S   S399      1.0  0.42562  0.07205  0.08464  1.0000
  Fe  Fe200     1.0  0.44848  0.02392  0.09862  1.0000
  S   S400      1.0  0.47006  0.01447  0.09647  1.0000
  Fe  Fe201     1.0  0.42443  0.02915  0.12027  1.0000
  S   S401      1.0  0.41959  0.02163  0.14261  1.0000
  S   S402      1.0  0.43810  0.03435  0.08184  1.0000
  S   S403      1.0  0.41149  0.04036  0.10573  1.0000
  C   C1520     1.0  0.56955  0.04359  0.38784  1.0000
  S   S404      1.0  0.51708  0.05682  0.12752  1.0000
  S   S405      1.0  0.45090  0.02473  0.22705  1.0000
  Fe  Fe202     1.0  0.44897  0.10857  0.01007  1.0000
  S   S406      1.0  0.45680  0.12606  0.00958  1.0000
  S   S407      1.0  0.45397  0.08854  0.02389  1.0000
  N   N110      1.0  0.55750  0.00718  0.09067  1.0000
  H   H1807     1.0  0.49531  0.01875  0.09584  1.0000
  H   H1808     1.0  0.51821  0.32992  0.03033  1.0000
  Fe  Fe203     1.0  0.54871  0.02664  0.22507  1.0000
  Fe  Fe204     1.0  0.43794  0.13843  0.00367  1.0000
  S   S408      1.0  0.42530  0.15748  0.00937  1.0000
  C   C1521     1.0  0.40333  0.31567  0.02274  1.0000
  S   S409      1.0  0.42931  0.12086  0.00598  1.0000
  S   S410      1.0  0.52535  0.14059  0.03561  1.0000
  H   H1809     1.0  0.47155  0.08775  0.04589  1.0000
  H   H1810     1.0  0.52072  0.05242  0.18900  1.0000
  H   H1811     1.0  0.51663  0.14216  0.99227  1.0000
  H   H1812     1.0  0.45842  0.00028  0.21375  1.0000
  S   S411      1.0  0.42138  0.03885  0.22050  1.0000
  Fe  Fe205     1.0  0.45903  0.03131  0.20523  1.0000
  S   S412      1.0  0.44681  0.05202  0.20356  1.0000
  H   H1813     1.0  0.49258  0.05055  0.15529  1.0000
  Fe  Fe206     1.0  0.43761  0.04501  0.22521  1.0000
  S   S413      1.0  0.43795  0.05762  0.23882  1.0000
  Fe  Fe207     1.0  0.43197  0.04399  0.19892  1.0000
  S   S414      1.0  0.42318  0.05527  0.18107  1.0000
  C   C1522     1.0  0.54974  0.18554  0.01691  1.0000
  S   S415      1.0  0.44522  0.02389  0.19852  1.0000
  Fe  Fe208     1.0  0.52086  0.03592  0.23988  1.0000
  S   S416      1.0  0.53763  0.04611  0.23039  1.0000
  S   S417      1.0  0.50015  0.04620  0.23847  1.0000
  C   C1523     1.0  0.45629  0.99112  0.21352  1.0000
  Fe  Fe209     1.0  0.43107  0.34577  0.99739  1.0000
  Fe  Fe210     1.0  0.44169  0.22101  0.01193  1.0000
  S   S418      1.0  0.40861  0.01826  0.08516  1.0000
  S   S419      1.0  0.53961  0.99991  0.37104  1.0000
  Fe  Fe211     1.0  0.43191  0.24910  0.01750  1.0000
  H   H1814     1.0  0.42018  0.01157  0.28201  1.0000
  S   S420      1.0  0.42453  0.25981  0.03431  1.0000
  S   S421      1.0  0.50099  0.15788  0.01133  1.0000
  H   H1815     1.0  0.47923  0.07224  0.10271  1.0000
  H   H1816     1.0  0.48773  0.20852  0.00703  1.0000
  S   S422      1.0  0.48101  0.02675  0.19830  1.0000
  S   S423      1.0  0.45175  0.23537  0.01457  1.0000
  C   C1524     1.0  0.48901  0.13101  0.04649  1.0000
  S   S424      1.0  0.55893  0.36259  0.99801  1.0000
  Fe  Fe212     1.0  0.55739  0.32614  0.01675  1.0000
  S   S425      1.0  0.54958  0.33569  0.99823  1.0000
  H   H1817     1.0  0.56370  0.98823  0.44042  1.0000
  H   H1818     1.0  0.40069  0.04063  0.05846  1.0000
  Fe  Fe213     1.0  0.54117  0.35338  0.00746  1.0000
  S   S426      1.0  0.51995  0.36435  0.00721  1.0000
  S   S427      1.0  0.54816  0.34351  0.02657  1.0000
  H   H1819     1.0  0.49564  0.07308  0.08255  1.0000
  Fe  Fe214     1.0  0.55960  0.04085  0.35552  1.0000
  H   H1820     1.0  0.45691  0.08238  0.09630  1.0000
  H   H1821     1.0  0.40507  0.32257  0.02742  1.0000
  Fe  Fe215     1.0  0.43920  0.33000  0.02286  1.0000
  S   S428      1.0  0.45050  0.34460  0.02308  1.0000
  S   S429      1.0  0.43901  0.31137  0.03893  1.0000
  H   H1822     1.0  0.42749  0.06992  0.03383  1.0000
  S   S430      1.0  0.44232  0.36131  0.99460  1.0000
  H   H1823     1.0  0.56593  0.38354  0.01593  1.0000
  Fe  Fe216     1.0  0.45840  0.34441  0.00141  1.0000
  S   S431      1.0  0.48023  0.34006  0.99210  1.0000
  Fe  Fe217     1.0  0.43340  0.36032  0.01642  1.0000
  S   S432      1.0  0.42483  0.38015  0.02216  1.0000
  S   S433      1.0  0.44810  0.32885  0.00162  1.0000
  S   S434      1.0  0.42122  0.34572  0.01873  1.0000
  C   C1525     1.0  0.40786  0.38666  0.02257  1.0000
  C   C1526     1.0  0.40348  0.40018  0.01715  1.0000
  H   H1824     1.0  0.39192  0.27286  0.02072  1.0000
  C   C1527     1.0  0.39857  0.37886  0.02935  1.0000
  H   H1825     1.0  0.41062  0.40627  0.01191  1.0000
  H   H1826     1.0  0.46464  0.05337  0.08116  1.0000
  H   H1827     1.0  0.40186  0.36846  0.03374  1.0000
  C   C1528     1.0  0.50886  0.35687  0.00393  1.0000
  C   C1529     1.0  0.49521  0.36231  0.00693  1.0000
  C   C1530     1.0  0.48621  0.35691  0.00388  1.0000
  C   C1531     1.0  0.49087  0.34624  0.99750  1.0000
  C   C1532     1.0  0.50446  0.34076  0.99461  1.0000
  C   C1533     1.0  0.51342  0.34597  0.99787  1.0000
  H   H1828     1.0  0.49158  0.37078  0.01155  1.0000
  H   H1829     1.0  0.47574  0.36128  0.00609  1.0000
  C   C1534     1.0  0.53691  0.98771  0.13051  1.0000
  H   H1830     1.0  0.52384  0.34184  0.99526  1.0000
  Fe  Fe218     1.0  0.51855  0.14257  0.01709  1.0000
  C   C1535     1.0  0.50085  0.18961  0.02533  1.0000
  H   H1831     1.0  0.46962  0.01569  0.15620  1.0000
  H   H1832     1.0  0.47529  0.20401  0.04335  1.0000
  Fe  Fe219     1.0  0.55093  0.24974  0.00050  1.0000
  C   C1536     1.0  0.48850  0.02121  0.10480  1.0000
  C   C1537     1.0  0.50905  0.20348  0.03409  1.0000
  C   C1538     1.0  0.53210  0.00368  0.20428  1.0000
  C   C1539     1.0  0.43572  0.29706  0.03665  1.0000
  C   C1540     1.0  0.43149  0.28782  0.04810  1.0000
  C   C1541     1.0  0.42839  0.27641  0.04708  1.0000
  C   C1542     1.0  0.42986  0.27380  0.03460  1.0000
  C   C1543     1.0  0.43451  0.28280  0.02299  1.0000
  C   C1544     1.0  0.43729  0.29455  0.02402  1.0000
  H   H1833     1.0  0.43028  0.28964  0.05786  1.0000
  H   H1834     1.0  0.42473  0.26957  0.05606  1.0000
  H   H1835     1.0  0.43550  0.28095  0.01330  1.0000
  H   H1836     1.0  0.44055  0.30165  0.01511  1.0000
  H   H1837     1.0  0.57772  0.98828  0.34568  1.0000
  C   C1545     1.0  0.47762  0.04066  0.21726  1.0000
  C   C1546     1.0  0.48191  0.04519  0.22599  1.0000
  C   C1547     1.0  0.49528  0.04195  0.22623  1.0000
  H   H1838     1.0  0.48512  0.04202  0.17167  1.0000
  C   C1548     1.0  0.46961  0.06712  0.16686  1.0000
  H   H1839     1.0  0.46726  0.04322  0.21729  1.0000
  H   H1840     1.0  0.47479  0.05100  0.23272  1.0000
  H   H1841     1.0  0.46145  0.07554  0.06745  1.0000
  Fe  Fe220     1.0  0.56785  0.34385  0.99059  1.0000
  C   C1549     1.0  0.49672  0.15226  0.99959  1.0000
  H   H1842     1.0  0.48673  0.13394  0.05621  1.0000
  H   H1843     1.0  0.51393  0.09188  0.99002  1.0000
  C   C1550     1.0  0.47891  0.25980  0.01005  1.0000
  C   C1551     1.0  0.39997  0.98582  0.12081  1.0000
  H   H1844     1.0  0.47527  0.05545  0.19027  1.0000
  C   C1552     1.0  0.54913  0.28444  0.02249  1.0000
  H   H1845     1.0  0.52441  0.31505  0.00065  1.0000
  Fe  Fe221     1.0  0.50803  0.03950  0.13062  1.0000
  C   C1553     1.0  0.49985  0.25161  0.99615  1.0000
  H   H1846     1.0  0.48828  0.05631  0.09888  1.0000
  N   N111      1.0  0.48778  0.21298  0.02552  1.0000
  Fe  Fe222     1.0  0.54560  0.13690  0.02243  1.0000
  C   C1554     1.0  0.49055  0.05005  0.16619  1.0000
  H   H1847     1.0  0.52836  0.17218  0.03707  1.0000
  C   C1555     1.0  0.43281  0.16916  0.01143  1.0000
  C   C1556     1.0  0.44530  0.16536  0.01446  1.0000
  C   C1557     1.0  0.45057  0.17475  0.01703  1.0000
  C   C1558     1.0  0.44363  0.18801  0.01608  1.0000
  C   C1559     1.0  0.43136  0.19191  0.01258  1.0000
  C   C1560     1.0  0.42587  0.18245  0.01049  1.0000
  H   H1848     1.0  0.45069  0.15515  0.01522  1.0000
  Fe  Fe223     1.0  0.45260  0.24397  0.99291  1.0000
  H   H1849     1.0  0.42590  0.20211  0.01193  1.0000
  H   H1850     1.0  0.41613  0.18542  0.00835  1.0000
  H   H1851     1.0  0.47845  0.11539  0.06668  1.0000
  C   C1561     1.0  0.45055  0.00280  0.15320  1.0000
  H   H1852     1.0  0.54634  0.16993  0.00992  1.0000
  H   H1853     1.0  0.49586  0.13720  0.03943  1.0000
  C   C1562     1.0  0.48348  0.15469  0.99898  1.0000
  C   C1563     1.0  0.47976  0.14802  0.99156  1.0000
  H   H1854     1.0  0.55038  0.99524  0.32479  1.0000
  H   H1855     1.0  0.40504  0.99238  0.34927  1.0000
  H   H1856     1.0  0.47603  0.16108  0.00484  1.0000
  C   C1564     1.0  0.40196  0.99733  0.12285  1.0000
  C   C1565     1.0  0.53804  0.08691  0.06366  1.0000
  H   H1857     1.0  0.40239  0.00606  0.11473  1.0000
  H   H1858     1.0  0.54349  0.09121  0.05401  1.0000
  S   S435      1.0  0.55657  0.01859  0.24386  1.0000
  H   H1859     1.0  0.39955  0.06029  0.07503  1.0000
  C   C1566     1.0  0.43322  0.07667  0.06765  1.0000
  C   C1567     1.0  0.44323  0.06756  0.06136  1.0000
  C   C1568     1.0  0.44957  0.07146  0.04800  1.0000
  C   C1569     1.0  0.44568  0.08437  0.04066  1.0000
  C   C1570     1.0  0.43550  0.09348  0.04683  1.0000
  C   C1571     1.0  0.42938  0.08967  0.06037  1.0000
  H   H1860     1.0  0.44645  0.05762  0.06686  1.0000
  H   H1861     1.0  0.45752  0.06440  0.04330  1.0000
  H   H1862     1.0  0.43241  0.10344  0.04119  1.0000
  H   H1863     1.0  0.42159  0.09676  0.06518  1.0000
  C   C1572     1.0  0.42281  0.04571  0.17027  1.0000
  C   C1573     1.0  0.42293  0.05164  0.15676  1.0000
  C   C1574     1.0  0.42231  0.04426  0.14807  1.0000
  C   C1575     1.0  0.42110  0.03105  0.15297  1.0000
  C   C1576     1.0  0.42089  0.02515  0.16649  1.0000
  C   C1577     1.0  0.42197  0.03239  0.17507  1.0000
  H   H1864     1.0  0.42340  0.06200  0.15304  1.0000
  H   H1865     1.0  0.42234  0.04892  0.13769  1.0000
  H   H1866     1.0  0.41966  0.01503  0.17040  1.0000
  H   H1867     1.0  0.42159  0.02783  0.18552  1.0000
  C   C1578     1.0  0.47575  0.01893  0.10805  1.0000
  C   C1579     1.0  0.46699  0.02199  0.11971  1.0000
  C   C1580     1.0  0.47045  0.02862  0.12733  1.0000
  C   C1581     1.0  0.48296  0.03157  0.12371  1.0000
  H   H1868     1.0  0.45732  0.01970  0.12258  1.0000
  H   H1869     1.0  0.46330  0.03177  0.13583  1.0000
  C   C1582     1.0  0.42690  0.04560  0.28447  1.0000
  C   C1583     1.0  0.43552  0.05417  0.27811  1.0000
  C   C1584     1.0  0.43861  0.05797  0.26409  1.0000
  C   C1585     1.0  0.43358  0.05278  0.25636  1.0000
  C   C1586     1.0  0.42511  0.04406  0.26272  1.0000
  C   C1587     1.0  0.42157  0.04072  0.27675  1.0000
  H   H1870     1.0  0.43951  0.05815  0.28398  1.0000
  H   H1871     1.0  0.44499  0.06491  0.25920  1.0000
  H   H1872     1.0  0.42095  0.04028  0.25684  1.0000
  Fe  Fe224     1.0  0.52227  0.24725  0.01197  1.0000
  H   H1873     1.0  0.45108  0.01345  0.15046  1.0000
  H   H1874     1.0  0.46830  0.20624  0.99412  1.0000
  C   C1588     1.0  0.40045  0.04072  0.36309  1.0000
  C   C1589     1.0  0.46503  0.06015  0.16018  1.0000
  H   H1875     1.0  0.54343  0.19349  0.01130  1.0000
  H   H1876     1.0  0.41765  0.40845  0.07912  1.0000
  H   H1877     1.0  0.40543  0.03940  0.35313  1.0000
  H   H1878     1.0  0.50080  0.07058  0.16347  1.0000
  N   N112      1.0  0.48306  0.06301  0.16954  1.0000
  C   C1590     1.0  0.50403  0.05903  0.33712  1.0000
  C   C1591     1.0  0.50299  0.06775  0.32482  1.0000
  C   C1592     1.0  0.49433  0.06692  0.31764  1.0000
  C   C1593     1.0  0.48642  0.05753  0.32277  1.0000
  C   C1594     1.0  0.48772  0.04844  0.33488  1.0000
  C   C1595     1.0  0.49652  0.04923  0.34206  1.0000
  H   H1879     1.0  0.50860  0.07546  0.32103  1.0000
  H   H1880     1.0  0.49344  0.07393  0.30826  1.0000
  H   H1881     1.0  0.48177  0.04106  0.33883  1.0000
  H   H1882     1.0  0.49713  0.04265  0.35167  1.0000
  C   C1596     1.0  0.56423  0.02364  0.28941  1.0000
  C   C1597     1.0  0.57608  0.00825  0.40159  1.0000
  Fe  Fe225     1.0  0.46437  0.12653  0.98771  1.0000
  S   S436      1.0  0.48643  0.04129  0.13249  1.0000
  H   H1883     1.0  0.51215  0.16949  0.02622  1.0000
  S   S437      1.0  0.55679  0.23053  0.99379  1.0000
  H   H1884     1.0  0.49463  0.12050  0.04760  1.0000
  H   H1885     1.0  0.46164  0.26012  0.00351  1.0000
  Fe  Fe226     1.0  0.53739  0.23709  0.98759  1.0000
  H   H1886     1.0  0.41709  0.05890  0.07072  1.0000
  H   H1887     1.0  0.57575  0.31927  0.98333  1.0000
  H   H1888     1.0  0.56966  0.40571  0.01470  1.0000
  H   H1889     1.0  0.55741  0.99480  0.18364  1.0000
  C   C1598     1.0  0.53042  0.00859  0.19123  1.0000
  H   H1890     1.0  0.57170  0.08591  0.21079  1.0000
  H   H1891     1.0  0.50698  0.10892  0.98399  1.0000
  N   N113      1.0  0.49594  0.00622  0.36747  1.0000
  H   H1892     1.0  0.42340  0.00316  0.31610  1.0000
  H   H1893     1.0  0.51862  0.07128  0.09838  1.0000
  C   C1599     1.0  0.48709  0.22517  0.02990  1.0000
  H   H1894     1.0  0.50141  0.01458  0.34643  1.0000
  H   H1895     1.0  0.39517  0.07646  0.05562  1.0000
  H   H1896     1.0  0.44873  0.05849  0.15334  1.0000
  H   H1897     1.0  0.56853  0.23723  0.01405  1.0000
  H   H1898     1.0  0.49549  0.99743  0.38830  1.0000
  H   H1899     1.0  0.49670  0.18115  0.99023  1.0000
  C   C1600     1.0  0.39939  0.31079  0.00362  1.0000
  C   C1601     1.0  0.48560  0.01832  0.36978  1.0000
  C   C1602     1.0  0.39914  0.05142  0.05359  1.0000
  H   H1900     1.0  0.51135  0.99333  0.37745  1.0000
  H   H1901     1.0  0.44100  0.09092  0.17225  1.0000
  C   C1603     1.0  0.48938  0.13931  0.98436  1.0000
  H   H1902     1.0  0.45263  0.06671  0.10495  1.0000
  C   C1604     1.0  0.51139  0.19088  0.99001  1.0000
  Fe  Fe227     1.0  0.43587  0.01918  0.22032  1.0000
  C   C1605     1.0  0.47105  0.99426  0.16074  1.0000
  H   H1903     1.0  0.55463  0.00793  0.38384  1.0000
  C   C1606     1.0  0.53800  0.03994  0.19586  1.0000
  C   C1607     1.0  0.55978  0.00513  0.39189  1.0000
  C   C1608     1.0  0.47085  0.05235  0.08826  1.0000
  C   C1609     1.0  0.56243  0.27434  0.00402  1.0000
  H   H1904     1.0  0.54496  0.03329  0.08329  1.0000
  H   H1905     1.0  0.40945  0.27029  0.01379  1.0000
  H   H1906     1.0  0.47329  0.26369  0.01877  1.0000
  S   S438      1.0  0.52432  0.02957  0.11610  1.0000
  S   S439      1.0  0.45516  0.03408  0.34287  1.0000
  H   H1907     1.0  0.46938  0.99188  0.11839  1.0000
  H   H1908     1.0  0.53418  0.04145  0.20592  1.0000
  C   C1610     1.0  0.49624  0.00190  0.29476  1.0000
  S   S440      1.0  0.45046  0.19942  0.01952  1.0000
  H   H1909     1.0  0.51126  0.02702  0.07464  1.0000
  C   C1611     1.0  0.52777  0.03148  0.07868  1.0000
  C   C1612     1.0  0.49806  0.99638  0.18535  1.0000
  H   H1910     1.0  0.57020  0.15127  0.99469  1.0000
  C   C1613     1.0  0.40940  0.00172  0.08493  1.0000
  H   H1911     1.0  0.44409  0.02134  0.04795  1.0000
  C   C1614     1.0  0.48229  0.06176  0.18391  1.0000
  C   C1615     1.0  0.46067  0.07852  0.17087  1.0000
  Fe  Fe228     1.0  0.54482  0.22284  0.01396  1.0000
  S   S441      1.0  0.43193  0.99887  0.22937  1.0000
  H   H1912     1.0  0.58065  0.41596  0.06368  1.0000
  C   C1616     1.0  0.45684  0.02259  0.27259  1.0000
  H   H1913     1.0  0.58350  0.01366  0.40059  1.0000
  C   C1617     1.0  0.47925  0.01679  0.27719  1.0000
  H   H1914     1.0  0.47738  0.00919  0.25624  1.0000
  H   H1915     1.0  0.49148  0.99049  0.12095  1.0000
  H   H1916     1.0  0.56531  0.08924  0.22726  1.0000
  C   C1618     1.0  0.56969  0.01143  0.39105  1.0000
  C   C1619     1.0  0.56825  0.01207  0.07992  1.0000
  C   C1620     1.0  0.48666  0.03297  0.20864  1.0000
  H   H1917     1.0  0.40346  0.05255  0.38814  1.0000
  C   C1621     1.0  0.51594  0.20262  0.98595  1.0000
  H   H1918     1.0  0.48639  0.22310  0.04084  1.0000
  S   S442      1.0  0.45813  0.10811  0.98850  1.0000
  H   H1919     1.0  0.41003  0.00070  0.25135  1.0000
  C   C1622     1.0  0.56075  0.06277  0.20494  1.0000
  H   H1920     1.0  0.47509  0.07554  0.34137  1.0000
  H   H1921     1.0  0.44901  0.05936  0.02286  1.0000
  C   C1623     1.0  0.49436  0.30109  0.98303  1.0000
  C   C1624     1.0  0.47233  0.25766  0.00148  1.0000
  N   N114      1.0  0.44802  0.07958  0.34721  1.0000
  C   C1625     1.0  0.45131  0.06486  0.35036  1.0000
  C   C1626     1.0  0.43356  0.08389  0.35232  1.0000
  C   C1627     1.0  0.47041  0.19838  0.98844  1.0000
  C   C1628     1.0  0.45622  0.08442  0.35304  1.0000
  H   H1922     1.0  0.57804  0.00793  0.08266  1.0000
  C   C1629     1.0  0.45076  0.09197  0.36307  1.0000
  H   H1923     1.0  0.48545  0.02293  0.24928  1.0000
  C   C1630     1.0  0.45889  0.09615  0.36847  1.0000
  H   H1924     1.0  0.38897  0.05603  0.05842  1.0000
  H   H1925     1.0  0.44985  0.06077  0.36133  1.0000
  H   H1926     1.0  0.44488  0.06087  0.34672  1.0000
  S   S443      1.0  0.53700  0.99020  0.26438  1.0000
  H   H1927     1.0  0.43061  0.07985  0.36326  1.0000
  H   H1928     1.0  0.42774  0.08006  0.34768  1.0000
  H   H1929     1.0  0.43027  0.09491  0.35013  1.0000
  C   C1631     1.0  0.53974  0.02628  0.08277  1.0000
  H   H1930     1.0  0.46116  0.08039  0.32761  1.0000
  H   H1931     1.0  0.45558  0.99860  0.14421  1.0000
  C   C1632     1.0  0.42245  0.05169  0.04779  1.0000
  H   H1932     1.0  0.44025  0.09472  0.36697  1.0000
  C   C1633     1.0  0.53728  0.00398  0.08508  1.0000
  H   H1933     1.0  0.45455  0.10188  0.37613  1.0000
  H   H1934     1.0  0.39942  0.05235  0.04290  1.0000
  N   N115      1.0  0.47688  0.13288  0.04162  1.0000
  C   C1634     1.0  0.48108  0.12909  0.02850  1.0000
  C   C1635     1.0  0.47046  0.14723  0.03969  1.0000
  C   C1636     1.0  0.46740  0.12495  0.05078  1.0000
  C   C1637     1.0  0.46962  0.11656  0.06322  1.0000
  C   C1638     1.0  0.45550  0.12543  0.04729  1.0000
  C   C1639     1.0  0.46040  0.10924  0.07159  1.0000
  C   C1640     1.0  0.44642  0.11798  0.05569  1.0000
  C   C1641     1.0  0.44886  0.10987  0.06781  1.0000
  H   H1935     1.0  0.47302  0.13242  0.02299  1.0000
  H   H1936     1.0  0.48930  0.13368  0.02183  1.0000
  H   H1937     1.0  0.48458  0.11813  0.02967  1.0000
  H   H1938     1.0  0.46168  0.14968  0.03530  1.0000
  H   H1939     1.0  0.47733  0.15351  0.03280  1.0000
  H   H1940     1.0  0.46709  0.15045  0.04935  1.0000
  H   H1941     1.0  0.45313  0.13159  0.03800  1.0000
  H   H1942     1.0  0.43741  0.11851  0.05278  1.0000
  H   H1943     1.0  0.44179  0.10406  0.07425  1.0000
  C   C1642     1.0  0.50238  0.00135  0.37904  1.0000
  H   H1944     1.0  0.47299  0.05758  0.11074  1.0000
  H   H1945     1.0  0.51052  0.01785  0.35641  1.0000
  Fe  Fe229     1.0  0.52684  0.11863  0.03873  1.0000
  C   C1643     1.0  0.57365  0.22867  0.02075  1.0000
  H   H1946     1.0  0.52682  0.19397  0.04153  1.0000
  H   H1947     1.0  0.54181  0.30796  0.99846  1.0000
  H   H1948     1.0  0.39795  0.31447  0.99351  1.0000
  H   H1949     1.0  0.46675  0.04591  0.09778  1.0000
  H   H1950     1.0  0.51043  0.24930  0.99382  1.0000
  H   H1951     1.0  0.53033  0.29741  0.00545  1.0000
  H   H1952     1.0  0.52534  0.30599  0.03054  1.0000
  C   C1644     1.0  0.47826  0.06283  0.10102  1.0000
  H   H1953     1.0  0.49397  0.18788  0.02069  1.0000
  H   H1954     1.0  0.50162  0.03007  0.10949  1.0000
  C   C1645     1.0  0.52055  0.02298  0.07779  1.0000
  C   C1646     1.0  0.57756  0.39586  0.05347  1.0000
  C   C1647     1.0  0.50012  0.03032  0.20837  1.0000
  C   C1648     1.0  0.44889  0.99193  0.33202  1.0000
  C   C1649     1.0  0.40604  0.04627  0.36994  1.0000
  S   S444      1.0  0.42146  0.23385  0.01711  1.0000
  C   C1650     1.0  0.55183  0.27472  0.01508  1.0000
  S   S445      1.0  0.53991  0.24186  0.02109  1.0000
  C   C1651     1.0  0.47960  0.25222  0.99042  1.0000
  N   N116      1.0  0.57893  0.99613  0.42476  1.0000
  C   C1652     1.0  0.47038  0.03870  0.26527  1.0000
  C   C1653     1.0  0.54102  0.99161  0.35858  1.0000
  H   H1955     1.0  0.56536  0.02449  0.17645  1.0000
  Fe  Fe230     1.0  0.52695  0.04418  0.14420  1.0000
  C   C1654     1.0  0.47089  0.07762  0.06649  1.0000
  H   H1956     1.0  0.57316  0.30121  0.00443  1.0000
  C   C1655     1.0  0.47724  0.07324  0.07739  1.0000
  C   C1656     1.0  0.45218  0.06420  0.15804  1.0000
  H   H1957     1.0  0.51808  0.99146  0.10843  1.0000
  H   H1958     1.0  0.46579  0.04254  0.27454  1.0000
  H   H1959     1.0  0.48044  0.04079  0.26160  1.0000
  H   H1960     1.0  0.46469  0.04472  0.25755  1.0000
  H   H1961     1.0  0.50991  0.29345  0.03020  1.0000
  H   H1962     1.0  0.45149  0.01287  0.17280  1.0000
  H   H1963     1.0  0.40176  0.28349  0.02951  1.0000
  H   H1964     1.0  0.42224  0.03141  0.05938  1.0000
  Fe  Fe231     1.0  0.53423  0.04592  0.11431  1.0000
  H   H1965     1.0  0.45070  0.07343  0.08838  1.0000
  N   N117      1.0  0.47110  0.06538  0.09025  1.0000
  H   H1966     1.0  0.49767  0.02055  0.26336  1.0000
  C   C1657     1.0  0.57499  0.38431  0.01780  1.0000
  S   S446      1.0  0.40752  0.24871  0.98521  1.0000
  C   C1658     1.0  0.40904  0.05525  0.06934  1.0000
  C   C1659     1.0  0.52494  0.09307  0.06835  1.0000
  H   H1967     1.0  0.52410  0.04217  0.07625  1.0000
  C   C1660     1.0  0.42115  0.39651  0.06489  1.0000
  C   C1661     1.0  0.43047  0.05928  0.03720  1.0000
  H   H1968     1.0  0.50277  0.99613  0.30139  1.0000
  C   C1662     1.0  0.42694  0.32217  0.98342  1.0000
  H   H1969     1.0  0.50893  0.21268  0.03640  1.0000
  C   C1663     1.0  0.51941  0.19276  0.03716  1.0000
  S   S447      1.0  0.52584  0.02878  0.25996  1.0000
  H   H1970     1.0  0.39217  0.99189  0.25320  1.0000
  H   H1971     1.0  0.42207  0.38628  0.04987  1.0000
  C   C1664     1.0  0.44047  0.00051  0.32392  1.0000
  H   H1972     1.0  0.48980  0.02602  0.37128  1.0000
  S   S448      1.0  0.46009  0.99819  0.33621  1.0000
  N   N118      1.0  0.45658  0.99521  0.16474  1.0000
  C   C1665     1.0  0.47723  0.99707  0.36564  1.0000
  H   H1973     1.0  0.56181  0.02390  0.26998  1.0000
  H   H1974     1.0  0.54119  0.28442  0.03130  1.0000
  C   C1666     1.0  0.55162  0.05050  0.28455  1.0000
  H   H1975     1.0  0.54585  0.26741  0.01810  1.0000
  H   H1976     1.0  0.49779  0.21995  0.00536  1.0000
  H   H1977     1.0  0.47895  0.32961  0.02981  1.0000
  S   S449      1.0  0.51829  0.12101  0.02111  1.0000
  C   C1667     1.0  0.56598  0.16493  0.03150  1.0000
  S   S450      1.0  0.52599  0.22734  0.00709  1.0000
  C   C1668     1.0  0.47268  0.98662  0.36429  1.0000
  C   C1669     1.0  0.41630  0.39391  0.05535  1.0000
  C   C1670     1.0  0.50443  0.03479  0.21719  1.0000
  H   H1978     1.0  0.49581  0.22963  0.02454  1.0000
  H   H1979     1.0  0.47849  0.99898  0.30949  1.0000
  H   H1980     1.0  0.44916  0.09548  0.32968  1.0000
  C   C1671     1.0  0.56284  0.99197  0.41368  1.0000
  H   H1981     1.0  0.41752  0.01627  0.25872  1.0000
  H   H1982     1.0  0.51286  0.98663  0.33302  1.0000
  C   C1672     1.0  0.49858  0.99329  0.15134  1.0000
  Fe  Fe232     1.0  0.43479  0.04133  0.31568  1.0000
  S   S451      1.0  0.56044  0.02496  0.20431  1.0000
  H   H1983     1.0  0.50717  0.02472  0.20146  1.0000
  C   C1673     1.0  0.44783  0.08245  0.16872  1.0000
  H   H1984     1.0  0.54110  0.28411  0.98857  1.0000
  C   C1674     1.0  0.53041  0.04623  0.18623  1.0000
  H   H1985     1.0  0.54884  0.99032  0.40356  1.0000
  H   H1986     1.0  0.50589  0.00933  0.38094  1.0000
  C   C1675     1.0  0.55133  0.17221  0.01617  1.0000
  C   C1676     1.0  0.47541  0.20829  0.03257  1.0000
  S   S452      1.0  0.42238  0.04087  0.30201  1.0000
  H   H1987     1.0  0.51962  0.00263  0.08042  1.0000
  H   H1988     1.0  0.46351  0.98460  0.30421  1.0000
  S   S453      1.0  0.56598  0.26229  0.99458  1.0000
  H   H1989     1.0  0.55476  0.02299  0.10081  1.0000
  C   C1677     1.0  0.50150  0.00798  0.28177  1.0000
  H   H1990     1.0  0.57858  0.28337  0.99192  1.0000
  H   H1991     1.0  0.58018  0.00714  0.43830  1.0000
  C   C1678     1.0  0.57451  0.98558  0.43620  1.0000
  C   C1679     1.0  0.57020  0.28381  0.00030  1.0000
  C   C1680     1.0  0.51613  0.10102  0.98259  1.0000
  H   H1992     1.0  0.42935  0.99370  0.08768  1.0000
  C   C1681     1.0  0.57965  0.04415  0.37631  1.0000
  C   C1682     1.0  0.55650  0.99528  0.40306  1.0000
  H   H1993     1.0  0.55957  0.04425  0.38717  1.0000
  H   H1994     1.0  0.44002  0.00238  0.17974  1.0000
  H   H1995     1.0  0.57945  0.98389  0.44456  1.0000
  C   C1683     1.0  0.55374  0.04310  0.27494  1.0000
  C   C1684     1.0  0.39961  0.29729  0.01025  1.0000
  H   H1996     1.0  0.50806  0.33262  0.98959  1.0000
  H   H1997     1.0  0.56231  0.05476  0.23200  1.0000
  H   H1998     1.0  0.46239  0.98801  0.36409  1.0000
  C   C1685     1.0  0.52730  0.98371  0.25823  1.0000
  H   H1999     1.0  0.49806  0.28296  0.99771  1.0000
  S   S454      1.0  0.44399  0.22872  0.98987  1.0000
  S   S455      1.0  0.50130  0.25775  0.01871  1.0000
  H   H2000     1.0  0.53724  0.09098  0.20952  1.0000
  H   H2001     1.0  0.48097  0.04684  0.08433  1.0000
  H   H2002     1.0  0.52004  0.99118  0.16749  1.0000
  C   C1686     1.0  0.49990  0.19044  0.98674  1.0000
  S   S456      1.0  0.54101  0.99692  0.13942  1.0000
  C   C1687     1.0  0.56192  0.03099  0.29910  1.0000
  H   H2003     1.0  0.48087  0.02305  0.36109  1.0000
  N   N119      1.0  0.58429  0.23238  0.02422  1.0000
  C   C1688     1.0  0.57863  0.98406  0.37002  1.0000
  H   H2004     1.0  0.40571  0.29744  0.98302  1.0000
  C   C1689     1.0  0.52523  0.98669  0.11460  1.0000
  C   C1690     1.0  0.51600  0.99185  0.25390  1.0000
  H   H2005     1.0  0.49959  0.99296  0.24563  1.0000
  C   C1691     1.0  0.47665  0.08459  0.05406  1.0000
  H   H2006     1.0  0.56451  0.23427  0.04678  1.0000
  H   H2007     1.0  0.47781  0.01600  0.37889  1.0000
  H   H2008     1.0  0.46230  0.10296  0.08102  1.0000
  S   S457      1.0  0.43363  0.25901  0.99589  1.0000
  H   H2009     1.0  0.53643  0.08296  0.98657  1.0000
  H   H2010     1.0  0.51418  0.00178  0.35294  1.0000
  H   H2011     1.0  0.47826  0.23308  0.02778  1.0000
  S   S458      1.0  0.51622  0.02788  0.14851  1.0000
  C   C1692     1.0  0.51123  0.17898  0.02847  1.0000
  C   C1693     1.0  0.49209  0.02757  0.11260  1.0000
  C   C1694     1.0  0.44298  0.05329  0.03074  1.0000
  H   H2012     1.0  0.50785  0.09205  0.08459  1.0000
  C   C1695     1.0  0.57789  0.26646  0.03239  1.0000
  H   H2013     1.0  0.56274  0.98808  0.08537  1.0000
  H   H2014     1.0  0.46698  0.98508  0.23593  1.0000
  H   H2015     1.0  0.56302  0.12298  0.99240  1.0000
  S   S459      1.0  0.54490  0.03445  0.13085  1.0000
  C   C1696     1.0  0.56338  0.98909  0.20884  1.0000
  C   C1697     1.0  0.52664  0.99303  0.21234  1.0000
  C   C1698     1.0  0.47021  0.08133  0.34886  1.0000
  H   H2016     1.0  0.46253  0.99707  0.24608  1.0000
  H   H2017     1.0  0.49353  0.09267  0.04243  1.0000
  C   C1699     1.0  0.44359  0.07528  0.16234  1.0000
  H   H2018     1.0  0.58132  0.27568  0.02839  1.0000
  S   S460      1.0  0.53137  0.01705  0.23316  1.0000
  Fe  Fe233     1.0  0.56692  0.35091  0.01612  1.0000
  C   C1700     1.0  0.54784  0.03655  0.16959  1.0000
  C   C1701     1.0  0.48898  0.08737  0.05209  1.0000
  H   H2019     1.0  0.45998  0.17180  0.01985  1.0000
  Fe  Fe234     1.0  0.53799  0.01076  0.25236  1.0000
  C   C1702     1.0  0.49556  0.08315  0.06252  1.0000
  S   S461      1.0  0.54654  0.10497  0.99492  1.0000
  H   H2020     1.0  0.56869  0.12930  0.00309  1.0000
  H   H2021     1.0  0.45082  0.02786  0.26497  1.0000
  H   H2022     1.0  0.47136  0.32000  0.01809  1.0000
  C   C1703     1.0  0.45730  0.07233  0.09511  1.0000
  H   H2023     1.0  0.49181  0.07417  0.15064  1.0000
  Fe  Fe235     1.0  0.43354  0.04368  0.34398  1.0000
  C   C1704     1.0  0.56408  0.17805  0.03255  1.0000
  H   H2024     1.0  0.47897  0.07147  0.18689  1.0000
  S   S462      1.0  0.56456  0.02112  0.34996  1.0000
  C   C1705     1.0  0.45082  0.08445  0.33249  1.0000
  H   H2025     1.0  0.49498  0.34147  0.03028  1.0000
  H   H2026     1.0  0.50032  0.04683  0.16899  1.0000
  C   C1706     1.0  0.49070  0.07320  0.16151  1.0000
  C   C1707     1.0  0.56007  0.02965  0.27738  1.0000
  H   H2027     1.0  0.40468  0.07482  0.03931  1.0000
  C   C1708     1.0  0.52038  0.18049  0.03454  1.0000
  S   S463      1.0  0.55318  0.30606  0.02810  1.0000
  C   C1709     1.0  0.55670  0.29411  0.01857  1.0000
  H   H2028     1.0  0.48465  0.30013  0.98303  1.0000
  C   C1710     1.0  0.57267  0.99860  0.41336  1.0000
  C   C1711     1.0  0.53995  0.08064  0.19438  1.0000
  H   H2029     1.0  0.55518  0.25304  0.05769  1.0000
  H   H2030     1.0  0.55431  0.07048  0.06787  1.0000
  C   C1712     1.0  0.55600  0.18841  0.02530  1.0000
  C   C1713     1.0  0.49928  0.20213  0.02829  1.0000
  S   S464      1.0  0.51668  0.10766  0.05874  1.0000
  N   N120      1.0  0.51890  0.02690  0.30354  1.0000
  C   C1714     1.0  0.52966  0.01955  0.29439  1.0000
  C   C1715     1.0  0.51158  0.03854  0.29510  1.0000
  C   C1716     1.0  0.52487  0.03196  0.31145  1.0000
  C   C1717     1.0  0.51040  0.01799  0.31281  1.0000
  C   C1718     1.0  0.51610  0.00514  0.31954  1.0000
  C   C1719     1.0  0.49638  0.02191  0.31587  1.0000
  H   H2031     1.0  0.56887  0.00924  0.07048  1.0000
  C   C1720     1.0  0.48865  0.01326  0.32469  1.0000
  C   C1721     1.0  0.49454  0.00052  0.33069  1.0000
  H   H2032     1.0  0.52575  0.01375  0.28984  1.0000
  H   H2033     1.0  0.53493  0.02636  0.28606  1.0000
  H   H2034     1.0  0.53748  0.01257  0.29941  1.0000
  H   H2035     1.0  0.50439  0.04551  0.30109  1.0000
  H   H2036     1.0  0.50623  0.03534  0.28946  1.0000
  H   H2037     1.0  0.51833  0.04462  0.28762  1.0000
  H   H2038     1.0  0.53149  0.02381  0.31713  1.0000
  H   H2039     1.0  0.53095  0.03914  0.30495  1.0000
  H   H2040     1.0  0.51715  0.03722  0.31874  1.0000
  Fe  Fe236     1.0  0.43917  0.12178  0.98434  1.0000
  H   H2041     1.0  0.49112  0.03159  0.31152  1.0000
  H   H2042     1.0  0.56881  0.05536  0.20852  1.0000
  H   H2043     1.0  0.50047  0.00550  0.17805  1.0000
  C   C1722     1.0  0.47590  0.02012  0.25476  1.0000
  N   N121      1.0  0.48278  0.30321  0.02979  1.0000
  C   C1723     1.0  0.48827  0.28894  0.02946  1.0000
  C   C1724     1.0  0.47208  0.30386  0.04198  1.0000
  C   C1725     1.0  0.47694  0.30963  0.01791  1.0000
  C   C1726     1.0  0.49271  0.31030  0.02986  1.0000
  C   C1727     1.0  0.48897  0.32405  0.02996  1.0000
  C   C1728     1.0  0.50614  0.30390  0.03008  1.0000
  C   C1729     1.0  0.49806  0.33095  0.03023  1.0000
  C   C1730     1.0  0.51516  0.31096  0.03028  1.0000
  C   C1731     1.0  0.51115  0.32446  0.03028  1.0000
  H   H2044     1.0  0.49213  0.28327  0.03852  1.0000
  H   H2045     1.0  0.48061  0.28397  0.02913  1.0000
  H   H2046     1.0  0.49629  0.28766  0.02048  1.0000
  H   H2047     1.0  0.46488  0.29784  0.04280  1.0000
  H   H2048     1.0  0.46616  0.31416  0.04211  1.0000
  H   H2049     1.0  0.47612  0.30009  0.05116  1.0000
  H   H2050     1.0  0.48472  0.31014  0.00853  1.0000
  H   H2051     1.0  0.46973  0.30429  0.01728  1.0000
  C   C1732     1.0  0.49274  0.25651  0.00752  1.0000
  C   C1733     1.0  0.56716  0.29388  0.00737  1.0000
  C   C1734     1.0  0.42063  0.99151  0.08645  1.0000
  C   C1735     1.0  0.48987  0.07617  0.07501  1.0000
  Fe  Fe237     1.0  0.53323  0.01907  0.13384  1.0000
  Fe  Fe238     1.0  0.45169  0.02011  0.33281  1.0000
  H   H2052     1.0  0.39643  0.42149  0.07461  1.0000
  H   H2053     1.0  0.50524  0.08520  0.06087  1.0000
  H   H2054     1.0  0.53893  0.07001  0.23627  1.0000
  H   H2055     1.0  0.43067  0.39084  0.06691  1.0000
  H   H2056     1.0  0.49328  0.01457  0.14820  1.0000
  H   H2057     1.0  0.43987  0.00275  0.15535  1.0000
  H   H2058     1.0  0.53183  0.08748  0.19028  1.0000
  C   C1736     1.0  0.53721  0.06945  0.08411  1.0000
  H   H2059     1.0  0.51677  0.18203  0.99575  1.0000
  C   C1737     1.0  0.57086  0.38709  0.05207  1.0000
  H   H2060     1.0  0.58321  0.21747  0.04268  1.0000
  C   C1738     1.0  0.55555  0.03043  0.17922  1.0000
  H   H2061     1.0  0.46646  0.21644  0.03200  1.0000
  H   H2062     1.0  0.51481  0.03275  0.21690  1.0000
  H   H2063     1.0  0.40434  0.98670  0.15523  1.0000
  C   C1739     1.0  0.52406  0.07556  0.08873  1.0000
  C   C1740     1.0  0.51798  0.08733  0.08089  1.0000
  H   H2064     1.0  0.55171  0.03536  0.15941  1.0000
  H   H2065     1.0  0.57109  0.36676  0.05304  1.0000
  S   S465      1.0  0.41775  0.34874  0.98366  1.0000
  C   C1741     1.0  0.55339  0.07340  0.21132  1.0000
  C   C1742     1.0  0.39825  0.99885  0.08313  1.0000
  H   H2066     1.0  0.38957  0.00669  0.08188  1.0000
  C   C1743     1.0  0.54414  0.07514  0.07153  1.0000
  S   S466      1.0  0.54827  0.05081  0.26006  1.0000
  N   N122      1.0  0.39787  0.28788  0.00339  1.0000
  H   H2067     1.0  0.47399  0.20058  0.02833  1.0000
  H   H2068     1.0  0.53754  0.00826  0.20815  1.0000
  C   C1744     1.0  0.48260  0.00347  0.29926  1.0000
  C   C1745     1.0  0.39572  0.99185  0.35647  1.0000
  S   S467      1.0  0.52571  0.05328  0.16120  1.0000
  C   C1746     1.0  0.53528  0.04457  0.17308  1.0000
  S   S468      1.0  0.42138  0.05102  0.36260  1.0000
  C   C1747     1.0  0.50273  0.13774  0.98412  1.0000
  C   C1748     1.0  0.55948  0.16190  0.02353  1.0000
  C   C1749     1.0  0.54725  0.07002  0.18850  1.0000
  H   H2069     1.0  0.45166  0.02689  0.28151  1.0000
  N   N123      1.0  0.47067  0.02436  0.26769  1.0000
  H   H2070     1.0  0.45764  0.03510  0.02964  1.0000
  H   H2071     1.0  0.57218  0.01908  0.38231  1.0000
  Fe  Fe239     1.0  0.42464  0.24284  0.99513  1.0000
  C   C1750     1.0  0.48840  0.21679  0.01095  1.0000
  H   H2072     1.0  0.56349  0.27380  0.04860  1.0000
  C   C1751     1.0  0.55063  0.03215  0.19238  1.0000
  H   H2073     1.0  0.39580  0.00837  0.36405  1.0000
  H   H2074     1.0  0.48017  0.22525  0.00836  1.0000
  S   S469      1.0  0.53866  0.14074  0.00358  1.0000
  H   H2075     1.0  0.38813  0.47771  0.99862  1.0000
  H   H2076     1.0  0.56334  0.05292  0.18911  1.0000
  S   S470      1.0  0.54780  0.11469  0.02704  1.0000
  S   S471      1.0  0.54520  0.05468  0.09373  1.0000
  C   C1752     1.0  0.47823  0.08554  0.35433  1.0000
  H   H2077     1.0  0.52175  0.00360  0.12304  1.0000
  C   C1753     1.0  0.57199  0.12356  0.99514  1.0000
  H   H2078     1.0  0.55156  0.00476  0.34270  1.0000
  H   H2079     1.0  0.41455  0.03445  0.28166  1.0000
  H   H2080     1.0  0.39727  0.39370  0.98656  1.0000
  H   H2081     1.0  0.48891  0.08298  0.35099  1.0000
  H   H2082     1.0  0.47798  0.01637  0.32676  1.0000
  C   C1754     1.0  0.40514  0.07226  0.05002  1.0000
  H   H2083     1.0  0.44446  0.08141  0.32781  1.0000
  H   H2084     1.0  0.51328  0.00223  0.25424  1.0000
  C   C1755     1.0  0.41124  0.99812  0.26152  1.0000
  C   C1756     1.0  0.40766  0.28797  0.99047  1.0000
  C   C1757     1.0  0.50187  0.29152  0.99139  1.0000
  S   S472      1.0  0.56250  0.14517  0.02253  1.0000
  C   C1758     1.0  0.54305  0.08244  0.20551  1.0000
  H   H2085     1.0  0.39873  0.26695  0.00568  1.0000
  C   C1759     1.0  0.42773  0.03783  0.05140  1.0000
  H   H2086     1.0  0.47816  0.98529  0.24507  1.0000
  H   H2087     1.0  0.44795  0.99060  0.12801  1.0000
  H   H2088     1.0  0.45642  0.01192  0.27509  1.0000
  Fe  Fe240     1.0  0.53910  0.11887  0.00912  1.0000
  C   C1760     1.0  0.41548  0.00715  0.26567  1.0000
  H   H2089     1.0  0.46371  0.01162  0.29481  1.0000
  C   C1761     1.0  0.40155  0.41387  0.06905  1.0000
  C   C1762     1.0  0.55560  0.04443  0.29667  1.0000
  H   H2090     1.0  0.53753  0.08764  0.23070  1.0000
  H   H2091     1.0  0.41784  0.28651  0.99187  1.0000
  C   C1763     1.0  0.47613  0.00597  0.15633  1.0000
  H   H2092     1.0  0.52205  0.00730  0.17605  1.0000
  H   H2093     1.0  0.54676  0.06092  0.28268  1.0000
  C   C1764     1.0  0.39924  0.04822  0.38278  1.0000
  H   H2094     1.0  0.55388  0.05017  0.30408  1.0000
  C   C1765     1.0  0.41379  0.40644  0.07174  1.0000
  C   C1766     1.0  0.54442  0.07807  0.23360  1.0000
  H   H2095     1.0  0.43041  0.32101  0.99228  1.0000
  H   H2096     1.0  0.47887  0.09613  0.36835  1.0000
  H   H2097     1.0  0.56571  0.00792  0.10665  1.0000
  S   S473      1.0  0.55374  0.20458  0.02762  1.0000
  C   C1767     1.0  0.39808  0.98583  0.08326  1.0000
  H   H2098     1.0  0.46165  0.06073  0.34564  1.0000
  S   S474      1.0  0.42984  0.02824  0.33607  1.0000
  H   H2099     1.0  0.40503  0.29939  0.03969  1.0000
  H   H2100     1.0  0.56677  0.02308  0.07775  1.0000
  C   C1768     1.0  0.56134  0.99242  0.09409  1.0000
  C   C1769     1.0  0.44418  0.98785  0.22066  1.0000
  H   H2101     1.0  0.48845  0.99379  0.33728  1.0000
  S   S475      1.0  0.57672  0.33242  0.00805  1.0000
  C   C1770     1.0  0.54483  0.01237  0.08624  1.0000
  H   H2102     1.0  0.54029  0.99325  0.08743  1.0000
  H   H2103     1.0  0.41044  0.04456  0.07426  1.0000
  C   C1771     1.0  0.49334  0.24938  0.98771  1.0000
  C   C1772     1.0  0.49070  0.99552  0.36587  1.0000
  C   C1773     1.0  0.41696  0.00456  0.27874  1.0000
  H   H2104     1.0  0.46998  0.00623  0.36643  1.0000
  H   H2105     1.0  0.56444  0.04218  0.40913  1.0000
  H   H2106     1.0  0.44168  0.01052  0.31928  1.0000
  H   H2107     1.0  0.46913  0.02505  0.24775  1.0000
  H   H2108     1.0  0.55976  0.98430  0.42206  1.0000
  C   C1774     1.0  0.38904  0.37134  0.99983  1.0000
  C   C1775     1.0  0.49315  0.01558  0.27319  1.0000
  C   C1776     1.0  0.40328  0.30260  0.02964  1.0000
  H   H2109     1.0  0.53440  0.01705  0.18509  1.0000
  C   C1777     1.0  0.39631  0.41145  0.05938  1.0000
  C   C1778     1.0  0.56847  0.24312  0.04245  1.0000
  H   H2110     1.0  0.55571  0.09650  0.21475  1.0000
  H   H2111     1.0  0.56894  0.18017  0.03905  1.0000
  H   H2112     1.0  0.57316  0.40631  0.05077  1.0000
  C   C1779     1.0  0.50591  0.01026  0.35530  1.0000
  H   H2113     1.0  0.43350  0.07808  0.16106  1.0000
  H   H2114     1.0  0.54671  0.07844  0.24300  1.0000
  C   C1780     1.0  0.57234  0.04240  0.40028  1.0000
  C   C1781     1.0  0.50636  0.14400  0.99195  1.0000
  H   H2115     1.0  0.56918  0.01325  0.29124  1.0000
  H   H2116     1.0  0.50906  0.99297  0.14759  1.0000
  C   C1782     1.0  0.47417  0.01079  0.29065  1.0000
  H   H2117     1.0  0.40003  0.36961  0.99709  1.0000
  H   H2118     1.0  0.55867  0.17333  0.98499  1.0000
  C   C1783     1.0  0.51755  0.99207  0.19406  1.0000
  H   H2119     1.0  0.56481  0.01209  0.43286  1.0000
  C   C1784     1.0  0.52326  0.00294  0.18617  1.0000
  H   H2120     1.0  0.40611  0.16868  0.98369  1.0000
  C   C1785     1.0  0.39956  0.27393  0.01126  1.0000
  C   C1786     1.0  0.41418  0.99296  0.28768  1.0000
  C   C1787     1.0  0.50825  0.99650  0.32821  1.0000
  C   C1788     1.0  0.51419  0.29300  0.99180  1.0000
  H   H2121     1.0  0.51212  0.00676  0.27829  1.0000
  C   C1789     1.0  0.40340  0.99766  0.13526  1.0000
  H   H2122     1.0  0.56446  0.99793  0.20110  1.0000
  C   C1790     1.0  0.52741  0.99364  0.12279  1.0000
  C   C1791     1.0  0.44026  0.03195  0.04490  1.0000
  C   C1792     1.0  0.40125  0.31980  0.00979  1.0000
  H   H2123     1.0  0.56755  0.06547  0.23853  1.0000
  H   H2124     1.0  0.57599  0.06247  0.22243  1.0000
  H   H2125     1.0  0.52669  0.00161  0.31811  1.0000
  C   C1793     1.0  0.55653  0.01196  0.10271  1.0000
  H   H2126     1.0  0.51952  0.28544  0.99866  1.0000
  S   S476      1.0  0.57683  0.04546  0.36041  1.0000
  C   C1794     1.0  0.56258  0.08733  0.21878  1.0000
  C   C1795     1.0  0.57568  0.00851  0.42970  1.0000
  C   C1796     1.0  0.44788  0.03967  0.03460  1.0000
  H   H2127     1.0  0.56610  0.22536  0.02965  1.0000
  C   C1797     1.0  0.45074  0.00227  0.17584  1.0000
  C   C1798     1.0  0.43019  0.99629  0.32198  1.0000
  H   H2128     1.0  0.41279  0.17957  0.98853  1.0000
  H   H2129     1.0  0.40131  0.33000  0.00444  1.0000
  C   C1799     1.0  0.40862  0.98604  0.27026  1.0000
  C   C1800     1.0  0.56781  0.26542  0.04381  1.0000
  H   H2130     1.0  0.40768  0.27997  0.98571  1.0000
  H   H2131     1.0  0.57661  0.11327  0.99980  1.0000
  C   C1801     1.0  0.40407  0.40122  0.05265  1.0000
  C   C1802     1.0  0.46749  0.98656  0.24564  1.0000
  C   C1803     1.0  0.56912  0.15310  0.98456  1.0000
  H   H2132     1.0  0.56055  0.00007  0.22385  1.0000
  C   C1804     1.0  0.58425  0.37277  0.02164  1.0000
  H   H2133     1.0  0.54477  0.06853  0.17996  1.0000
  H   H2134     1.0  0.47358  0.18869  0.99519  1.0000
  C   C1805     1.0  0.55770  0.06121  0.19369  1.0000
  C   C1806     1.0  0.48968  0.00545  0.15171  1.0000
  C   C1807     1.0  0.38989  0.40593  0.01867  1.0000
  C   C1808     1.0  0.58525  0.04156  0.40132  1.0000
  C   C1809     1.0  0.54657  0.99673  0.34525  1.0000
  C   C1810     1.0  0.56110  0.99052  0.22195  1.0000
  C   C1811     1.0  0.56309  0.25377  0.04884  1.0000
  C   C1812     1.0  0.56681  0.98726  0.18191  1.0000
  H   H2135     1.0  0.54830  0.00881  0.11088  1.0000
  H   H2136     1.0  0.49203  0.99244  0.18110  1.0000
  C   C1813     1.0  0.53225  0.30645  0.99776  1.0000
  C   C1814     1.0  0.52530  0.00927  0.08100  1.0000
  C   C1815     1.0  0.51954  0.30400  0.98355  1.0000
  H   H2137     1.0  0.55378  0.98815  0.10238  1.0000
  C   C1816     1.0  0.57715  0.39687  0.01708  1.0000
  H   H2138     1.0  0.41207  0.07756  0.05130  1.0000
  H   H2139     1.0  0.46943  0.14943  0.99162  1.0000
  H   H2140     1.0  0.56179  0.39093  0.04845  1.0000
  C   C1817     1.0  0.56604  0.06408  0.22917  1.0000
  H   H2141     1.0  0.39145  0.41999  0.03489  1.0000
  H   H2142     1.0  0.46087  0.19813  0.98652  1.0000
  H   H2143     1.0  0.56962  0.99147  0.36757  1.0000
  C   C1818     1.0  0.57609  0.37345  0.05464  1.0000
  H   H2144     1.0  0.57236  0.15704  0.03712  1.0000
  H   H2145     1.0  0.40481  0.00666  0.13684  1.0000
  H   H2146     1.0  0.45569  0.99744  0.18433  1.0000
  H   H2147     1.0  0.43515  0.30173  0.98198  1.0000
  H   H2148     1.0  0.57078  0.98880  0.09758  1.0000
  H   H2149     1.0  0.41515  0.99110  0.29790  1.0000
  H   H2150     1.0  0.39215  0.43403  0.04028  1.0000
  H   H2151     1.0  0.44163  0.98896  0.25569  1.0000
  H   H2152     1.0  0.39918  0.98601  0.11092  1.0000
  H   H2153     1.0  0.56818  0.98557  0.17175  1.0000
  C   C1819     1.0  0.38827  0.03703  0.36905  1.0000
  C   C1820     1.0  0.50822  0.98658  0.24909  1.0000
  C   C1821     1.0  0.54607  0.99119  0.33507  1.0000
  N   N124      1.0  0.53263  0.30530  0.98417  1.0000
  H   H2154     1.0  0.40083  0.39886  0.04508  1.0000
  C   C1822     1.0  0.51939  0.98729  0.20739  1.0000
  H   H2155     1.0  0.47489  0.98518  0.20024  1.0000
  H   H2156     1.0  0.52489  0.20297  0.98842  1.0000
  C   C1823     1.0  0.58324  0.25594  0.02582  1.0000
  N   N125      1.0  0.51002  0.98631  0.18836  1.0000
  C   C1824     1.0  0.39051  0.00089  0.36474  1.0000
  H   H2157     1.0  0.45879  0.98752  0.10498  1.0000
  H   H2158     1.0  0.57975  0.98515  0.37968  1.0000
  C   C1825     1.0  0.57868  0.24388  0.03070  1.0000
  H   H2159     1.0  0.52792  0.98926  0.22254  1.0000
  H   H2160     1.0  0.57941  0.01674  0.42194  1.0000
  H   H2161     1.0  0.57515  0.99163  0.18153  1.0000
  S   S477      1.0  0.58134  0.35667  0.02437  1.0000
  N   N126      1.0  0.58113  0.12958  0.98328  1.0000
  H   H2162     1.0  0.57751  0.22025  0.01555  1.0000
  C   C1826     1.0  0.40306  0.98640  0.14563  1.0000
  H   H2163     1.0  0.38927  0.98371  0.08218  1.0000
  H   H2164     1.0  0.55546  0.06517  0.98227  1.0000
  H   H2165     1.0  0.44218  0.98399  0.30050  1.0000
  H   H2166     1.0  0.57565  0.98397  0.32544  1.0000
  S   S478      1.0  0.44621  0.14028  0.98177  1.0000
  C   C1827     1.0  0.41016  0.98374  0.28356  1.0000
  C   C1828     1.0  0.38706  0.04443  0.38880  1.0000
  H   H2167     1.0  0.44146  0.99258  0.68025  1.0000
  C   C1829     1.0  0.46000  0.01174  0.87846  1.0000
  H   H2168     1.0  0.45218  0.01803  0.56837  1.0000
  H   H2169     1.0  0.44030  0.01354  0.76572  1.0000
  S   S479      1.0  0.42301  0.06289  0.62439  1.0000
  H   H2170     1.0  0.43422  0.02020  0.85358  1.0000
  H   H2171     1.0  0.47826  0.18896  0.86342  1.0000
  H   H2172     1.0  0.49959  0.10359  0.96794  1.0000
  S   S480      1.0  0.49232  0.04681  0.69055  1.0000
  Fe  Fe241     1.0  0.55845  0.02861  0.60848  1.0000
  S   S481      1.0  0.56530  0.01665  0.62716  1.0000
  S   S482      1.0  0.57153  0.03654  0.58892  1.0000
  Fe  Fe242     1.0  0.52925  0.03092  0.62209  1.0000
  S   S483      1.0  0.53363  0.01894  0.64176  1.0000
  S   S484      1.0  0.50820  0.04130  0.62179  1.0000
  Fe  Fe243     1.0  0.54887  0.03080  0.63769  1.0000
  S   S485      1.0  0.54912  0.04167  0.65279  1.0000
  Fe  Fe244     1.0  0.54941  0.00592  0.62955  1.0000
  H   H2173     1.0  0.45303  0.07221  0.90935  1.0000
  S   S486      1.0  0.54339  0.04379  0.61882  1.0000
  S   S487      1.0  0.54363  0.01683  0.61007  1.0000
  C   C1830     1.0  0.53684  0.08441  0.95406  1.0000
  H   H2174     1.0  0.47639  0.02318  0.73785  1.0000
  Fe  Fe245     1.0  0.52267  0.03056  0.74455  1.0000
  S   S488      1.0  0.54404  0.03141  0.73618  1.0000
  S   S489      1.0  0.50523  0.04773  0.74375  1.0000
  Fe  Fe246     1.0  0.52831  0.00085  0.75448  1.0000
  S   S490      1.0  0.55009  0.99912  0.74742  1.0000
  H   H2175     1.0  0.49901  0.24511  0.97928  1.0000
  Fe  Fe247     1.0  0.54682  0.01711  0.75566  1.0000
  S   S491      1.0  0.56080  0.01720  0.76786  1.0000
  Fe  Fe248     1.0  0.54525  0.01335  0.72871  1.0000
  S   S492      1.0  0.55585  0.00612  0.70977  1.0000
  S   S493      1.0  0.52536  0.01755  0.76446  1.0000
  S   S494      1.0  0.52360  0.01384  0.73537  1.0000
  H   H2176     1.0  0.42379  0.16689  0.98065  1.0000
  C   C1831     1.0  0.42261  0.07125  0.71716  1.0000
  H   H2177     1.0  0.46036  0.34456  0.95833  1.0000
  H   H2178     1.0  0.58644  0.14847  0.92651  1.0000
  H   H2179     1.0  0.50686  0.08611  0.97207  1.0000
  H   H2180     1.0  0.42653  0.07454  0.86464  1.0000
  H   H2181     1.0  0.43663  0.12958  0.84799  1.0000
  C   C1832     1.0  0.42945  0.31120  0.97771  1.0000
  C   C1833     1.0  0.56556  0.15913  0.95854  1.0000
  S   S495      1.0  0.56312  0.99683  0.85512  1.0000
  H   H2182     1.0  0.46573  0.21227  0.96446  1.0000
  Fe  Fe249     1.0  0.52241  0.03182  0.85532  1.0000
  S   S496      1.0  0.52687  0.05200  0.84762  1.0000
  S   S497      1.0  0.50207  0.02820  0.86029  1.0000
  Fe  Fe250     1.0  0.55098  0.01781  0.85320  1.0000
  S   S498      1.0  0.55826  0.03694  0.84527  1.0000
  H   H2183     1.0  0.48175  0.21577  0.95747  1.0000
  Fe  Fe251     1.0  0.54129  0.04471  0.86112  1.0000
  S   S499      1.0  0.53780  0.05776  0.87581  1.0000
  Fe  Fe252     1.0  0.54319  0.04265  0.83256  1.0000
  S   S500      1.0  0.54536  0.05268  0.81072  1.0000
  S   S501      1.0  0.53535  0.02500  0.86999  1.0000
  S   S502      1.0  0.53744  0.02307  0.83921  1.0000
  Fe  Fe253     1.0  0.44077  0.05022  0.82640  1.0000
  S   S503      1.0  0.45475  0.03081  0.83158  1.0000
  H   H2184     1.0  0.44958  0.33804  0.95297  1.0000
  H   H2185     1.0  0.40795  0.06934  0.52343  1.0000
  S   S504      1.0  0.45594  0.02527  0.80245  1.0000
  Fe  Fe254     1.0  0.44327  0.02205  0.82316  1.0000
  Fe  Fe255     1.0  0.46620  0.03557  0.81060  1.0000
  S   S505      1.0  0.48829  0.03217  0.80578  1.0000
  S   S506      1.0  0.45326  0.05584  0.80588  1.0000
  Fe  Fe256     1.0  0.45759  0.10754  0.87295  1.0000
  S   S507      1.0  0.47298  0.10103  0.88524  1.0000
  S   S508      1.0  0.46193  0.09895  0.85466  1.0000
  Fe  Fe257     1.0  0.44268  0.13044  0.88678  1.0000
  S   S509      1.0  0.45662  0.12554  0.90028  1.0000
  S   S510      1.0  0.42711  0.14925  0.88825  1.0000
  Fe  Fe258     1.0  0.47224  0.12269  0.88203  1.0000
  S   S511      1.0  0.48930  0.13207  0.87812  1.0000
  Fe  Fe259     1.0  0.45589  0.10443  0.90256  1.0000
  S   S512      1.0  0.45667  0.09076  0.92275  1.0000
  S   S513      1.0  0.45853  0.12906  0.86822  1.0000
  S   S514      1.0  0.44031  0.10936  0.89059  1.0000
  Fe  Fe260     1.0  0.56009  0.12068  0.91929  1.0000
  Fe  Fe261     1.0  0.53675  0.11242  0.91697  1.0000
  S   S515      1.0  0.54365  0.11403  0.89496  1.0000
  S   S516      1.0  0.51732  0.10686  0.92627  1.0000
  Fe  Fe262     1.0  0.56331  0.10362  0.89958  1.0000
  S   S517      1.0  0.55603  0.10055  0.92191  1.0000
  S   S518      1.0  0.53999  0.13225  0.91628  1.0000
  Fe  Fe263     1.0  0.43227  0.21927  0.92486  1.0000
  S   S519      1.0  0.43597  0.22464  0.90235  1.0000
  S   S520      1.0  0.41197  0.22210  0.93805  1.0000
  Fe  Fe264     1.0  0.46104  0.20996  0.92551  1.0000
  S   S521      1.0  0.46711  0.21404  0.90337  1.0000
  S   S522      1.0  0.47765  0.20278  0.93624  1.0000
  Fe  Fe265     1.0  0.45214  0.23310  0.90387  1.0000
  S   S523      1.0  0.46034  0.25088  0.89185  1.0000
  Fe  Fe266     1.0  0.45063  0.20503  0.90386  1.0000
  S   S524      1.0  0.45756  0.19147  0.88936  1.0000
  S   S525      1.0  0.44701  0.22965  0.92611  1.0000
  S   S526      1.0  0.44588  0.19904  0.92628  1.0000
  C   C1834     1.0  0.38884  0.37844  0.97658  1.0000
  S   S527      1.0  0.51541  0.24271  0.90752  1.0000
  S   S528      1.0  0.50872  0.32929  0.93983  1.0000
  Fe  Fe267     1.0  0.43199  0.31180  0.93628  1.0000
  S   S529      1.0  0.44074  0.32960  0.93129  1.0000
  S   S530      1.0  0.42992  0.30004  0.95741  1.0000
  Fe  Fe268     1.0  0.42873  0.31603  0.90832  1.0000
  S   S531      1.0  0.43707  0.33446  0.90072  1.0000
  S   S532      1.0  0.42106  0.30593  0.89728  1.0000
  Fe  Fe269     1.0  0.45234  0.32273  0.91272  1.0000
  S   S533      1.0  0.47424  0.32141  0.90494  1.0000
  Fe  Fe270     1.0  0.42468  0.33991  0.92000  1.0000
  S   S534      1.0  0.41441  0.36023  0.92428  1.0000
  S   S535      1.0  0.44502  0.30391  0.91869  1.0000
  S   S536      1.0  0.41500  0.32251  0.92654  1.0000
  H   H2186     1.0  0.40062  0.14255  0.85235  1.0000
  C   C1835     1.0  0.48470  0.06292  0.64626  1.0000
  S   S537      1.0  0.43985  0.00209  0.83562  1.0000
  C   C1836     1.0  0.47784  0.98688  0.69339  1.0000
  C   C1837     1.0  0.41477  0.33580  0.96668  1.0000
  C   C1838     1.0  0.55130  0.11159  0.97772  1.0000
  H   H2187     1.0  0.41135  0.08105  0.64137  1.0000
  H   H2188     1.0  0.44345  0.34597  0.96687  1.0000
  H   H2189     1.0  0.42055  0.03608  0.68227  1.0000
  C   C1839     1.0  0.44289  0.04347  0.74473  1.0000
  Fe  Fe271     1.0  0.45294  0.02353  0.60621  1.0000
  H   H2190     1.0  0.48620  0.17995  0.97553  1.0000
  C   C1840     1.0  0.58132  0.25788  0.92674  1.0000
  N   N127      1.0  0.56754  0.26331  0.94852  1.0000
  H   H2191     1.0  0.53375  0.26066  0.91342  1.0000
  C   C1841     1.0  0.39897  0.36800  0.92004  1.0000
  C   C1842     1.0  0.54469  0.38212  0.94365  1.0000
  H   H2192     1.0  0.58562  0.18526  0.89067  1.0000
  C   C1843     1.0  0.46153  0.35854  0.91081  1.0000
  H   H2193     1.0  0.40128  0.35651  0.90566  1.0000
  H   H2194     1.0  0.56354  0.15237  0.91241  1.0000
  C   C1844     1.0  0.56997  0.00645  0.81911  1.0000
  C   C1845     1.0  0.42497  0.31271  0.96620  1.0000
  S   S538      1.0  0.56794  0.30130  0.94992  1.0000
  H   H2195     1.0  0.43592  0.11711  0.86312  1.0000
  H   H2196     1.0  0.42935  0.37049  0.93960  1.0000
  C   C1846     1.0  0.43533  0.05295  0.64594  1.0000
  C   C1847     1.0  0.41740  0.32493  0.96090  1.0000
  H   H2197     1.0  0.42419  0.19553  0.97212  1.0000
  C   C1848     1.0  0.50370  0.04869  0.88434  1.0000
  C   C1849     1.0  0.39076  0.37834  0.92610  1.0000
  H   H2198     1.0  0.41370  0.32614  0.95216  1.0000
  C   C1850     1.0  0.49897  0.32754  0.93008  1.0000
  C   C1851     1.0  0.48574  0.32683  0.93570  1.0000
  C   C1852     1.0  0.47792  0.32517  0.92805  1.0000
  C   C1853     1.0  0.48333  0.32424  0.91474  1.0000
  C   C1854     1.0  0.49647  0.32521  0.90909  1.0000
  C   C1855     1.0  0.50430  0.32680  0.91675  1.0000
  H   H2199     1.0  0.48154  0.32762  0.94596  1.0000
  H   H2200     1.0  0.46775  0.32463  0.93242  1.0000
  H   H2201     1.0  0.50057  0.32480  0.89872  1.0000
  H   H2202     1.0  0.51446  0.32747  0.91230  1.0000
  C   C1856     1.0  0.47517  0.98887  0.57382  1.0000
  C   C1857     1.0  0.44930  0.26619  0.89287  1.0000
  C   C1858     1.0  0.45428  0.27737  0.89133  1.0000
  C   C1859     1.0  0.44562  0.28966  0.89244  1.0000
  C   C1860     1.0  0.43199  0.29089  0.89470  1.0000
  C   C1861     1.0  0.42702  0.27976  0.89595  1.0000
  C   C1862     1.0  0.43567  0.26735  0.89525  1.0000
  H   H2203     1.0  0.46483  0.27649  0.88947  1.0000
  H   H2204     1.0  0.44950  0.29824  0.89138  1.0000
  H   H2205     1.0  0.41647  0.28069  0.89777  1.0000
  H   H2206     1.0  0.43179  0.25874  0.89638  1.0000
  C   C1863     1.0  0.48796  0.21420  0.92916  1.0000
  C   C1864     1.0  0.48353  0.22636  0.92089  1.0000
  C   C1865     1.0  0.49188  0.23522  0.91456  1.0000
  C   C1866     1.0  0.50482  0.23189  0.91633  1.0000
  C   C1867     1.0  0.50923  0.21987  0.92482  1.0000
  C   C1868     1.0  0.50079  0.21103  0.93128  1.0000
  H   H2207     1.0  0.47371  0.22897  0.91912  1.0000
  H   H2208     1.0  0.48841  0.24445  0.90793  1.0000
  H   H2209     1.0  0.51915  0.21735  0.92638  1.0000
  H   H2210     1.0  0.50435  0.20163  0.93761  1.0000
  C   C1869     1.0  0.43497  0.16171  0.88808  1.0000
  C   C1870     1.0  0.42826  0.17211  0.89470  1.0000
  C   C1871     1.0  0.43494  0.18155  0.89503  1.0000
  C   C1872     1.0  0.44825  0.18074  0.88849  1.0000
  C   C1873     1.0  0.45473  0.17065  0.88150  1.0000
  C   C1874     1.0  0.44822  0.16107  0.88151  1.0000
  H   H2211     1.0  0.41799  0.17271  0.89977  1.0000
  H   H2212     1.0  0.42983  0.18942  0.90029  1.0000
  H   H2213     1.0  0.46501  0.16991  0.87643  1.0000
  H   H2214     1.0  0.45351  0.15320  0.87635  1.0000
  C   C1875     1.0  0.49660  0.12531  0.89182  1.0000
  C   C1876     1.0  0.49352  0.11380  0.90093  1.0000
  C   C1877     1.0  0.49988  0.10803  0.91158  1.0000
  C   C1878     1.0  0.50905  0.11398  0.91326  1.0000
  C   C1879     1.0  0.51178  0.12573  0.90439  1.0000
  C   C1880     1.0  0.50571  0.13129  0.89355  1.0000
  H   H2215     1.0  0.48637  0.10921  0.89972  1.0000
  H   H2216     1.0  0.49771  0.09897  0.91847  1.0000
  H   H2217     1.0  0.51871  0.13049  0.90577  1.0000
  H   H2218     1.0  0.50813  0.14018  0.88651  1.0000
  C   C1881     1.0  0.44029  0.07210  0.84605  1.0000
  C   C1882     1.0  0.43541  0.07705  0.85777  1.0000
  C   C1883     1.0  0.44182  0.08539  0.86056  1.0000
  C   C1884     1.0  0.45329  0.08868  0.85170  1.0000
  C   C1885     1.0  0.45821  0.08364  0.84007  1.0000
  C   C1886     1.0  0.45178  0.07535  0.83726  1.0000
  H   H2219     1.0  0.43791  0.08923  0.86954  1.0000
  H   H2220     1.0  0.46702  0.08624  0.83315  1.0000
  H   H2221     1.0  0.45557  0.07164  0.82819  1.0000
  C   C1887     1.0  0.54901  0.06441  0.87990  1.0000
  C   C1888     1.0  0.54423  0.07126  0.89030  1.0000
  H   H2222     1.0  0.42562  0.36185  0.95665  1.0000
  C   C1889     1.0  0.56487  0.07839  0.88523  1.0000
  C   C1890     1.0  0.56986  0.07115  0.87511  1.0000
  C   C1891     1.0  0.56193  0.06423  0.87238  1.0000
  H   H2223     1.0  0.53433  0.07131  0.89630  1.0000
  C   C1892     1.0  0.41756  0.05027  0.71944  1.0000
  H   H2224     1.0  0.56572  0.05901  0.86432  1.0000
  C   C1893     1.0  0.49852  0.02895  0.84511  1.0000
  C   C1894     1.0  0.48979  0.02172  0.84467  1.0000
  C   C1895     1.0  0.48703  0.02230  0.83247  1.0000
  C   C1896     1.0  0.49284  0.03025  0.82075  1.0000
  C   C1897     1.0  0.50197  0.03704  0.82111  1.0000
  C   C1898     1.0  0.50476  0.03646  0.83329  1.0000
  H   H2225     1.0  0.48534  0.01549  0.85369  1.0000
  H   H2226     1.0  0.48054  0.01643  0.83213  1.0000
  H   H2227     1.0  0.50668  0.04297  0.81203  1.0000
  H   H2228     1.0  0.51161  0.04200  0.83353  1.0000
  C   C1899     1.0  0.41506  0.11762  0.85458  1.0000
  H   H2229     1.0  0.56401  0.16154  0.94849  1.0000
  C   C1900     1.0  0.50192  0.07170  0.87274  1.0000
  C   C1901     1.0  0.41089  0.22836  0.95190  1.0000
  C   C1902     1.0  0.39859  0.23494  0.95816  1.0000
  C   C1903     1.0  0.39762  0.24084  0.96862  1.0000
  H   H2230     1.0  0.49965  0.00358  0.76057  1.0000
  C   C1904     1.0  0.51173  0.31343  0.97491  1.0000
  H   H2231     1.0  0.45755  0.98767  0.71410  1.0000
  C   C1905     1.0  0.45224  0.35917  0.92285  1.0000
  C   C1906     1.0  0.43585  0.11276  0.95654  1.0000
  C   C1907     1.0  0.44579  0.10127  0.95856  1.0000
  C   C1908     1.0  0.45174  0.09415  0.94837  1.0000
  C   C1909     1.0  0.44808  0.09875  0.93599  1.0000
  C   C1910     1.0  0.43807  0.11017  0.93404  1.0000
  C   C1911     1.0  0.43185  0.11701  0.94435  1.0000
  H   H2232     1.0  0.44880  0.09781  0.96800  1.0000
  H   H2233     1.0  0.45943  0.08529  0.94995  1.0000
  H   H2234     1.0  0.43511  0.11374  0.92458  1.0000
  H   H2235     1.0  0.42405  0.12576  0.94274  1.0000
  H   H2236     1.0  0.55437  0.28253  0.94901  1.0000
  C   C1912     1.0  0.48546  0.99431  0.57393  1.0000
  H   H2237     1.0  0.39927  0.12988  0.87562  1.0000
  H   H2238     1.0  0.39284  0.18863  0.97025  1.0000
  C   C1913     1.0  0.39937  0.04030  0.57979  1.0000
  H   H2239     1.0  0.49246  0.22286  0.96986  1.0000
  C   C1914     1.0  0.40865  0.04752  0.76126  1.0000
  C   C1915     1.0  0.55604  0.02726  0.77966  1.0000
  C   C1916     1.0  0.56592  0.03026  0.78371  1.0000
  C   C1917     1.0  0.56262  0.03772  0.79351  1.0000
  C   C1918     1.0  0.54939  0.04214  0.79948  1.0000
  C   C1919     1.0  0.53945  0.03920  0.79542  1.0000
  C   C1920     1.0  0.54277  0.03179  0.78550  1.0000
  H   H2240     1.0  0.57617  0.02705  0.77900  1.0000
  H   H2241     1.0  0.57033  0.04028  0.79628  1.0000
  H   H2242     1.0  0.52921  0.04272  0.79990  1.0000
  H   H2243     1.0  0.53512  0.02936  0.78254  1.0000
  H   H2244     1.0  0.51360  0.98420  0.66243  1.0000
  C   C1921     1.0  0.43273  0.99024  0.74945  1.0000
  C   C1922     1.0  0.49385  0.01355  0.76207  1.0000
  H   H2245     1.0  0.51868  0.01495  0.80799  1.0000
  H   H2246     1.0  0.40515  0.03825  0.64884  1.0000
  C   C1923     1.0  0.53939  0.99141  0.82553  1.0000
  H   H2247     1.0  0.41987  0.05186  0.70836  1.0000
  N   N128      1.0  0.42674  0.99623  0.66878  1.0000
  C   C1924     1.0  0.56268  0.10783  0.95555  1.0000
  C   C1925     1.0  0.48387  0.07235  0.66461  1.0000
  H   H2248     1.0  0.40187  0.99754  0.56844  1.0000
  H   H2249     1.0  0.57265  0.29778  0.86792  1.0000
  C   C1926     1.0  0.40021  0.06992  0.71914  1.0000
  C   C1927     1.0  0.42004  0.07357  0.65858  1.0000
  C   C1928     1.0  0.39500  0.36445  0.91040  1.0000
  H   H2250     1.0  0.41890  0.08177  0.71806  1.0000
  H   H2251     1.0  0.56253  0.23813  0.95108  1.0000
  H   H2252     1.0  0.52004  0.37350  0.97595  1.0000
  C   C1929     1.0  0.42597  0.06291  0.63979  1.0000
  H   H2253     1.0  0.40730  0.99235  0.67775  1.0000
  C   C1930     1.0  0.55002  0.03165  0.66881  1.0000
  C   C1931     1.0  0.54624  0.03753  0.67987  1.0000
  C   C1932     1.0  0.54758  0.02974  0.69260  1.0000
  C   C1933     1.0  0.55306  0.01610  0.69422  1.0000
  C   C1934     1.0  0.55670  0.01022  0.68318  1.0000
  C   C1935     1.0  0.55499  0.01793  0.67054  1.0000
  H   H2254     1.0  0.54234  0.04814  0.67858  1.0000
  H   H2255     1.0  0.54472  0.03435  0.70107  1.0000
  H   H2256     1.0  0.56092  0.99968  0.68436  1.0000
  H   H2257     1.0  0.55786  0.01332  0.66208  1.0000
  C   C1936     1.0  0.57105  0.26726  0.88817  1.0000
  H   H2258     1.0  0.49821  0.05854  0.90595  1.0000
  H   H2259     1.0  0.51397  0.99198  0.60914  1.0000
  C   C1937     1.0  0.44709  0.37018  0.95340  1.0000
  C   C1938     1.0  0.40583  0.05876  0.76647  1.0000
  C   C1939     1.0  0.40464  0.07132  0.75800  1.0000
  S   S539      1.0  0.43162  0.06217  0.84257  1.0000
  S   S540      1.0  0.43588  0.05482  0.77957  1.0000
  C   C1940     1.0  0.50157  0.04978  0.72831  1.0000
  C   C1941     1.0  0.48842  0.05324  0.72706  1.0000
  C   C1942     1.0  0.48546  0.05240  0.71540  1.0000
  C   C1943     1.0  0.49570  0.04871  0.70485  1.0000
  C   C1944     1.0  0.50885  0.04612  0.70582  1.0000
  C   C1945     1.0  0.51178  0.04637  0.71766  1.0000
  H   H2260     1.0  0.48050  0.05590  0.73529  1.0000
  H   H2261     1.0  0.47530  0.05462  0.71459  1.0000
  H   H2262     1.0  0.51680  0.04344  0.69761  1.0000
  H   H2263     1.0  0.52196  0.04377  0.71857  1.0000
  C   C1946     1.0  0.48382  0.02250  0.60692  1.0000
  C   C1947     1.0  0.49760  0.01988  0.60250  1.0000
  C   C1948     1.0  0.50523  0.02559  0.60704  1.0000
  C   C1949     1.0  0.49901  0.03419  0.61572  1.0000
  C   C1950     1.0  0.48520  0.03722  0.61970  1.0000
  C   C1951     1.0  0.47761  0.03132  0.61537  1.0000
  H   H2264     1.0  0.50238  0.01338  0.59562  1.0000
  H   H2265     1.0  0.51587  0.02347  0.60371  1.0000
  H   H2266     1.0  0.48036  0.04397  0.62634  1.0000
  H   H2267     1.0  0.46696  0.03346  0.61874  1.0000
  H   H2268     1.0  0.49341  0.31959  0.96840  1.0000
  C   C1952     1.0  0.58603  0.24965  0.91759  1.0000
  H   H2269     1.0  0.42786  0.99026  0.72518  1.0000
  H   H2270     1.0  0.43097  0.35271  0.94397  1.0000
  C   C1953     1.0  0.55461  0.06724  0.96195  1.0000
  H   H2271     1.0  0.51456  0.04687  0.88335  1.0000
  C   C1954     1.0  0.43879  0.03140  0.77201  1.0000
  H   H2272     1.0  0.53482  0.99921  0.86233  1.0000
  C   C1955     1.0  0.47093  0.06671  0.64830  1.0000
  H   H2273     1.0  0.56477  0.01237  0.81101  1.0000
  C   C1956     1.0  0.41020  0.12793  0.87400  1.0000
  C   C1957     1.0  0.51477  0.36029  0.94811  1.0000
  C   C1958     1.0  0.43876  0.99092  0.82698  1.0000
  Fe  Fe272     1.0  0.43007  0.04465  0.61566  1.0000
  S   S541      1.0  0.45389  0.04996  0.70594  1.0000
  H   H2274     1.0  0.52364  0.30262  0.88510  1.0000
  C   C1959     1.0  0.45331  0.98796  0.72476  1.0000
  H   H2275     1.0  0.53801  0.31653  0.96415  1.0000
  H   H2276     1.0  0.50235  0.04614  0.87552  1.0000
  H   H2277     1.0  0.41012  0.04396  0.72322  1.0000
  H   H2278     1.0  0.39235  0.06416  0.72398  1.0000
  H   H2279     1.0  0.52679  0.26740  0.95239  1.0000
  H   H2280     1.0  0.53210  0.08956  0.94581  1.0000
  H   H2281     1.0  0.40816  0.04911  0.66492  1.0000
  H   H2282     1.0  0.58485  0.39316  0.90866  1.0000
  C   C1960     1.0  0.56064  0.16878  0.96613  1.0000
  C   C1961     1.0  0.45492  0.06779  0.89045  1.0000
  C   C1962     1.0  0.57627  0.32045  0.97284  1.0000
  C   C1963     1.0  0.41868  0.16431  0.93515  1.0000
  H   H2283     1.0  0.44066  0.06151  0.75107  1.0000
  H   H2284     1.0  0.55557  0.26481  0.96819  1.0000
  H   H2285     1.0  0.39626  0.07999  0.72135  1.0000
  H   H2286     1.0  0.49543  0.35948  0.96067  1.0000
  H   H2287     1.0  0.52094  0.98465  0.86181  1.0000
  H   H2288     1.0  0.40029  0.10998  0.87177  1.0000
  C   C1964     1.0  0.41851  0.07328  0.64610  1.0000
  C   C1965     1.0  0.57415  0.31035  0.96831  1.0000
  H   H2289     1.0  0.39277  0.05988  0.51995  1.0000
  H   H2290     1.0  0.41508  0.06738  0.56127  1.0000
  H   H2291     1.0  0.47646  0.06929  0.90716  1.0000
  H   H2292     1.0  0.56096  0.09235  0.97338  1.0000
  C   C1966     1.0  0.40469  0.09925  0.85670  1.0000
  H   H2293     1.0  0.48895  0.35820  0.92049  1.0000
  H   H2294     1.0  0.57347  0.37302  0.87095  1.0000
  H   H2295     1.0  0.56678  0.19993  0.95918  1.0000
  H   H2296     1.0  0.47135  0.22193  0.97196  1.0000
  C   C1967     1.0  0.42916  0.06357  0.66487  1.0000
  H   H2297     1.0  0.45293  0.07598  0.66015  1.0000
  C   C1968     1.0  0.51876  0.98887  0.68441  1.0000
  H   H2298     1.0  0.40546  0.08262  0.73810  1.0000
  C   C1969     1.0  0.45982  0.06941  0.90046  1.0000
  H   H2299     1.0  0.49996  0.29621  0.90776  1.0000
  S   S542      1.0  0.47203  0.01955  0.70470  1.0000
  H   H2300     1.0  0.39982  0.37674  0.97422  1.0000
  C   C1970     1.0  0.50480  0.36204  0.95939  1.0000
  H   H2301     1.0  0.40478  0.26896  0.93192  1.0000
  C   C1971     1.0  0.57397  0.23358  0.93274  1.0000
  C   C1972     1.0  0.50100  0.06549  0.89625  1.0000
  H   H2302     1.0  0.42681  0.04456  0.72280  1.0000
  H   H2303     1.0  0.55468  0.37498  0.96577  1.0000
  S   S543      1.0  0.43974  0.02468  0.62640  1.0000
  C   C1973     1.0  0.54832  0.12528  0.97236  1.0000
  S   S544      1.0  0.48471  0.12951  0.97664  1.0000
  N   N129      1.0  0.49976  0.17393  0.90120  1.0000
  C   C1974     1.0  0.50999  0.16203  0.90518  1.0000
  C   C1975     1.0  0.48913  0.17575  0.91329  1.0000
  C   C1976     1.0  0.49382  0.17130  0.89152  1.0000
  C   C1977     1.0  0.50595  0.18553  0.89494  1.0000
  C   C1978     1.0  0.51610  0.18540  0.88316  1.0000
  C   C1979     1.0  0.50252  0.19699  0.90043  1.0000
  C   C1980     1.0  0.52242  0.19601  0.87732  1.0000
  C   C1981     1.0  0.50908  0.20744  0.89458  1.0000
  C   C1982     1.0  0.51909  0.20691  0.88313  1.0000
  H   H2304     1.0  0.51523  0.16386  0.91186  1.0000
  H   H2305     1.0  0.50567  0.15319  0.91050  1.0000
  H   H2306     1.0  0.51764  0.15913  0.89644  1.0000
  H   H2307     1.0  0.49293  0.17731  0.92126  1.0000
  H   H2308     1.0  0.48464  0.16690  0.91773  1.0000
  H   H2309     1.0  0.48091  0.18435  0.91089  1.0000
  H   H2310     1.0  0.50127  0.16879  0.88253  1.0000
  H   H2311     1.0  0.48896  0.16271  0.89594  1.0000
  H   H2312     1.0  0.48621  0.18011  0.88812  1.0000
  H   H2313     1.0  0.51947  0.17695  0.87852  1.0000
  H   H2314     1.0  0.49496  0.19806  0.90936  1.0000
  H   H2315     1.0  0.53022  0.19563  0.86841  1.0000
  H   H2316     1.0  0.50652  0.21595  0.89906  1.0000
  H   H2317     1.0  0.52443  0.21485  0.87885  1.0000
  H   H2318     1.0  0.49480  0.98783  0.57568  1.0000
  H   H2319     1.0  0.43516  0.00585  0.80938  1.0000
  H   H2320     1.0  0.53888  0.99668  0.83328  1.0000
  C   C1983     1.0  0.57423  0.05092  0.61711  1.0000
  H   H2321     1.0  0.41379  0.11819  0.88048  1.0000
  C   C1984     1.0  0.41560  0.17666  0.95644  1.0000
  H   H2322     1.0  0.50017  0.02086  0.75680  1.0000
  C   C1985     1.0  0.47370  0.02992  0.76053  1.0000
  C   C1986     1.0  0.47387  0.00660  0.76360  1.0000
  H   H2323     1.0  0.56786  0.05048  0.62734  1.0000
  H   H2324     1.0  0.56331  0.36074  0.95098  1.0000
  H   H2325     1.0  0.39419  0.03733  0.54633  1.0000
  C   C1987     1.0  0.45395  0.16636  0.92100  1.0000
  H   H2326     1.0  0.57707  0.32521  0.93542  1.0000
  C   C1988     1.0  0.47723  0.06240  0.87752  1.0000
  H   H2327     1.0  0.40913  0.34529  0.96230  1.0000
  C   C1989     1.0  0.51692  0.28877  0.92502  1.0000
  C   C1990     1.0  0.52742  0.27668  0.89259  1.0000
  H   H2328     1.0  0.53143  0.11411  0.96140  1.0000
  C   C1991     1.0  0.46941  0.14529  0.92015  1.0000
  H   H2329     1.0  0.50755  0.24524  0.93494  1.0000
  H   H2330     1.0  0.47457  0.18956  0.96570  1.0000
  C   C1992     1.0  0.42213  0.11559  0.84168  1.0000
  H   H2331     1.0  0.51118  0.29875  0.92246  1.0000
  C   C1993     1.0  0.47161  0.01631  0.57002  1.0000
  C   C1994     1.0  0.53407  0.99299  0.79611  1.0000
  C   C1995     1.0  0.43984  0.00090  0.56883  1.0000
  H   H2332     1.0  0.44190  0.00774  0.55890  1.0000
  N   N130      1.0  0.45195  0.99099  0.57183  1.0000
  H   H2333     1.0  0.53548  0.29710  0.89538  1.0000
  H   H2334     1.0  0.42497  0.19820  0.95474  1.0000
  S   S545      1.0  0.55162  0.98392  0.63702  1.0000
  N   N131      1.0  0.41256  0.06307  0.72385  1.0000
  C   C1996     1.0  0.49740  0.21364  0.97539  1.0000
  H   H2335     1.0  0.45854  0.35795  0.90216  1.0000
  C   C1997     1.0  0.46128  0.01099  0.56980  1.0000
  C   C1998     1.0  0.41872  0.03106  0.67571  1.0000
  C   C1999     1.0  0.57124  0.36661  0.91310  1.0000
  H   H2336     1.0  0.47037  0.02924  0.77147  1.0000
  H   H2337     1.0  0.50658  0.99765  0.82666  1.0000
  C   C2000     1.0  0.42118  0.23313  0.96699  1.0000
  H   H2338     1.0  0.40072  0.04131  0.58905  1.0000
  H   H2339     1.0  0.47144  0.00254  0.74548  1.0000
  C   C2001     1.0  0.47173  0.98991  0.68267  1.0000
  H   H2340     1.0  0.50078  0.06922  0.86378  1.0000
  H   H2341     1.0  0.55374  0.35647  0.94259  1.0000
  C   C2002     1.0  0.58537  0.17707  0.88685  1.0000
  H   H2342     1.0  0.47836  0.99326  0.62859  1.0000
  N   N132      1.0  0.48361  0.23149  0.86141  1.0000
  C   C2003     1.0  0.48915  0.23330  0.87183  1.0000
  C   C2004     1.0  0.48787  0.24077  0.84866  1.0000
  C   C2005     1.0  0.46897  0.23544  0.86534  1.0000
  C   C2006     1.0  0.48851  0.21757  0.85979  1.0000
  C   C2007     1.0  0.48005  0.20856  0.86296  1.0000
  C   C2008     1.0  0.50219  0.21259  0.85496  1.0000
  C   C2009     1.0  0.42750  0.99092  0.76282  1.0000
  C   C2010     1.0  0.50699  0.19962  0.85296  1.0000
  C   C2011     1.0  0.41985  0.33454  0.97770  1.0000
  H   H2343     1.0  0.50011  0.23147  0.86918  1.0000
  H   H2344     1.0  0.48543  0.24359  0.87359  1.0000
  H   H2345     1.0  0.48630  0.22642  0.88154  1.0000
  H   H2346     1.0  0.49876  0.23967  0.84568  1.0000
  H   H2347     1.0  0.48370  0.25136  0.84939  1.0000
  H   H2348     1.0  0.48455  0.23918  0.84039  1.0000
  H   H2349     1.0  0.46503  0.22970  0.87542  1.0000
  H   H2350     1.0  0.46553  0.24609  0.86596  1.0000
  H   H2351     1.0  0.46415  0.23412  0.85801  1.0000
  C   C2012     1.0  0.55335  0.35894  0.95210  1.0000
  H   H2352     1.0  0.50929  0.21870  0.85275  1.0000
  H   H2353     1.0  0.55151  0.07177  0.94203  1.0000
  H   H2354     1.0  0.51747  0.19607  0.84917  1.0000
  N   N133      1.0  0.52753  0.99649  0.81977  1.0000
  H   H2355     1.0  0.57794  0.99060  0.55286  1.0000
  C   C2013     1.0  0.55324  0.98567  0.85663  1.0000
  C   C2014     1.0  0.52664  0.01087  0.81371  1.0000
  H   H2356     1.0  0.58042  0.27391  0.86767  1.0000
  S   S546      1.0  0.47175  0.24828  0.98026  1.0000
  C   C2015     1.0  0.41003  0.03232  0.65686  1.0000
  S   S547      1.0  0.53181  0.23861  0.96863  1.0000
  H   H2357     1.0  0.44370  0.16955  0.94051  1.0000
  S   S548      1.0  0.44014  0.01408  0.60038  1.0000
  S   S549      1.0  0.54946  0.23629  0.88365  1.0000
  H   H2358     1.0  0.54848  0.99260  0.81771  1.0000
  H   H2359     1.0  0.51236  0.22312  0.97573  1.0000
  H   H2360     1.0  0.58420  0.26732  0.92382  1.0000
  H   H2361     1.0  0.52449  0.01677  0.82139  1.0000
  H   H2362     1.0  0.42998  0.23265  0.97011  1.0000
  H   H2363     1.0  0.53614  0.01284  0.80711  1.0000
  C   C2016     1.0  0.50579  0.98685  0.61492  1.0000
  C   C2017     1.0  0.41277  0.06838  0.54165  1.0000
  H   H2364     1.0  0.41599  0.18408  0.92293  1.0000
  H   H2365     1.0  0.50555  0.04231  0.66508  1.0000
  H   H2366     1.0  0.39301  0.00419  0.55523  1.0000
  C   C2018     1.0  0.48637  0.12652  0.93933  1.0000
  C   C2019     1.0  0.43716  0.99400  0.65674  1.0000
  N   N134      1.0  0.41404  0.18343  0.96728  1.0000
  N   N135      1.0  0.50157  0.06332  0.77718  1.0000
  C   C2020     1.0  0.50589  0.07392  0.76575  1.0000
  C   C2021     1.0  0.51143  0.05067  0.77620  1.0000
  C   C2022     1.0  0.48885  0.06166  0.77577  1.0000
  C   C2023     1.0  0.50070  0.06669  0.78995  1.0000
  C   C2024     1.0  0.51197  0.06893  0.79262  1.0000
  C   C2025     1.0  0.48908  0.06711  0.80034  1.0000
  C   C2026     1.0  0.51167  0.07127  0.80492  1.0000
  C   C2027     1.0  0.48890  0.06947  0.81260  1.0000
  C   C2028     1.0  0.50017  0.07150  0.81491  1.0000
  H   H2367     1.0  0.49900  0.08372  0.76641  1.0000
  H   H2368     1.0  0.51597  0.07497  0.76520  1.0000
  H   H2369     1.0  0.50627  0.07174  0.75602  1.0000
  H   H2370     1.0  0.52158  0.05161  0.77553  1.0000
  H   H2371     1.0  0.51189  0.04728  0.76715  1.0000
  H   H2372     1.0  0.50897  0.04260  0.78501  1.0000
  H   H2373     1.0  0.48095  0.07082  0.77651  1.0000
  H   H2374     1.0  0.48977  0.05947  0.76593  1.0000
  H   H2375     1.0  0.48546  0.05317  0.78341  1.0000
  H   H2376     1.0  0.52128  0.06841  0.78538  1.0000
  H   H2377     1.0  0.48014  0.06513  0.79946  1.0000
  H   H2378     1.0  0.52056  0.07250  0.80683  1.0000
  H   H2379     1.0  0.48012  0.06918  0.82054  1.0000
  H   H2380     1.0  0.50008  0.07288  0.82458  1.0000
  H   H2381     1.0  0.43475  0.18332  0.96293  1.0000
  C   C2029     1.0  0.51010  0.04674  0.65467  1.0000
  S   S550      1.0  0.46545  0.04077  0.67718  1.0000
  H   H2382     1.0  0.47395  0.03834  0.87106  1.0000
  C   C2030     1.0  0.40616  0.10919  0.86192  1.0000
  C   C2031     1.0  0.50597  0.28861  0.90192  1.0000
  H   H2383     1.0  0.43202  0.99602  0.56879  1.0000
  C   C2032     1.0  0.52669  0.99018  0.69235  1.0000
  H   H2384     1.0  0.44902  0.17586  0.91591  1.0000
  H   H2385     1.0  0.50919  0.07785  0.63521  1.0000
  H   H2386     1.0  0.48986  0.05758  0.63845  1.0000
  Fe  Fe273     1.0  0.43011  0.03460  0.59153  1.0000
  C   C2033     1.0  0.52487  0.29857  0.89557  1.0000
  H   H2387     1.0  0.51420  0.11992  0.96084  1.0000
  H   H2388     1.0  0.44349  0.98841  0.59290  1.0000
  C   C2034     1.0  0.44263  0.02997  0.74880  1.0000
  C   C2035     1.0  0.55205  0.07832  0.89286  1.0000
  C   C2036     1.0  0.50686  0.36716  0.96905  1.0000
  S   S551      1.0  0.56326  0.19730  0.93415  1.0000
  C   C2037     1.0  0.39461  0.07234  0.56025  1.0000
  C   C2038     1.0  0.50171  0.99734  0.63336  1.0000
  H   H2389     1.0  0.49983  0.04147  0.89334  1.0000
  C   C2039     1.0  0.56915  0.24174  0.94197  1.0000
  C   C2040     1.0  0.57882  0.33216  0.96380  1.0000
  S   S552      1.0  0.54320  0.30784  0.92688  1.0000
  Fe  Fe274     1.0  0.55280  0.34243  0.91758  1.0000
  H   H2390     1.0  0.48682  0.00574  0.80728  1.0000
  C   C2041     1.0  0.47863  0.35873  0.92112  1.0000
  H   H2391     1.0  0.46586  0.06432  0.64213  1.0000
  S   S553      1.0  0.44183  0.02784  0.69985  1.0000
  C   C2042     1.0  0.50880  0.09587  0.96586  1.0000
  C   C2043     1.0  0.46361  0.99247  0.78406  1.0000
  H   H2392     1.0  0.50204  0.00009  0.67498  1.0000
  C   C2044     1.0  0.40387  0.07043  0.53361  1.0000
  H   H2393     1.0  0.56168  0.34207  0.88077  1.0000
  H   H2394     1.0  0.46478  0.03341  0.75631  1.0000
  C   C2045     1.0  0.40891  0.24002  0.97302  1.0000
  H   H2395     1.0  0.45671  0.36866  0.95607  1.0000
  C   C2046     1.0  0.57974  0.33357  0.95020  1.0000
  H   H2396     1.0  0.49652  0.08215  0.87278  1.0000
  C   C2047     1.0  0.42066  0.10555  0.83662  1.0000
  H   H2397     1.0  0.40979  0.03776  0.76789  1.0000
  C   C2048     1.0  0.57274  0.25417  0.93923  1.0000
  H   H2398     1.0  0.40251  0.08002  0.76212  1.0000
  C   C2049     1.0  0.55960  0.28485  0.90031  1.0000
  H   H2399     1.0  0.39349  0.08368  0.51151  1.0000
  H   H2400     1.0  0.43538  0.00703  0.57649  1.0000
  C   C2050     1.0  0.52485  0.00208  0.69623  1.0000
  C   C2051     1.0  0.51508  0.01298  0.69234  1.0000
  H   H2401     1.0  0.49648  0.07590  0.89739  1.0000
  C   C2052     1.0  0.46946  0.35913  0.93326  1.0000
  H   H2402     1.0  0.41326  0.03954  0.74419  1.0000
  H   H2403     1.0  0.41223  0.13570  0.87776  1.0000
  H   H2404     1.0  0.38800  0.41547  0.86692  1.0000
  C   C2053     1.0  0.43108  0.12731  0.85849  1.0000
  H   H2405     1.0  0.58091  0.00688  0.56989  1.0000
  H   H2406     1.0  0.48355  0.05960  0.86847  1.0000
  H   H2407     1.0  0.55218  0.34996  0.96025  1.0000
  C   C2054     1.0  0.47659  0.98974  0.81552  1.0000
  C   C2055     1.0  0.57391  0.31226  0.95492  1.0000
  C   C2056     1.0  0.58233  0.23755  0.92056  1.0000
  H   H2408     1.0  0.40184  0.07125  0.70810  1.0000
  H   H2409     1.0  0.51375  0.02223  0.69526  1.0000
  C   C2057     1.0  0.51910  0.36991  0.96786  1.0000
  H   H2410     1.0  0.41013  0.29108  0.92807  1.0000
  H   H2411     1.0  0.57201  0.30142  0.97529  1.0000
  H   H2412     1.0  0.47316  0.35882  0.94176  1.0000
  C   C2058     1.0  0.48368  0.00800  0.57204  1.0000
  N   N136      1.0  0.49702  0.06258  0.88533  1.0000
  H   H2413     1.0  0.56583  0.28168  0.93351  1.0000
  C   C2059     1.0  0.42377  0.01739  0.67671  1.0000
  C   C2060     1.0  0.58432  0.38295  0.90993  1.0000
  H   H2414     1.0  0.47915  0.99473  0.69700  1.0000
  C   C2061     1.0  0.57864  0.26632  0.95192  1.0000
  H   H2415     1.0  0.47312  0.00731  0.78398  1.0000
  H   H2416     1.0  0.57297  0.01353  0.82296  1.0000
  H   H2417     1.0  0.42648  0.10387  0.82694  1.0000
  H   H2418     1.0  0.56278  0.15830  0.92658  1.0000
  N   N137      1.0  0.52027  0.28596  0.90161  1.0000
  H   H2419     1.0  0.57981  0.07110  0.86921  1.0000
  S   S554      1.0  0.43014  0.06405  0.68093  1.0000
  H   H2420     1.0  0.50959  0.06291  0.63068  1.0000
  C   C2062     1.0  0.44072  0.05100  0.75427  1.0000
  C   C2063     1.0  0.52568  0.27116  0.94215  1.0000
  H   H2421     1.0  0.43165  0.22192  0.95191  1.0000
  C   C2064     1.0  0.45976  0.98611  0.77657  1.0000
  C   C2065     1.0  0.54797  0.07421  0.95178  1.0000
  N   N138      1.0  0.41943  0.27271  0.93980  1.0000
  C   C2066     1.0  0.41504  0.26460  0.93341  1.0000
  H   H2422     1.0  0.54278  0.36556  0.97598  1.0000
  C   C2067     1.0  0.41982  0.28594  0.93079  1.0000
  C   C2068     1.0  0.43279  0.26602  0.94229  1.0000
  C   C2069     1.0  0.43557  0.26206  0.95524  1.0000
  C   C2070     1.0  0.44355  0.26317  0.93151  1.0000
  C   C2071     1.0  0.44831  0.25567  0.95716  1.0000
  C   C2072     1.0  0.45623  0.25673  0.93355  1.0000
  C   C2073     1.0  0.45861  0.25298  0.94637  1.0000
  H   H2423     1.0  0.41529  0.25434  0.93960  1.0000
  H   H2424     1.0  0.55387  0.28787  0.90942  1.0000
  H   H2425     1.0  0.42136  0.26373  0.92339  1.0000
  C   C2074     1.0  0.39555  0.03822  0.55563  1.0000
  N   N139      1.0  0.48047  0.20095  0.97591  1.0000
  H   H2426     1.0  0.58364  0.14987  0.87041  1.0000
  H   H2427     1.0  0.42712  0.28533  0.92127  1.0000
  H   H2428     1.0  0.39105  0.01354  0.56731  1.0000
  H   H2429     1.0  0.42252  0.29246  0.93555  1.0000
  H   H2430     1.0  0.42805  0.26369  0.96408  1.0000
  H   H2431     1.0  0.44221  0.26582  0.92138  1.0000
  H   H2432     1.0  0.45018  0.25273  0.96711  1.0000
  H   H2433     1.0  0.46419  0.25452  0.92513  1.0000
  H   H2434     1.0  0.46843  0.24795  0.94797  1.0000
  C   C2075     1.0  0.48257  0.06422  0.88740  1.0000
  C   C2076     1.0  0.41034  0.03750  0.56955  1.0000
  H   H2435     1.0  0.56329  0.05939  0.96011  1.0000
  C   C2077     1.0  0.49928  0.31201  0.97482  1.0000
  C   C2078     1.0  0.43875  0.04499  0.76793  1.0000
  H   H2436     1.0  0.47947  0.03785  0.75638  1.0000
  C   C2079     1.0  0.56285  0.29449  0.88869  1.0000
  C   C2080     1.0  0.43254  0.98912  0.68060  1.0000
  C   C2081     1.0  0.53700  0.31708  0.97461  1.0000
  H   H2437     1.0  0.49896  0.36882  0.97766  1.0000
  H   H2438     1.0  0.57309  0.00128  0.79100  1.0000
  H   H2439     1.0  0.55428  0.21664  0.97286  1.0000
  H   H2440     1.0  0.42520  0.99039  0.69005  1.0000
  H   H2441     1.0  0.51264  0.07128  0.87115  1.0000
  C   C2082     1.0  0.48334  0.18988  0.96904  1.0000
  H   H2442     1.0  0.40793  0.26537  0.95912  1.0000
  C   C2083     1.0  0.41418  0.17421  0.98054  1.0000
  C   C2084     1.0  0.58216  0.01136  0.55899  1.0000
  H   H2443     1.0  0.49986  0.99600  0.64437  1.0000
  S   S555      1.0  0.56783  0.32390  0.91374  1.0000
  H   H2444     1.0  0.43260  0.13449  0.86338  1.0000
  C   C2085     1.0  0.47461  0.21330  0.96709  1.0000
  H   H2445     1.0  0.44121  0.04495  0.64111  1.0000
  C   C2086     1.0  0.42216  0.22724  0.95648  1.0000
  C   C2087     1.0  0.52236  0.09827  0.87706  1.0000
  H   H2446     1.0  0.52306  0.08739  0.87898  1.0000
  H   H2447     1.0  0.52795  0.09990  0.88356  1.0000
  H   H2448     1.0  0.51184  0.10300  0.88048  1.0000
  H   H2449     1.0  0.51567  0.12342  0.86416  1.0000
  H   H2450     1.0  0.53201  0.12065  0.86620  1.0000
  N   N140      1.0  0.44653  0.35935  0.94760  1.0000
  H   H2451     1.0  0.51043  0.09553  0.95522  1.0000
  C   C2088     1.0  0.45017  0.34642  0.95682  1.0000
  C   C2089     1.0  0.45594  0.35944  0.93450  1.0000
  H   H2452     1.0  0.39938  0.28009  0.94976  1.0000
  C   C2090     1.0  0.52947  0.26761  0.91987  1.0000
  C   C2091     1.0  0.40839  0.03629  0.55753  1.0000
  H   H2453     1.0  0.41225  0.01277  0.60399  1.0000
  H   H2454     1.0  0.54488  0.16432  0.89770  1.0000
  H   H2455     1.0  0.52561  0.23082  0.94834  1.0000
  H   H2456     1.0  0.51946  0.30652  0.90104  1.0000
  C   C2092     1.0  0.47343  0.06766  0.89905  1.0000
  C   C2093     1.0  0.49263  0.20174  0.97917  1.0000
  H   H2457     1.0  0.54818  0.08365  0.90084  1.0000
  C   C2094     1.0  0.58281  0.35666  0.91245  1.0000
  Fe  Fe275     1.0  0.42599  0.01726  0.61945  1.0000
  H   H2458     1.0  0.44534  0.37999  0.94632  1.0000
  Fe  Fe276     1.0  0.46221  0.02063  0.68840  1.0000
  N   N141      1.0  0.41682  0.12831  0.85972  1.0000
  H   H2459     1.0  0.57148  0.06124  0.61127  1.0000
  S   S556      1.0  0.57462  0.08766  0.88806  1.0000
  Fe  Fe277     1.0  0.54880  0.13288  0.89463  1.0000
  H   H2460     1.0  0.56490  0.98686  0.78296  1.0000
  C   C2095     1.0  0.52600  0.11824  0.86061  1.0000
  C   C2096     1.0  0.51559  0.99528  0.83071  1.0000
  S   S557      1.0  0.57333  0.21395  0.89596  1.0000
  S   S558      1.0  0.41503  0.03722  0.61043  1.0000
  H   H2461     1.0  0.45978  0.06309  0.87120  1.0000
  S   S559      1.0  0.57938  0.34557  0.96958  1.0000
  C   C2097     1.0  0.54447  0.37374  0.96702  1.0000
  C   C2098     1.0  0.57422  0.14298  0.97716  1.0000
  H   H2462     1.0  0.42897  0.12166  0.83543  1.0000
  H   H2463     1.0  0.39547  0.41012  0.89266  1.0000
  H   H2464     1.0  0.41403  0.08156  0.66339  1.0000
  H   H2465     1.0  0.48819  0.07447  0.67152  1.0000
  S   S560      1.0  0.41609  0.00049  0.63075  1.0000
  C   C2099     1.0  0.56009  0.12151  0.95025  1.0000
  C   C2100     1.0  0.55278  0.13023  0.95864  1.0000
  C   C2101     1.0  0.58062  0.36432  0.87530  1.0000
  S   S561      1.0  0.57777  0.25041  0.88761  1.0000
  H   H2466     1.0  0.41180  0.28122  0.95721  1.0000
  H   H2467     1.0  0.55283  0.29416  0.98098  1.0000
  S   S562      1.0  0.56704  0.12782  0.93349  1.0000
  C   C2102     1.0  0.53439  0.22391  0.95098  1.0000
  H   H2468     1.0  0.55062  0.14083  0.95456  1.0000
  H   H2469     1.0  0.42580  0.07162  0.70623  1.0000
  N   N142      1.0  0.52751  0.10367  0.86274  1.0000
  H   H2470     1.0  0.56263  0.00186  0.82741  1.0000
  H   H2471     1.0  0.46944  0.27741  0.97281  1.0000
  C   C2103     1.0  0.57445  0.27691  0.87675  1.0000
  H   H2472     1.0  0.51393  0.00208  0.83749  1.0000
  H   H2473     1.0  0.44458  0.04818  0.73428  1.0000
  S   S563      1.0  0.56935  0.12277  0.89732  1.0000
  S   S564      1.0  0.42649  0.03638  0.57110  1.0000
  S   S565      1.0  0.44427  0.04404  0.59573  1.0000
  H   H2474     1.0  0.46962  0.29943  0.93260  1.0000
  H   H2475     1.0  0.50750  0.25029  0.95601  1.0000
  H   H2476     1.0  0.49872  0.09278  0.83476  1.0000
  H   H2477     1.0  0.57787  0.17154  0.92624  1.0000
  Fe  Fe278     1.0  0.45187  0.02892  0.71516  1.0000
  H   H2478     1.0  0.58234  0.34651  0.91334  1.0000
  H   H2479     1.0  0.52597  0.28101  0.88222  1.0000
  S   S566      1.0  0.44460  0.02046  0.73708  1.0000
  H   H2480     1.0  0.47662  0.13898  0.91397  1.0000
  H   H2481     1.0  0.49934  0.02052  0.68183  1.0000
  C   C2104     1.0  0.51994  0.10078  0.85468  1.0000
  H   H2482     1.0  0.52913  0.12282  0.84985  1.0000
  H   H2483     1.0  0.46564  0.16054  0.90289  1.0000
  H   H2484     1.0  0.45864  0.27532  0.96395  1.0000
  C   C2105     1.0  0.57202  0.37971  0.91205  1.0000
  H   H2485     1.0  0.46432  0.08086  0.67471  1.0000
  H   H2486     1.0  0.41349  0.19489  0.94094  1.0000
  C   C2106     1.0  0.49132  0.26741  0.95450  1.0000
  C   C2107     1.0  0.50039  0.25652  0.95016  1.0000
  H   H2487     1.0  0.45612  0.29082  0.96848  1.0000
  H   H2488     1.0  0.50107  0.11295  0.86278  1.0000
  H   H2489     1.0  0.49156  0.26912  0.96389  1.0000
  H   H2490     1.0  0.53828  0.27423  0.89194  1.0000
  H   H2491     1.0  0.49201  0.01345  0.77284  1.0000
  H   H2492     1.0  0.55799  0.16980  0.91209  1.0000
  C   C2108     1.0  0.39225  0.00336  0.56602  1.0000
  H   H2493     1.0  0.57926  0.36494  0.88583  1.0000
  C   C2109     1.0  0.47468  0.35835  0.90994  1.0000
  C   C2110     1.0  0.50619  0.10640  0.85604  1.0000
  C   C2111     1.0  0.46386  0.28252  0.96484  1.0000
  H   H2494     1.0  0.48817  0.10794  0.85018  1.0000
  C   C2112     1.0  0.49869  0.10354  0.84890  1.0000
  C   C2113     1.0  0.50462  0.09496  0.84023  1.0000
  C   C2114     1.0  0.52567  0.09195  0.84583  1.0000
  N   N143      1.0  0.47251  0.28728  0.95188  1.0000
  C   C2115     1.0  0.48196  0.27579  0.94702  1.0000
  C   C2116     1.0  0.50043  0.25366  0.93827  1.0000
  H   H2495     1.0  0.47694  0.01492  0.88311  1.0000
  C   C2117     1.0  0.50700  0.01200  0.68472  1.0000
  Fe  Fe279     1.0  0.55222  0.31909  0.90692  1.0000
  C   C2118     1.0  0.51808  0.08917  0.83870  1.0000
  C   C2119     1.0  0.48524  0.01925  0.74235  1.0000
  C   C2120     1.0  0.47049  0.00259  0.77772  1.0000
  H   H2496     1.0  0.40485  0.05771  0.77707  1.0000
  C   C2121     1.0  0.47984  0.29616  0.95377  1.0000
  C   C2122     1.0  0.46382  0.29538  0.94261  1.0000
  C   C2123     1.0  0.46273  0.99704  0.57175  1.0000
  H   H2497     1.0  0.45738  0.28948  0.94145  1.0000
  N   N144      1.0  0.52019  0.09888  0.96874  1.0000
  H   H2498     1.0  0.41685  0.03414  0.54956  1.0000
  H   H2499     1.0  0.53599  0.08696  0.84427  1.0000
  H   H2500     1.0  0.52268  0.08242  0.83198  1.0000
  H   H2501     1.0  0.58444  0.43270  0.97214  1.0000
  C   C2124     1.0  0.43257  0.36121  0.94686  1.0000
  H   H2502     1.0  0.49161  0.02660  0.73784  1.0000
  C   C2125     1.0  0.57231  0.14641  0.96388  1.0000
  S   S567      1.0  0.54306  0.15057  0.87857  1.0000
  H   H2503     1.0  0.47307  0.30533  0.95663  1.0000
  H   H2504     1.0  0.41641  0.14276  0.84107  1.0000
  S   S568      1.0  0.47460  0.01392  0.60264  1.0000
  H   H2505     1.0  0.57507  0.27249  0.95958  1.0000
  H   H2506     1.0  0.46956  0.21124  0.86704  1.0000
  H   H2507     1.0  0.51193  0.06427  0.89430  1.0000
  H   H2508     1.0  0.58463  0.27209  0.94319  1.0000
  C   C2126     1.0  0.54839  0.16972  0.88772  1.0000
  C   C2127     1.0  0.48224  0.27257  0.93491  1.0000
  H   H2509     1.0  0.48707  0.29922  0.94441  1.0000
  C   C2128     1.0  0.54191  0.09777  0.85953  1.0000
  H   H2510     1.0  0.54732  0.10001  0.86583  1.0000
  H   H2511     1.0  0.48188  0.35757  0.90065  1.0000
  H   H2512     1.0  0.41341  0.01442  0.65052  1.0000
  H   H2513     1.0  0.49282  0.00431  0.63017  1.0000
  C   C2129     1.0  0.46694  0.03264  0.87155  1.0000
  C   C2130     1.0  0.49138  0.26166  0.93067  1.0000
  C   C2131     1.0  0.41784  0.16260  0.95845  1.0000
  H   H2514     1.0  0.54993  0.25615  0.95960  1.0000
  H   H2515     1.0  0.56095  0.26379  0.90889  1.0000
  H   H2516     1.0  0.54390  0.08677  0.86146  1.0000
  C   C2132     1.0  0.45675  0.15021  0.94147  1.0000
  H   H2517     1.0  0.42333  0.06571  0.53771  1.0000
  H   H2518     1.0  0.42333  0.02425  0.86882  1.0000
  H   H2519     1.0  0.41235  0.14974  0.85545  1.0000
  C   C2133     1.0  0.54888  0.16484  0.87670  1.0000
  H   H2520     1.0  0.42944  0.01236  0.68425  1.0000
  N   N145      1.0  0.50626  0.06145  0.65193  1.0000
  C   C2134     1.0  0.58611  0.12023  0.97414  1.0000
  C   C2135     1.0  0.46361  0.06425  0.87903  1.0000
  C   C2136     1.0  0.53946  0.98964  0.85983  1.0000
  H   H2521     1.0  0.58575  0.23137  0.91327  1.0000
  C   C2137     1.0  0.46327  0.15771  0.91367  1.0000
  C   C2138     1.0  0.41582  0.99002  0.66944  1.0000
  C   C2139     1.0  0.51867  0.28407  0.93813  1.0000
  C   C2140     1.0  0.46363  0.07329  0.65844  1.0000
  C   C2141     1.0  0.41176  0.03847  0.66589  1.0000
  H   H2522     1.0  0.50213  0.18108  0.85438  1.0000
  C   C2142     1.0  0.55753  0.20634  0.95717  1.0000
  C   C2143     1.0  0.40651  0.07267  0.74424  1.0000
  S   S569      1.0  0.53796  0.33863  0.90873  1.0000
  H   H2523     1.0  0.39110  0.07263  0.57073  1.0000
  C   C2144     1.0  0.43696  0.05332  0.65846  1.0000
  C   C2145     1.0  0.46969  0.99998  0.75623  1.0000
  H   H2524     1.0  0.49096  0.00994  0.73908  1.0000
  H   H2525     1.0  0.42213  0.00036  0.76538  1.0000
  H   H2526     1.0  0.53761  0.21376  0.93534  1.0000
  Fe  Fe280     1.0  0.56454  0.23580  0.89457  1.0000
  H   H2527     1.0  0.42092  0.14591  0.94970  1.0000
  H   H2528     1.0  0.57148  0.04427  0.61253  1.0000
  H   H2529     1.0  0.53642  0.25285  0.93625  1.0000
  H   H2530     1.0  0.58648  0.01019  0.79582  1.0000
  H   H2531     1.0  0.46798  0.13018  0.96086  1.0000
  H   H2532     1.0  0.45984  0.11887  0.93462  1.0000
  H   H2533     1.0  0.45629  0.99090  0.87066  1.0000
  C   C2146     1.0  0.52886  0.98861  0.80997  1.0000
  H   H2534     1.0  0.53683  0.39113  0.94528  1.0000
  H   H2535     1.0  0.55445  0.38458  0.94213  1.0000
  H   H2536     1.0  0.43949  0.37082  0.96287  1.0000
  C   C2147     1.0  0.47008  0.07604  0.66661  1.0000
  H   H2537     1.0  0.44401  0.04548  0.66324  1.0000
  C   C2148     1.0  0.40924  0.27492  0.95205  1.0000
  Fe  Fe281     1.0  0.55758  0.31422  0.93394  1.0000
  H   H2538     1.0  0.55331  0.16839  0.85526  1.0000
  H   H2539     1.0  0.56343  0.35003  0.89261  1.0000
  S   S570      1.0  0.46496  0.00627  0.67573  1.0000
  C   C2149     1.0  0.47043  0.11755  0.93455  1.0000
  H   H2540     1.0  0.45543  0.12466  0.95710  1.0000
  H   H2541     1.0  0.47405  0.10713  0.93974  1.0000
  H   H2542     1.0  0.47066  0.11338  0.95976  1.0000
  H   H2543     1.0  0.53661  0.00257  0.79192  1.0000
  C   C2150     1.0  0.46625  0.12381  0.95526  1.0000
  C   C2151     1.0  0.41266  0.99672  0.59549  1.0000
  C   C2152     1.0  0.41194  0.09741  0.84410  1.0000
  C   C2153     1.0  0.46603  0.14099  0.93425  1.0000
  H   H2544     1.0  0.47013  0.02693  0.56900  1.0000
  H   H2545     1.0  0.45366  0.14792  0.95220  1.0000
  H   H2546     1.0  0.56005  0.18951  0.85181  1.0000
  C   C2154     1.0  0.41278  0.00224  0.60584  1.0000
  H   H2547     1.0  0.47576  0.11841  0.92403  1.0000
  H   H2548     1.0  0.45698  0.30407  0.94641  1.0000
  H   H2549     1.0  0.47545  0.27825  0.92856  1.0000
  H   H2550     1.0  0.38783  0.42500  0.90644  1.0000
  N   N146      1.0  0.47212  0.12747  0.94081  1.0000
  H   H2551     1.0  0.53765  0.38315  0.96921  1.0000
  C   C2155     1.0  0.57014  0.29044  0.87693  1.0000
  C   C2156     1.0  0.41489  0.01866  0.65787  1.0000
  H   H2552     1.0  0.57934  0.32524  0.87630  1.0000
  H   H2553     1.0  0.49147  0.25936  0.92141  1.0000
  Fe  Fe282     1.0  0.53654  0.23165  0.90398  1.0000
  C   C2157     1.0  0.56247  0.16579  0.97910  1.0000
  H   H2554     1.0  0.41846  0.15594  0.96804  1.0000
  H   H2555     1.0  0.56437  0.24840  0.96668  1.0000
  H   H2556     1.0  0.52384  0.26727  0.89590  1.0000
  H   H2557     1.0  0.41195  0.00305  0.58577  1.0000
  H   H2558     1.0  0.49143  0.12937  0.92874  1.0000
  Fe  Fe283     1.0  0.53014  0.32767  0.92936  1.0000
  C   C2158     1.0  0.40993  0.06139  0.73853  1.0000
  C   C2159     1.0  0.53929  0.22499  0.96128  1.0000
  C   C2160     1.0  0.54277  0.29335  0.98109  1.0000
  H   H2559     1.0  0.56839  0.10104  0.94914  1.0000
  C   C2161     1.0  0.41931  0.15662  0.94792  1.0000
  H   H2560     1.0  0.44161  0.99633  0.89128  1.0000
  H   H2561     1.0  0.42745  0.99697  0.88552  1.0000
  H   H2562     1.0  0.57334  0.36089  0.85543  1.0000
  C   C2162     1.0  0.40815  0.06938  0.55493  1.0000
  H   H2563     1.0  0.51311  0.35645  0.94050  1.0000
  H   H2564     1.0  0.44436  0.06933  0.89151  1.0000
  Fe  Fe284     1.0  0.44575  0.04803  0.68959  1.0000
  C   C2163     1.0  0.45089  0.16273  0.93486  1.0000
  S   S571      1.0  0.55581  0.36333  0.91403  1.0000
  H   H2565     1.0  0.51640  0.98524  0.83742  1.0000
  C   C2164     1.0  0.57979  0.35183  0.86028  1.0000
  H   H2566     1.0  0.49151  0.11622  0.94334  1.0000
  H   H2567     1.0  0.53415  0.36237  0.93744  1.0000
  S   S572      1.0  0.55738  0.31172  0.88805  1.0000
  H   H2568     1.0  0.41986  0.15958  0.92703  1.0000
  C   C2165     1.0  0.55302  0.17206  0.86380  1.0000
  H   H2569     1.0  0.50393  0.29245  0.89172  1.0000
  C   C2166     1.0  0.50872  0.00014  0.68080  1.0000
  C   C2167     1.0  0.43435  0.00303  0.88540  1.0000
  H   H2570     1.0  0.44279  0.99161  0.86376  1.0000
  H   H2571     1.0  0.42858  0.01102  0.89083  1.0000
  H   H2572     1.0  0.43997  0.03605  0.85996  1.0000
  C   C2168     1.0  0.43643  0.99538  0.81410  1.0000
  N   N147      1.0  0.48151  0.01711  0.75715  1.0000
  H   H2573     1.0  0.46162  0.98655  0.72961  1.0000
  S   S573      1.0  0.42846  0.12233  0.96878  1.0000
  S   S574      1.0  0.54264  0.20953  0.90626  1.0000
  C   C2169     1.0  0.55185  0.18197  0.88573  1.0000
  H   H2574     1.0  0.55110  0.18601  0.89414  1.0000
  H   H2575     1.0  0.46193  0.00141  0.88357  1.0000
  C   C2170     1.0  0.41131  0.14141  0.85179  1.0000
  H   H2576     1.0  0.44225  0.35923  0.92277  1.0000
  C   C2171     1.0  0.44894  0.99777  0.86499  1.0000
  H   H2577     1.0  0.40087  0.20156  0.95949  1.0000
  C   C2172     1.0  0.53109  0.26296  0.93304  1.0000
  C   C2173     1.0  0.55681  0.18403  0.86184  1.0000
  S   S575      1.0  0.42814  0.04111  0.81948  1.0000
  Fe  Fe285     1.0  0.44186  0.04512  0.79929  1.0000
  C   C2174     1.0  0.52291  0.11151  0.95958  1.0000
  H   H2578     1.0  0.48794  0.13320  0.94476  1.0000
  H   H2579     1.0  0.50958  0.07696  0.65894  1.0000
  H   H2580     1.0  0.52313  0.06277  0.65820  1.0000
  N   N148      1.0  0.44077  0.00877  0.87157  1.0000
  C   C2175     1.0  0.44775  0.03091  0.86528  1.0000
  C   C2176     1.0  0.56464  0.35080  0.88177  1.0000
  H   H2581     1.0  0.49146  0.19101  0.95999  1.0000
  C   C2177     1.0  0.55608  0.18911  0.87277  1.0000
  C   C2178     1.0  0.56347  0.27123  0.89997  1.0000
  C   C2179     1.0  0.54118  0.21427  0.94360  1.0000
  H   H2582     1.0  0.54649  0.10161  0.84892  1.0000
  H   H2583     1.0  0.41108  0.08942  0.84026  1.0000
  H   H2584     1.0  0.45451  0.00175  0.85482  1.0000
  H   H2585     1.0  0.53012  0.32655  0.97651  1.0000
  C   C2180     1.0  0.43548  0.98631  0.80739  1.0000
  C   C2181     1.0  0.44052  0.02397  0.76247  1.0000
  H   H2586     1.0  0.51451  0.29049  0.94519  1.0000
  C   C2182     1.0  0.51213  0.06595  0.66044  1.0000
  H   H2587     1.0  0.52332  0.06407  0.63588  1.0000
  C   C2183     1.0  0.43011  0.01601  0.86423  1.0000
  C   C2184     1.0  0.44935  0.01725  0.87183  1.0000
  C   C2185     1.0  0.45655  0.03838  0.86504  1.0000
  H   H2588     1.0  0.50489  0.99333  0.79227  1.0000
  C   C2186     1.0  0.52689  0.36346  0.94658  1.0000
  H   H2589     1.0  0.54267  0.13206  0.97875  1.0000
  H   H2590     1.0  0.50213  0.27937  0.90641  1.0000
  C   C2187     1.0  0.48497  0.19560  0.86096  1.0000
  Fe  Fe286     1.0  0.47333  0.04056  0.69444  1.0000
  H   H2591     1.0  0.45991  0.98878  0.55158  1.0000
  H   H2592     1.0  0.50888  0.06151  0.67120  1.0000
  H   H2593     1.0  0.43720  0.02669  0.78252  1.0000
  H   H2594     1.0  0.50692  0.04258  0.64800  1.0000
  S   S576      1.0  0.55098  0.23309  0.91466  1.0000
  H   H2595     1.0  0.56313  0.38750  0.91245  1.0000
  Fe  Fe287     1.0  0.55693  0.21417  0.88681  1.0000
  C   C2188     1.0  0.55053  0.21586  0.96481  1.0000
  C   C2189     1.0  0.42497  0.19040  0.96412  1.0000
  H   H2596     1.0  0.52100  0.04310  0.65335  1.0000
  H   H2597     1.0  0.54450  0.38009  0.93407  1.0000
  N   N149      1.0  0.54274  0.37065  0.95499  1.0000
  C   C2190     1.0  0.52961  0.36791  0.95663  1.0000
  H   H2598     1.0  0.55736  0.35980  0.87813  1.0000
  C   C2191     1.0  0.52238  0.28074  0.91542  1.0000
  C   C2192     1.0  0.51232  0.06683  0.63784  1.0000
  C   C2193     1.0  0.46861  0.01938  0.87834  1.0000
  C   C2194     1.0  0.49165  0.06571  0.65426  1.0000
  H   H2599     1.0  0.45965  0.98500  0.75689  1.0000
  C   C2195     1.0  0.41508  0.18418  0.94328  1.0000
  C   C2196     1.0  0.55843  0.10291  0.96927  1.0000
  H   H2600     1.0  0.46865  0.99524  0.82202  1.0000
  S   S577      1.0  0.56013  0.20461  0.86966  1.0000
  C   C2197     1.0  0.55307  0.20596  0.94622  1.0000
  Fe  Fe288     1.0  0.55836  0.21119  0.91525  1.0000
  C   C2198     1.0  0.49839  0.19114  0.85592  1.0000
  S   S578      1.0  0.54372  0.33302  0.93838  1.0000
  C   C2199     1.0  0.42175  0.01071  0.66794  1.0000
  H   H2601     1.0  0.39695  0.42557  0.87028  1.0000
  H   H2602     1.0  0.39956  0.19827  0.97695  1.0000
  H   H2603     1.0  0.57575  0.13942  0.95744  1.0000
  C   C2200     1.0  0.58573  0.02953  0.63857  1.0000
  C   C2201     1.0  0.56525  0.16070  0.91548  1.0000
  H   H2604     1.0  0.55540  0.17858  0.96193  1.0000
  C   C2202     1.0  0.48679  0.99569  0.80720  1.0000
  C   C2203     1.0  0.49692  0.98871  0.79876  1.0000
  N   N150      1.0  0.58143  0.99616  0.81448  1.0000
  H   H2605     1.0  0.58536  0.25703  0.95599  1.0000
  C   C2204     1.0  0.53906  0.08073  0.97679  1.0000
  H   H2606     1.0  0.48543  0.29133  0.96178  1.0000
  C   C2205     1.0  0.55896  0.25788  0.96127  1.0000
  C   C2206     1.0  0.57698  0.32375  0.94582  1.0000
  C   C2207     1.0  0.53200  0.08799  0.96664  1.0000
  C   C2208     1.0  0.58168  0.15530  0.88891  1.0000
  H   H2607     1.0  0.54085  0.98816  0.77674  1.0000
  C   C2209     1.0  0.41655  0.17808  0.93285  1.0000
  H   H2608     1.0  0.57786  0.11851  0.97096  1.0000
  C   C2210     1.0  0.53670  0.98475  0.78723  1.0000
  H   H2609     1.0  0.57888  0.03690  0.64376  1.0000
  H   H2610     1.0  0.55209  0.27388  0.93796  1.0000
  H   H2611     1.0  0.38811  0.24621  0.97320  1.0000
  H   H2612     1.0  0.43344  0.99847  0.64743  1.0000
  H   H2613     1.0  0.58537  0.05613  0.63367  1.0000
  H   H2614     1.0  0.43350  0.98986  0.79749  1.0000
  H   H2615     1.0  0.49664  0.99317  0.61178  1.0000
  H   H2616     1.0  0.50998  0.00262  0.62871  1.0000
  H   H2617     1.0  0.51487  0.32215  0.96822  1.0000
  C   C2211     1.0  0.41368  0.99413  0.61848  1.0000
  H   H2618     1.0  0.58280  0.44499  0.94818  1.0000
  C   C2212     1.0  0.57264  0.99149  0.79718  1.0000
  H   H2619     1.0  0.57698  0.34318  0.85892  1.0000
  H   H2620     1.0  0.38983  0.23581  0.95467  1.0000
  H   H2621     1.0  0.49150  0.01220  0.57255  1.0000
  H   H2622     1.0  0.57103  0.22420  0.93491  1.0000
  H   H2623     1.0  0.41217  0.99333  0.66005  1.0000
  H   H2624     1.0  0.52533  0.11098  0.94891  1.0000
  C   C2213     1.0  0.55016  0.07048  0.97442  1.0000
  H   H2625     1.0  0.45542  0.04861  0.85950  1.0000
  C   C2214     1.0  0.38687  0.42442  0.87082  1.0000
  H   H2626     1.0  0.54686  0.31776  0.97534  1.0000
  C   C2215     1.0  0.38998  0.07355  0.53867  1.0000
  H   H2627     1.0  0.42395  0.00934  0.86402  1.0000
  N   N151      1.0  0.57841  0.35152  0.87454  1.0000
  H   H2628     1.0  0.43090  0.99932  0.74204  1.0000
  H   H2629     1.0  0.57231  0.01390  0.55646  1.0000
  N   N152      1.0  0.50460  0.98440  0.62951  1.0000
  H   H2630     1.0  0.39804  0.09275  0.86252  1.0000
  H   H2631     1.0  0.43157  0.06720  0.72144  1.0000
  H   H2632     1.0  0.53107  0.00292  0.70219  1.0000
  H   H2633     1.0  0.57304  0.18306  0.91196  1.0000
  H   H2634     1.0  0.44736  0.99823  0.72466  1.0000
  H   H2635     1.0  0.44558  0.99849  0.65589  1.0000
  H   H2636     1.0  0.39375  0.38111  0.93359  1.0000
  H   H2637     1.0  0.58682  0.01102  0.60055  1.0000
  C   C2216     1.0  0.46279  0.98986  0.76269  1.0000
  C   C2217     1.0  0.50890  0.21397  0.97874  1.0000
  H   H2638     1.0  0.51009  0.99316  0.74123  1.0000
  H   H2639     1.0  0.57908  0.14603  0.89465  1.0000
  H   H2640     1.0  0.56271  0.99185  0.60880  1.0000
  C   C2218     1.0  0.55961  0.27586  0.94198  1.0000
  H   H2641     1.0  0.54311  0.29193  0.97109  1.0000
  C   C2219     1.0  0.41067  0.04873  0.74751  1.0000
  C   C2220     1.0  0.58437  0.15737  0.87501  1.0000
  H   H2642     1.0  0.58513  0.02086  0.55751  1.0000
  C   C2221     1.0  0.40129  0.19337  0.96853  1.0000
  H   H2643     1.0  0.58361  0.01412  0.65645  1.0000
  N   N153      1.0  0.57898  0.16262  0.91005  1.0000
  C   C2222     1.0  0.57667  0.98717  0.80954  1.0000
  H   H2644     1.0  0.46116  0.98965  0.79485  1.0000
  H   H2645     1.0  0.46225  0.99172  0.60704  1.0000
  H   H2646     1.0  0.51026  0.13123  0.97844  1.0000
  H   H2647     1.0  0.58192  0.34254  0.94315  1.0000
  C   C2223     1.0  0.58204  0.16508  0.89529  1.0000
  C   C2224     1.0  0.58016  0.17367  0.91513  1.0000
  H   H2648     1.0  0.58110  0.98519  0.83485  1.0000
  C   C2225     1.0  0.58671  0.32672  0.88048  1.0000
  C   C2226     1.0  0.55680  0.58061  0.00097  1.0000
  Fe  Fe289     1.0  0.43471  0.85159  0.00495  1.0000
  Fe  Fe290     1.0  0.46060  0.84351  0.01353  1.0000
  S   S579      1.0  0.45143  0.83670  0.03506  1.0000
  S   S580      1.0  0.48251  0.84073  0.00604  1.0000
  Fe  Fe291     1.0  0.43948  0.82764  0.02734  1.0000
  Fe  Fe292     1.0  0.43601  0.85558  0.03177  1.0000
  H   H2649     1.0  0.40698  0.82615  0.03133  1.0000
  S   S581      1.0  0.45020  0.83273  0.00609  1.0000
  S   S582      1.0  0.44605  0.86307  0.01056  1.0000
  Fe  Fe293     1.0  0.54613  0.84728  0.02920  1.0000
  S   S583      1.0  0.54251  0.83672  0.05086  1.0000
  S   S584      1.0  0.56509  0.84054  0.01498  1.0000
  Fe  Fe294     1.0  0.51920  0.86518  0.03194  1.0000
  S   S585      1.0  0.51305  0.85637  0.05369  1.0000
  S   S586      1.0  0.50447  0.88075  0.02166  1.0000
  Fe  Fe295     1.0  0.53321  0.85721  0.05485  1.0000
  S   S587      1.0  0.53436  0.86172  0.07395  1.0000
  Fe  Fe296     1.0  0.52273  0.83675  0.04807  1.0000
  S   S588      1.0  0.51196  0.82003  0.05564  1.0000
  S   S589      1.0  0.53855  0.86787  0.03336  1.0000
  S   S590      1.0  0.52716  0.84546  0.02623  1.0000
  H   H2650     1.0  0.46168  0.76362  0.02946  1.0000
  Fe  Fe297     1.0  0.52014  0.92217  0.12051  1.0000
  S   S591      1.0  0.53816  0.90567  0.12107  1.0000
  S   S592      1.0  0.49962  0.91862  0.12820  1.0000
  H   H2651     1.0  0.44153  0.79436  0.99490  1.0000
  S   S593      1.0  0.52674  0.93484  0.12951  1.0000
  S   S594      1.0  0.52744  0.93221  0.09938  1.0000
  Fe  Fe298     1.0  0.44573  0.92119  0.07376  1.0000
  S   S595      1.0  0.44325  0.94352  0.06813  1.0000
  S   S596      1.0  0.45335  0.90908  0.05768  1.0000
  Fe  Fe299     1.0  0.44221  0.92023  0.10351  1.0000
  S   S597      1.0  0.43887  0.94230  0.10029  1.0000
  S   S598      1.0  0.44561  0.90704  0.12340  1.0000
  Fe  Fe300     1.0  0.42661  0.94335  0.08624  1.0000
  S   S599      1.0  0.40784  0.95915  0.08642  1.0000
  Fe  Fe301     1.0  0.45565  0.94071  0.08272  1.0000
  S   S600      1.0  0.47129  0.95108  0.08163  1.0000
  S   S601      1.0  0.42809  0.92113  0.09108  1.0000
  S   S602      1.0  0.45988  0.91861  0.08658  1.0000
  S   S603      1.0  0.51609  0.90107  0.23714  1.0000
  Fe  Fe302     1.0  0.44779  0.93499  0.18248  1.0000
  S   S604      1.0  0.46953  0.93173  0.18120  1.0000
  S   S605      1.0  0.43909  0.94256  0.16416  1.0000
  Fe  Fe303     1.0  0.44073  0.93143  0.21298  1.0000
  S   S606      1.0  0.46187  0.92785  0.21396  1.0000
  S   S607      1.0  0.42527  0.93030  0.23241  1.0000
  Fe  Fe304     1.0  0.46336  0.94464  0.19606  1.0000
  S   S608      1.0  0.47379  0.96051  0.19504  1.0000
  Fe  Fe305     1.0  0.46600  0.91524  0.19921  1.0000
  S   S609      1.0  0.47990  0.89537  0.20300  1.0000
  S   S610      1.0  0.44177  0.94931  0.19598  1.0000
  S   S611      1.0  0.44467  0.91740  0.19945  1.0000
  C   C2227     1.0  0.47372  0.97991  0.27239  1.0000
  H   H2652     1.0  0.43281  0.92101  0.36297  1.0000
  C   C2228     1.0  0.41799  0.67641  0.04047  1.0000
  H   H2653     1.0  0.58527  0.87707  0.33553  1.0000
  H   H2654     1.0  0.52793  0.82352  0.98224  1.0000
  H   H2655     1.0  0.55149  0.55948  0.98946  1.0000
  C   C2229     1.0  0.43466  0.78326  0.03343  1.0000
  H   H2656     1.0  0.56207  0.71191  0.00772  1.0000
  H   H2657     1.0  0.39111  0.58541  0.06345  1.0000
  H   H2658     1.0  0.49960  0.97602  0.32165  1.0000
  Fe  Fe306     1.0  0.43201  0.94168  0.30052  1.0000
  S   S612      1.0  0.43525  0.92220  0.31526  1.0000
  S   S613      1.0  0.43957  0.94651  0.27823  1.0000
  Fe  Fe307     1.0  0.42378  0.95726  0.32221  1.0000
  S   S614      1.0  0.42697  0.93941  0.33876  1.0000
  C   C2230     1.0  0.45718  0.97719  0.10825  1.0000
  Fe  Fe308     1.0  0.44533  0.93210  0.32423  1.0000
  S   S615      1.0  0.46571  0.92078  0.32700  1.0000
  Fe  Fe309     1.0  0.41659  0.93116  0.32854  1.0000
  S   S616      1.0  0.40022  0.92052  0.34013  1.0000
  S   S617      1.0  0.44318  0.95100  0.30880  1.0000
  S   S618      1.0  0.41231  0.94966  0.31275  1.0000
  C   C2231     1.0  0.46771  0.67482  0.01277  1.0000
  H   H2659     1.0  0.57696  0.97585  0.43330  1.0000
  N   N154      1.0  0.53666  0.81508  0.99941  1.0000
  C   C2232     1.0  0.50059  0.87960  0.09023  1.0000
  H   H2660     1.0  0.55082  0.92740  0.37810  1.0000
  H   H2661     1.0  0.57588  0.90713  0.32879  1.0000
  H   H2662     1.0  0.48218  0.92370  0.29613  1.0000
  C   C2233     1.0  0.45021  0.98118  0.28043  1.0000
  H   H2663     1.0  0.51344  0.96541  0.30389  1.0000
  C   C2234     1.0  0.44115  0.91215  0.36337  1.0000
  H   H2664     1.0  0.45905  0.64054  0.01982  1.0000
  H   H2665     1.0  0.44935  0.95781  0.21350  1.0000
  C   C2235     1.0  0.49994  0.94198  0.16531  1.0000
  H   H2666     1.0  0.46500  0.80806  0.05213  1.0000
  Fe  Fe310     1.0  0.52584  0.62414  0.02899  1.0000
  S   S619      1.0  0.52771  0.63588  0.00791  1.0000
  S   S620      1.0  0.50576  0.62089  0.04091  1.0000
  Fe  Fe311     1.0  0.55423  0.62308  0.02917  1.0000
  S   S621      1.0  0.55799  0.63529  0.00825  1.0000
  S   S622      1.0  0.57186  0.61630  0.03866  1.0000
  Fe  Fe312     1.0  0.53785  0.64783  0.01428  1.0000
  S   S623      1.0  0.53173  0.67010  0.00759  1.0000
  Fe  Fe313     1.0  0.54752  0.62213  0.00410  1.0000
  C   C2236     1.0  0.40106  0.97481  0.14370  1.0000
  S   S624      1.0  0.53490  0.63688  0.03567  1.0000
  S   S625      1.0  0.54488  0.60912  0.02468  1.0000
  Fe  Fe314     1.0  0.53002  0.75398  0.03592  1.0000
  S   S626      1.0  0.50955  0.76216  0.03235  1.0000
  S   S627      1.0  0.54264  0.76825  0.03378  1.0000
  Fe  Fe315     1.0  0.52813  0.72522  0.04043  1.0000
  S   S628      1.0  0.50751  0.73103  0.03736  1.0000
  S   S629      1.0  0.53757  0.70342  0.04509  1.0000
  Fe  Fe316     1.0  0.51469  0.74677  0.02029  1.0000
  S   S630      1.0  0.50832  0.75107  0.00095  1.0000
  Fe  Fe317     1.0  0.50426  0.74581  0.04978  1.0000
  S   S631      1.0  0.48606  0.74885  0.06598  1.0000
  S   S632      1.0  0.53580  0.73976  0.02231  1.0000
  S   S633      1.0  0.52437  0.73872  0.05442  1.0000
  S   S634      1.0  0.46965  0.61373  0.00714  1.0000
  H   H2667     1.0  0.56975  0.86601  0.03767  1.0000
  Fe  Fe318     1.0  0.44594  0.72399  0.03462  1.0000
  S   S635      1.0  0.44902  0.71862  0.05555  1.0000
  C   C2237     1.0  0.47475  0.74160  0.06322  1.0000
  C   C2238     1.0  0.47487  0.74149  0.05019  1.0000
  C   C2239     1.0  0.46670  0.73478  0.04781  1.0000
  C   C2240     1.0  0.45836  0.72811  0.05844  1.0000
  C   C2241     1.0  0.45808  0.72835  0.07154  1.0000
  C   C2242     1.0  0.46619  0.73521  0.07393  1.0000
  H   H2668     1.0  0.48135  0.74656  0.04190  1.0000
  H   H2669     1.0  0.46726  0.73445  0.03776  1.0000
  H   H2670     1.0  0.45168  0.72314  0.07983  1.0000
  H   H2671     1.0  0.46613  0.73523  0.08405  1.0000
  H   H2672     1.0  0.49418  0.65952  0.98754  1.0000
  S   S636      1.0  0.40894  0.63148  0.01863  1.0000
  H   H2673     1.0  0.44778  0.97757  0.10565  1.0000
  C   C2243     1.0  0.49416  0.67837  0.00053  1.0000
  H   H2674     1.0  0.53565  0.75174  0.99590  1.0000
  C   C2244     1.0  0.49588  0.61805  0.03189  1.0000
  C   C2245     1.0  0.50134  0.61527  0.01922  1.0000
  C   C2246     1.0  0.49325  0.61346  0.01196  1.0000
  C   C2247     1.0  0.47963  0.61466  0.01718  1.0000
  C   C2248     1.0  0.47423  0.61707  0.03001  1.0000
  C   C2249     1.0  0.48235  0.61878  0.03734  1.0000
  H   H2675     1.0  0.51182  0.61436  0.01509  1.0000
  H   H2676     1.0  0.49753  0.61117  0.00225  1.0000
  H   H2677     1.0  0.46377  0.61777  0.03423  1.0000
  H   H2678     1.0  0.47811  0.62079  0.04720  1.0000
  C   C2250     1.0  0.53317  0.67932  0.01815  1.0000
  C   C2251     1.0  0.53806  0.67293  0.02966  1.0000
  C   C2252     1.0  0.53934  0.68042  0.03789  1.0000
  C   C2253     1.0  0.53578  0.69433  0.03463  1.0000
  C   C2254     1.0  0.53076  0.70075  0.02317  1.0000
  C   C2255     1.0  0.52945  0.69325  0.01496  1.0000
  H   H2679     1.0  0.54113  0.66223  0.03212  1.0000
  H   H2680     1.0  0.54326  0.67542  0.04671  1.0000
  H   H2681     1.0  0.52807  0.71149  0.02054  1.0000
  H   H2682     1.0  0.52567  0.69827  0.00607  1.0000
  C   C2256     1.0  0.54862  0.89578  0.07959  1.0000
  H   H2683     1.0  0.39554  0.93182  0.38291  1.0000
  C   C2257     1.0  0.38899  0.98215  0.35731  1.0000
  H   H2684     1.0  0.39296  0.61020  0.01991  1.0000
  H   H2685     1.0  0.52854  0.61662  0.99342  1.0000
  N   N155      1.0  0.51098  0.90457  0.16815  1.0000
  H   H2686     1.0  0.41309  0.74116  0.99062  1.0000
  C   C2258     1.0  0.47346  0.80802  0.98335  1.0000
  H   H2687     1.0  0.55859  0.85801  0.05136  1.0000
  C   C2259     1.0  0.57140  0.92034  0.36985  1.0000
  S   S637      1.0  0.43584  0.61229  0.00454  1.0000
  C   C2260     1.0  0.40656  0.80589  0.98328  1.0000
  C   C2261     1.0  0.39987  0.58954  0.02838  1.0000
  S   S638      1.0  0.42609  0.85954  0.98665  1.0000
  H   H2688     1.0  0.39820  0.49817  0.98684  1.0000
  H   H2689     1.0  0.41815  0.56684  0.98561  1.0000
  H   H2690     1.0  0.38746  0.84522  0.00716  1.0000
  H   H2691     1.0  0.49765  0.64851  0.02252  1.0000
  H   H2692     1.0  0.40984  0.81021  0.02838  1.0000
  H   H2693     1.0  0.50891  0.65945  0.01537  1.0000
  H   H2694     1.0  0.49330  0.66489  0.02576  1.0000
  C   C2262     1.0  0.47820  0.66367  0.01049  1.0000
  C   C2263     1.0  0.49947  0.65676  0.99581  1.0000
  C   C2264     1.0  0.55573  0.96923  0.19130  1.0000
  H   H2695     1.0  0.50014  0.96078  0.27675  1.0000
  C   C2265     1.0  0.40852  0.79863  0.99584  1.0000
  N   N156      1.0  0.57911  0.57870  0.00585  1.0000
  H   H2696     1.0  0.50482  0.67869  0.99688  1.0000
  H   H2697     1.0  0.43470  0.69299  0.99123  1.0000
  H   H2698     1.0  0.58342  0.57167  0.98776  1.0000
  H   H2699     1.0  0.50014  0.97007  0.19286  1.0000
  H   H2700     1.0  0.40326  0.94763  0.14581  1.0000
  C   C2266     1.0  0.46304  0.97061  0.20570  1.0000
  C   C2267     1.0  0.44760  0.97869  0.25548  1.0000
  C   C2268     1.0  0.41409  0.97274  0.25367  1.0000
  H   H2701     1.0  0.47696  0.97270  0.33181  1.0000
  H   H2702     1.0  0.58340  0.82861  0.06250  1.0000
  C   C2269     1.0  0.39739  0.92792  0.36369  1.0000
  N   N157      1.0  0.57523  0.89096  0.32068  1.0000
  C   C2270     1.0  0.53223  0.61307  0.98429  1.0000
  C   C2271     1.0  0.44775  0.97871  0.33727  1.0000
  H   H2703     1.0  0.40742  0.92919  0.36007  1.0000
  H   H2704     1.0  0.40520  0.84327  0.00382  1.0000
  C   C2272     1.0  0.43693  0.79604  0.02725  1.0000
  H   H2705     1.0  0.56151  0.59301  0.05338  1.0000
  C   C2273     1.0  0.45149  0.66123  0.01959  1.0000
  H   H2706     1.0  0.46895  0.96120  0.24656  1.0000
  C   C2274     1.0  0.56660  0.69116  0.01695  1.0000
  C   C2275     1.0  0.48946  0.93267  0.34939  1.0000
  C   C2276     1.0  0.47569  0.93748  0.35150  1.0000
  C   C2277     1.0  0.46827  0.93427  0.34440  1.0000
  C   C2278     1.0  0.47459  0.92598  0.33538  1.0000
  C   C2279     1.0  0.48832  0.92123  0.33328  1.0000
  C   C2280     1.0  0.49576  0.92472  0.34008  1.0000
  H   H2707     1.0  0.47079  0.94368  0.35865  1.0000
  H   H2708     1.0  0.45769  0.93801  0.34607  1.0000
  H   H2709     1.0  0.49325  0.91468  0.32646  1.0000
  H   H2710     1.0  0.50634  0.92091  0.33844  1.0000
  H   H2711     1.0  0.50763  0.94440  0.27395  1.0000
  C   C2281     1.0  0.49557  0.96930  0.12831  1.0000
  C   C2282     1.0  0.39733  0.57673  0.03155  1.0000
  H   H2712     1.0  0.40729  0.79887  0.01587  1.0000
  H   H2713     1.0  0.47759  0.97248  0.16410  1.0000
  C   C2283     1.0  0.54142  0.94407  0.16289  1.0000
  C   C2284     1.0  0.52214  0.74465  0.98964  1.0000
  C   C2285     1.0  0.45129  0.96709  0.21343  1.0000
  H   H2714     1.0  0.48285  0.97842  0.26499  1.0000
  C   C2286     1.0  0.57546  0.83495  0.05728  1.0000
  C   C2287     1.0  0.42923  0.93439  0.24542  1.0000
  C   C2288     1.0  0.42205  0.93128  0.25862  1.0000
  C   C2289     1.0  0.42525  0.93459  0.26900  1.0000
  C   C2290     1.0  0.43546  0.94128  0.26607  1.0000
  C   C2291     1.0  0.44256  0.94440  0.25290  1.0000
  C   C2292     1.0  0.43952  0.94087  0.24267  1.0000
  H   H2715     1.0  0.41408  0.92620  0.26081  1.0000
  H   H2716     1.0  0.41974  0.93212  0.27917  1.0000
  H   H2717     1.0  0.45046  0.94956  0.25053  1.0000
  H   H2718     1.0  0.44510  0.94324  0.23262  1.0000
  C   C2293     1.0  0.50754  0.89922  0.22626  1.0000
  C   C2294     1.0  0.50470  0.88686  0.22777  1.0000
  C   C2295     1.0  0.49653  0.88555  0.22030  1.0000
  C   C2296     1.0  0.49100  0.89666  0.21149  1.0000
  C   C2297     1.0  0.49418  0.90889  0.20964  1.0000
  C   C2298     1.0  0.50256  0.91012  0.21690  1.0000
  H   H2719     1.0  0.50861  0.87835  0.23493  1.0000
  H   H2720     1.0  0.49418  0.87605  0.22165  1.0000
  H   H2721     1.0  0.49015  0.91745  0.20262  1.0000
  H   H2722     1.0  0.50475  0.91963  0.21553  1.0000
  H   H2723     1.0  0.56619  0.54759  0.00512  1.0000
  C   C2299     1.0  0.39639  0.84045  0.01138  1.0000
  C   C2300     1.0  0.46421  0.70176  0.98475  1.0000
  C   C2301     1.0  0.55252  0.93009  0.28626  1.0000
  C   C2302     1.0  0.54925  0.92203  0.15804  1.0000
  H   H2724     1.0  0.41182  0.95887  0.27907  1.0000
  H   H2725     1.0  0.53711  0.58348  0.99818  1.0000
  C   C2303     1.0  0.40345  0.59946  0.06886  1.0000
  C   C2304     1.0  0.47603  0.88791  0.08340  1.0000
  S   S639      1.0  0.42311  0.84592  0.02586  1.0000
  C   C2305     1.0  0.44357  0.91631  0.13537  1.0000
  C   C2306     1.0  0.43470  0.92860  0.13479  1.0000
  C   C2307     1.0  0.43336  0.93637  0.14385  1.0000
  C   C2308     1.0  0.44076  0.93185  0.15370  1.0000
  C   C2309     1.0  0.44945  0.91937  0.15459  1.0000
  C   C2310     1.0  0.45082  0.91157  0.14543  1.0000
  H   H2726     1.0  0.42869  0.93192  0.12749  1.0000
  H   H2727     1.0  0.42660  0.94595  0.14329  1.0000
  H   H2728     1.0  0.45519  0.91579  0.16220  1.0000
  H   H2729     1.0  0.45760  0.90198  0.14606  1.0000
  H   H2730     1.0  0.39571  0.83683  0.98902  1.0000
  H   H2731     1.0  0.55625  0.88809  0.32073  1.0000
  C   C2311     1.0  0.41222  0.68722  0.01524  1.0000
  C   C2312     1.0  0.49020  0.92925  0.11695  1.0000
  C   C2313     1.0  0.47900  0.92596  0.11590  1.0000
  C   C2314     1.0  0.47282  0.93305  0.10535  1.0000
  C   C2315     1.0  0.47769  0.94358  0.09596  1.0000
  C   C2316     1.0  0.48823  0.94755  0.09768  1.0000
  C   C2317     1.0  0.49439  0.94044  0.10826  1.0000
  H   H2732     1.0  0.47534  0.91771  0.12300  1.0000
  H   H2733     1.0  0.46441  0.93014  0.10450  1.0000
  H   H2734     1.0  0.49182  0.95592  0.09069  1.0000
  H   H2735     1.0  0.50236  0.94371  0.10969  1.0000
  C   C2318     1.0  0.53945  0.87532  0.07561  1.0000
  C   C2319     1.0  0.54599  0.88356  0.06468  1.0000
  H   H2736     1.0  0.42929  0.97060  0.08726  1.0000
  C   C2320     1.0  0.54170  0.88781  0.09043  1.0000
  C   C2321     1.0  0.53736  0.87747  0.08847  1.0000
  H   H2737     1.0  0.54014  0.88929  0.10039  1.0000
  H   H2738     1.0  0.53259  0.87095  0.09701  1.0000
  C   C2322     1.0  0.52079  0.80542  0.05011  1.0000
  C   C2323     1.0  0.51456  0.79484  0.05281  1.0000
  C   C2324     1.0  0.52123  0.78334  0.04792  1.0000
  C   C2325     1.0  0.53426  0.78227  0.04053  1.0000
  C   C2326     1.0  0.54063  0.79266  0.03821  1.0000
  C   C2327     1.0  0.53388  0.80430  0.04286  1.0000
  H   H2739     1.0  0.50458  0.79552  0.05875  1.0000
  H   H2740     1.0  0.51639  0.77518  0.05010  1.0000
  H   H2741     1.0  0.55082  0.79169  0.03277  1.0000
  H   H2742     1.0  0.53882  0.81235  0.04088  1.0000
  C   C2328     1.0  0.43417  0.87932  0.05043  1.0000
  C   C2329     1.0  0.44435  0.88430  0.04068  1.0000
  C   C2330     1.0  0.44976  0.89380  0.04286  1.0000
  C   C2331     1.0  0.44514  0.89835  0.05481  1.0000
  C   C2332     1.0  0.43484  0.89351  0.06448  1.0000
  C   C2333     1.0  0.42937  0.88406  0.06227  1.0000
  H   H2743     1.0  0.44810  0.88078  0.03151  1.0000
  H   H2744     1.0  0.45774  0.89750  0.03533  1.0000
  H   H2745     1.0  0.43119  0.89691  0.07372  1.0000
  H   H2746     1.0  0.42147  0.88027  0.06984  1.0000
  C   C2334     1.0  0.48816  0.85362  0.00813  1.0000
  C   C2335     1.0  0.47949  0.86351  0.01449  1.0000
  C   C2336     1.0  0.48441  0.87300  0.01722  1.0000
  C   C2337     1.0  0.49802  0.87216  0.01420  1.0000
  C   C2338     1.0  0.50655  0.86290  0.00697  1.0000
  C   C2339     1.0  0.50160  0.85367  0.00386  1.0000
  H   H2747     1.0  0.46907  0.86362  0.01773  1.0000
  H   H2748     1.0  0.47778  0.88057  0.02225  1.0000
  H   H2749     1.0  0.51703  0.86266  0.00405  1.0000
  H   H2750     1.0  0.50823  0.84634  0.99854  1.0000
  H   H2751     1.0  0.57197  0.96233  0.32522  1.0000
  Fe  Fe319     1.0  0.42835  0.72111  0.01852  1.0000
  C   C2340     1.0  0.56394  0.84226  0.99838  1.0000
  C   C2341     1.0  0.40174  0.89563  0.37936  1.0000
  H   H2752     1.0  0.41129  0.66729  0.01552  1.0000
  H   H2753     1.0  0.54493  0.85588  0.99983  1.0000
  C   C2342     1.0  0.41862  0.61694  0.98244  1.0000
  H   H2754     1.0  0.56701  0.69294  0.02630  1.0000
  C   C2343     1.0  0.41730  0.74775  0.98174  1.0000
  S   S640      1.0  0.56864  0.91482  0.35691  1.0000
  H   H2755     1.0  0.49877  0.97659  0.20686  1.0000
  H   H2756     1.0  0.49459  0.90849  0.15856  1.0000
  C   C2344     1.0  0.57433  0.83541  0.98991  1.0000
  C   C2345     1.0  0.53488  0.82543  0.98710  1.0000
  C   C2346     1.0  0.41564  0.66820  0.03365  1.0000
  H   H2757     1.0  0.46650  0.89118  0.08063  1.0000
  H   H2758     1.0  0.46037  0.95152  0.12026  1.0000
  Fe  Fe320     1.0  0.42467  0.63340  0.99986  1.0000
  H   H2759     1.0  0.41848  0.82219  0.01651  1.0000
  S   S641      1.0  0.45890  0.73442  0.01666  1.0000
  C   C2347     1.0  0.57557  0.97607  0.33437  1.0000
  C   C2348     1.0  0.54683  0.81748  0.00477  1.0000
  S   S642      1.0  0.55851  0.93181  0.24661  1.0000
  H   H2760     1.0  0.49696  0.94825  0.13509  1.0000
  H   H2761     1.0  0.44236  0.97150  0.26324  1.0000
  C   C2349     1.0  0.49458  0.97270  0.36293  1.0000
  C   C2350     1.0  0.58518  0.91131  0.27935  1.0000
  H   H2762     1.0  0.57951  0.58964  0.98546  1.0000
  H   H2763     1.0  0.50101  0.97214  0.15562  1.0000
  C   C2351     1.0  0.46891  0.77729  0.03547  1.0000
  C   C2352     1.0  0.47469  0.65121  0.01347  1.0000
  H   H2764     1.0  0.42951  0.83083  0.99321  1.0000
  H   H2765     1.0  0.55515  0.93483  0.29252  1.0000
  N   N158      1.0  0.57762  0.97035  0.37078  1.0000
  H   H2766     1.0  0.54096  0.57301  0.03882  1.0000
  H   H2767     1.0  0.40402  0.56836  0.03625  1.0000
  S   S643      1.0  0.53100  0.96603  0.10236  1.0000
  C   C2353     1.0  0.56505  0.57776  0.01014  1.0000
  C   C2354     1.0  0.46851  0.77017  0.02654  1.0000
  C   C2355     1.0  0.48805  0.80162  0.03671  1.0000
  H   H2768     1.0  0.55622  0.66619  0.98837  1.0000
  C   C2356     1.0  0.53964  0.77838  0.00075  1.0000
  C   C2357     1.0  0.41349  0.89657  0.36976  1.0000
  H   H2769     1.0  0.46530  0.97108  0.10197  1.0000
  S   S644      1.0  0.53807  0.94945  0.18730  1.0000
  C   C2358     1.0  0.49830  0.65906  0.01796  1.0000
  C   C2359     1.0  0.39971  0.62007  0.05304  1.0000
  C   C2360     1.0  0.50443  0.94365  0.17560  1.0000
  C   C2361     1.0  0.54141  0.96747  0.12246  1.0000
  N   N159      1.0  0.47823  0.79305  0.04184  1.0000
  H   H2770     1.0  0.38832  0.97132  0.11156  1.0000
  C   C2362     1.0  0.55651  0.93375  0.27226  1.0000
  S   S645      1.0  0.43383  0.61659  0.03390  1.0000
  H   H2771     1.0  0.53140  0.97636  0.37202  1.0000
  C   C2363     1.0  0.53469  0.79108  0.00344  1.0000
  N   N160      1.0  0.50687  0.92160  0.06775  1.0000
  C   C2364     1.0  0.50577  0.93619  0.06346  1.0000
  C   C2365     1.0  0.49806  0.91861  0.08107  1.0000
  C   C2366     1.0  0.52065  0.91536  0.06925  1.0000
  C   C2367     1.0  0.50280  0.91680  0.05815  1.0000
  C   C2368     1.0  0.48991  0.92196  0.05561  1.0000
  C   C2369     1.0  0.51116  0.90672  0.05144  1.0000
  C   C2370     1.0  0.48566  0.91738  0.04688  1.0000
  C   C2371     1.0  0.50679  0.90223  0.04270  1.0000
  C   C2372     1.0  0.49407  0.90754  0.04044  1.0000
  H   H2772     1.0  0.50897  0.94007  0.07040  1.0000
  H   H2773     1.0  0.51194  0.93891  0.05327  1.0000
  H   H2774     1.0  0.49545  0.94179  0.06326  1.0000
  H   H2775     1.0  0.48765  0.92394  0.08108  1.0000
  H   H2776     1.0  0.50102  0.92164  0.08876  1.0000
  H   H2777     1.0  0.49811  0.90784  0.08429  1.0000
  H   H2778     1.0  0.52792  0.91736  0.05963  1.0000
  H   H2779     1.0  0.52347  0.91927  0.07644  1.0000
  H   H2780     1.0  0.52200  0.90443  0.07316  1.0000
  H   H2781     1.0  0.48292  0.92954  0.06044  1.0000
  H   H2782     1.0  0.52110  0.90211  0.05277  1.0000
  H   H2783     1.0  0.47573  0.92142  0.04515  1.0000
  H   H2784     1.0  0.51326  0.89457  0.03760  1.0000
  H   H2785     1.0  0.49070  0.90399  0.03370  1.0000
  S   S646      1.0  0.43547  0.80718  0.03724  1.0000
  H   H2786     1.0  0.47292  0.79772  0.98767  1.0000
  H   H2787     1.0  0.40906  0.59414  0.06070  1.0000
  C   C2373     1.0  0.54114  0.80169  0.99634  1.0000
  H   H2788     1.0  0.44772  0.97663  0.24584  1.0000
  C   C2374     1.0  0.53463  0.74605  0.98955  1.0000
  H   H2789     1.0  0.49083  0.80643  0.99020  1.0000
  C   C2375     1.0  0.48764  0.98153  0.12378  1.0000
  H   H2790     1.0  0.54905  0.80951  0.01356  1.0000
  N   N161      1.0  0.39302  0.61089  0.06433  1.0000
  S   S647      1.0  0.54039  0.97294  0.32541  1.0000
  H   H2791     1.0  0.56586  0.89625  0.33979  1.0000
  H   H2792     1.0  0.44583  0.97635  0.14146  1.0000
  C   C2376     1.0  0.56580  0.88226  0.32345  1.0000
  C   C2377     1.0  0.41301  0.67358  0.02090  1.0000
  C   C2378     1.0  0.43741  0.77843  0.01185  1.0000
  C   C2379     1.0  0.46506  0.80173  0.04547  1.0000
  H   H2793     1.0  0.51423  0.96629  0.19999  1.0000
  S   S648      1.0  0.41336  0.59186  0.03313  1.0000
  S   S649      1.0  0.55543  0.93504  0.32680  1.0000
  H   H2794     1.0  0.51288  0.61381  0.98186  1.0000
  H   H2795     1.0  0.39387  0.62049  0.07920  1.0000
  C   C2380     1.0  0.58306  0.54242  0.98962  1.0000
  H   H2796     1.0  0.48791  0.62821  0.98508  1.0000
  S   S650      1.0  0.43699  0.76797  0.00199  1.0000
  H   H2797     1.0  0.41339  0.89610  0.35984  1.0000
  H   H2798     1.0  0.56994  0.87411  0.31792  1.0000
  C   C2381     1.0  0.54589  0.91771  0.26995  1.0000
  C   C2382     1.0  0.56415  0.97667  0.20607  1.0000
  N   N162      1.0  0.49067  0.88296  0.11365  1.0000
  C   C2383     1.0  0.49986  0.89134  0.11277  1.0000
  C   C2384     1.0  0.47799  0.88783  0.12258  1.0000
  C   C2385     1.0  0.49608  0.86907  0.12006  1.0000
  H   H2799     1.0  0.45233  0.95385  0.13692  1.0000
  H   H2800     1.0  0.49605  0.90191  0.10821  1.0000
  H   H2801     1.0  0.50105  0.89126  0.12282  1.0000
  H   H2802     1.0  0.50995  0.88805  0.10688  1.0000
  H   H2803     1.0  0.47342  0.89826  0.11828  1.0000
  H   H2804     1.0  0.47933  0.88785  0.13252  1.0000
  H   H2805     1.0  0.47069  0.88160  0.12448  1.0000
  H   H2806     1.0  0.49684  0.86824  0.13044  1.0000
  H   H2807     1.0  0.48964  0.86239  0.12055  1.0000
  H   H2808     1.0  0.51031  0.87605  0.09238  1.0000
  H   H2809     1.0  0.49355  0.79288  0.01567  1.0000
  C   C2386     1.0  0.58445  0.58009  0.99124  1.0000
  C   C2387     1.0  0.57618  0.96840  0.35814  1.0000
  C   C2388     1.0  0.40575  0.80507  0.00631  1.0000
  N   N163      1.0  0.40424  0.97661  0.26552  1.0000
  H   H2810     1.0  0.55336  0.90604  0.17477  1.0000
  H   H2811     1.0  0.54360  0.82708  0.00799  1.0000
  H   H2812     1.0  0.39321  0.89464  0.37658  1.0000
  C   C2389     1.0  0.40879  0.82085  0.02321  1.0000
  H   H2813     1.0  0.47021  0.73864  0.98690  1.0000
  H   H2814     1.0  0.50236  0.95338  0.17775  1.0000
  H   H2815     1.0  0.44675  0.70313  0.00060  1.0000
  H   H2816     1.0  0.46796  0.95837  0.32372  1.0000
  H   H2817     1.0  0.56364  0.95594  0.21594  1.0000
  Fe  Fe321     1.0  0.44747  0.62003  0.01375  1.0000
  C   C2390     1.0  0.54993  0.91664  0.17146  1.0000
  H   H2818     1.0  0.49034  0.90493  0.17643  1.0000
  C   C2391     1.0  0.41805  0.75999  0.98334  1.0000
  H   H2819     1.0  0.56047  0.70825  0.98684  1.0000
  C   C2392     1.0  0.43974  0.79117  0.00565  1.0000
  C   C2393     1.0  0.57905  0.59922  0.04069  1.0000
  H   H2820     1.0  0.52204  0.89378  0.15283  1.0000
  S   S651      1.0  0.41308  0.71260  0.01506  1.0000
  H   H2821     1.0  0.41175  0.96346  0.11010  1.0000
  H   H2822     1.0  0.55500  0.93399  0.39672  1.0000
  S   S652      1.0  0.41625  0.65121  0.04119  1.0000
  C   C2394     1.0  0.47439  0.98173  0.28460  1.0000
  S   S653      1.0  0.43948  0.73204  0.99961  1.0000
  H   H2823     1.0  0.55631  0.81779  0.99729  1.0000
  C   C2395     1.0  0.41153  0.89822  0.39586  1.0000
  C   C2396     1.0  0.52394  0.81681  0.00942  1.0000
  C   C2397     1.0  0.57518  0.86518  0.07677  1.0000
  H   H2824     1.0  0.39062  0.50303  0.00255  1.0000
  H   H2825     1.0  0.50560  0.96869  0.12887  1.0000
  C   C2398     1.0  0.41768  0.68993  0.03461  1.0000
  C   C2399     1.0  0.57350  0.96388  0.33421  1.0000
  N   N164      1.0  0.56643  0.97477  0.19234  1.0000
  H   H2826     1.0  0.40886  0.94719  0.11749  1.0000
  C   C2400     1.0  0.44458  0.69424  0.98603  1.0000
  H   H2827     1.0  0.48209  0.78856  0.06159  1.0000
  C   C2401     1.0  0.50564  0.97431  0.19745  1.0000
  C   C2402     1.0  0.47789  0.95990  0.31916  1.0000
  Fe  Fe322     1.0  0.55032  0.92481  0.34843  1.0000
  H   H2828     1.0  0.50128  0.96320  0.36187  1.0000
  H   H2829     1.0  0.55088  0.96974  0.13671  1.0000
  H   H2830     1.0  0.58288  0.82912  0.99361  1.0000
  H   H2831     1.0  0.46356  0.95600  0.26439  1.0000
  H   H2832     1.0  0.43316  0.76463  0.03064  1.0000
  S   S654      1.0  0.42767  0.86667  0.04860  1.0000
  C   C2403     1.0  0.56169  0.55493  0.98564  1.0000
  H   H2833     1.0  0.39969  0.95710  0.27171  1.0000
  C   C2404     1.0  0.54330  0.58073  0.00537  1.0000
  C   C2405     1.0  0.58439  0.91861  0.37125  1.0000
  C   C2406     1.0  0.41457  0.69543  0.02207  1.0000
  H   H2834     1.0  0.51719  0.88365  0.17672  1.0000
  S   S655      1.0  0.53445  0.94188  0.35448  1.0000
  C   C2407     1.0  0.38897  0.50361  0.99255  1.0000
  C   C2408     1.0  0.45145  0.70004  0.99135  1.0000
  H   H2835     1.0  0.52083  0.82697  0.01148  1.0000
  H   H2836     1.0  0.40987  0.69139  0.00552  1.0000
  H   H2837     1.0  0.56357  0.85469  0.07233  1.0000
  H   H2838     1.0  0.41092  0.60272  0.07185  1.0000
  H   H2839     1.0  0.51524  0.93413  0.19103  1.0000
  H   H2840     1.0  0.52663  0.89391  0.17859  1.0000
  H   H2841     1.0  0.44337  0.95949  0.12392  1.0000
  N   N165      1.0  0.43703  0.90021  0.36291  1.0000
  C   C2409     1.0  0.43591  0.90175  0.34900  1.0000
  C   C2410     1.0  0.44760  0.88833  0.36593  1.0000
  C   C2411     1.0  0.42460  0.89865  0.37292  1.0000
  C   C2412     1.0  0.42337  0.89906  0.38638  1.0000
  H   H2842     1.0  0.53095  0.83555  0.98923  1.0000
  H   H2843     1.0  0.55578  0.95901  0.19752  1.0000
  H   H2844     1.0  0.57128  0.94438  0.34568  1.0000
  S   S656      1.0  0.53576  0.91498  0.34541  1.0000
  H   H2845     1.0  0.42768  0.91021  0.34634  1.0000
  H   H2846     1.0  0.44512  0.90370  0.34157  1.0000
  H   H2847     1.0  0.43416  0.89262  0.34746  1.0000
  C   C2413     1.0  0.56769  0.85615  0.04346  1.0000
  H   H2848     1.0  0.45714  0.88913  0.35856  1.0000
  S   S657      1.0  0.41611  0.97804  0.32471  1.0000
  H   H2849     1.0  0.43150  0.90020  0.38964  1.0000
  H   H2850     1.0  0.41467  0.76232  0.99314  1.0000
  H   H2851     1.0  0.39510  0.84513  0.01986  1.0000
  C   C2414     1.0  0.56267  0.69962  0.99463  1.0000
  C   C2415     1.0  0.55293  0.85039  0.99346  1.0000
  N   N166      1.0  0.48980  0.69332  0.05119  1.0000
  C   C2416     1.0  0.48623  0.70371  0.03948  1.0000
  C   C2417     1.0  0.48232  0.69803  0.06353  1.0000
  C   C2418     1.0  0.50407  0.69195  0.05033  1.0000
  C   C2419     1.0  0.48644  0.68077  0.05146  1.0000
  C   C2420     1.0  0.47338  0.68067  0.05123  1.0000
  C   C2421     1.0  0.49576  0.66835  0.05220  1.0000
  C   C2422     1.0  0.46993  0.66896  0.05149  1.0000
  C   C2423     1.0  0.49214  0.65666  0.05267  1.0000
  C   C2424     1.0  0.47928  0.65697  0.05225  1.0000
  H   H2852     1.0  0.47540  0.70663  0.04010  1.0000
  H   H2853     1.0  0.48925  0.71306  0.03867  1.0000
  H   H2854     1.0  0.49113  0.70029  0.03002  1.0000
  H   H2855     1.0  0.47145  0.69989  0.06463  1.0000
  H   H2856     1.0  0.51024  0.68836  0.04127  1.0000
  H   H2857     1.0  0.50643  0.70160  0.04971  1.0000
  H   H2858     1.0  0.50739  0.68505  0.05927  1.0000
  H   H2859     1.0  0.46566  0.68966  0.05100  1.0000
  H   H2860     1.0  0.50592  0.66737  0.05244  1.0000
  H   H2861     1.0  0.45991  0.66918  0.05121  1.0000
  H   H2862     1.0  0.49939  0.64728  0.05320  1.0000
  H   H2863     1.0  0.47660  0.64789  0.05247  1.0000
  C   C2425     1.0  0.40249  0.96420  0.27571  1.0000
  Fe  Fe323     1.0  0.54303  0.93230  0.23598  1.0000
  H   H2864     1.0  0.49029  0.68463  0.00808  1.0000
  C   C2426     1.0  0.43964  0.79989  0.01330  1.0000
  H   H2865     1.0  0.47782  0.96646  0.36169  1.0000
  C   C2427     1.0  0.56839  0.67821  0.01557  1.0000
  H   H2866     1.0  0.57406  0.94790  0.36613  1.0000
  H   H2867     1.0  0.48803  0.80697  0.04426  1.0000
  S   S658      1.0  0.54061  0.91456  0.30945  1.0000
  C   C2428     1.0  0.54546  0.57488  0.02823  1.0000
  H   H2868     1.0  0.56661  0.96935  0.39119  1.0000
  H   H2869     1.0  0.44490  0.87914  0.36571  1.0000
  H   H2870     1.0  0.39768  0.55762  0.00018  1.0000
  C   C2429     1.0  0.56995  0.54823  0.99449  1.0000
  H   H2871     1.0  0.39456  0.96624  0.28459  1.0000
  H   H2872     1.0  0.48246  0.74757  0.98619  1.0000
  C   C2430     1.0  0.43784  0.97427  0.33476  1.0000
  H   H2873     1.0  0.49111  0.77642  0.05185  1.0000
  C   C2431     1.0  0.46157  0.97966  0.26988  1.0000
  C   C2432     1.0  0.49565  0.96993  0.31791  1.0000
  H   H2874     1.0  0.41171  0.96486  0.25040  1.0000
  S   S659      1.0  0.54358  0.92104  0.22090  1.0000
  C   C2433     1.0  0.43499  0.77444  0.02576  1.0000
  Fe  Fe324     1.0  0.53869  0.95159  0.33273  1.0000
  N   N167      1.0  0.47327  0.90769  0.25648  1.0000
  C   C2434     1.0  0.48134  0.89406  0.25609  1.0000
  C   C2435     1.0  0.45931  0.90720  0.25796  1.0000
  C   C2436     1.0  0.47724  0.91674  0.24350  1.0000
  C   C2437     1.0  0.47548  0.91236  0.26729  1.0000
  C   C2438     1.0  0.48847  0.91255  0.26768  1.0000
  C   C2439     1.0  0.46502  0.91696  0.27754  1.0000
  C   C2440     1.0  0.49087  0.91661  0.27794  1.0000
  C   C2441     1.0  0.46754  0.92112  0.28768  1.0000
  H   H2875     1.0  0.44132  0.66027  0.02294  1.0000
  H   H2876     1.0  0.47897  0.88705  0.26584  1.0000
  H   H2877     1.0  0.47968  0.89014  0.24823  1.0000
  H   H2878     1.0  0.49211  0.89362  0.25374  1.0000
  H   H2879     1.0  0.45568  0.90041  0.26746  1.0000
  H   H2880     1.0  0.45805  0.90362  0.24965  1.0000
  H   H2881     1.0  0.45265  0.91719  0.25763  1.0000
  H   H2882     1.0  0.48774  0.91737  0.24141  1.0000
  H   H2883     1.0  0.47619  0.91326  0.23506  1.0000
  H   H2884     1.0  0.47109  0.92700  0.24319  1.0000
  H   H2885     1.0  0.49692  0.90947  0.26006  1.0000
  H   H2886     1.0  0.45478  0.91750  0.27797  1.0000
  C   C2442     1.0  0.39908  0.82616  0.99151  1.0000
  H   H2887     1.0  0.45944  0.92463  0.29538  1.0000
  H   H2888     1.0  0.44951  0.91457  0.35490  1.0000
  C   C2443     1.0  0.51644  0.89358  0.17850  1.0000
  H   H2889     1.0  0.49872  0.89189  0.16769  1.0000
  H   H2890     1.0  0.51002  0.89392  0.18859  1.0000
  H   H2891     1.0  0.56822  0.66563  0.00363  1.0000
  H   H2892     1.0  0.53685  0.90595  0.28831  1.0000
  N   N168      1.0  0.47208  0.85402  0.06048  1.0000
  C   C2444     1.0  0.47309  0.86770  0.05299  1.0000
  C   C2445     1.0  0.48130  0.84471  0.05223  1.0000
  C   C2446     1.0  0.45851  0.85240  0.06192  1.0000
  C   C2447     1.0  0.47486  0.85189  0.07380  1.0000
  C   C2448     1.0  0.46627  0.85936  0.08315  1.0000
  C   C2449     1.0  0.48615  0.84276  0.07777  1.0000
  C   C2450     1.0  0.46869  0.85758  0.09577  1.0000
  C   C2451     1.0  0.48857  0.84114  0.09036  1.0000
  C   C2452     1.0  0.47983  0.84849  0.09937  1.0000
  H   H2893     1.0  0.48336  0.86913  0.05079  1.0000
  H   H2894     1.0  0.47016  0.86996  0.04333  1.0000
  H   H2895     1.0  0.46651  0.87536  0.05846  1.0000
  H   H2896     1.0  0.48123  0.83416  0.05735  1.0000
  H   H2897     1.0  0.49163  0.84603  0.04977  1.0000
  H   H2898     1.0  0.47868  0.84642  0.04243  1.0000
  H   H2899     1.0  0.45073  0.86003  0.06656  1.0000
  H   H2900     1.0  0.45626  0.85349  0.05207  1.0000
  H   H2901     1.0  0.45710  0.84246  0.06809  1.0000
  H   H2902     1.0  0.45763  0.86675  0.08072  1.0000
  H   H2903     1.0  0.49332  0.83675  0.07132  1.0000
  H   H2904     1.0  0.46192  0.86336  0.10274  1.0000
  H   H2905     1.0  0.49729  0.83409  0.09311  1.0000
  H   H2906     1.0  0.48170  0.84711  0.10914  1.0000
  N   N169      1.0  0.45688  0.97156  0.12267  1.0000
  C   C2453     1.0  0.57297  0.95385  0.34576  1.0000
  C   C2454     1.0  0.57805  0.57626  0.05143  1.0000
  H   H2907     1.0  0.40434  0.61525  0.04442  1.0000
  C   C2455     1.0  0.46987  0.97064  0.12537  1.0000
  C   C2456     1.0  0.47798  0.95839  0.13057  1.0000
  C   C2457     1.0  0.40919  0.97556  0.08482  1.0000
  H   H2908     1.0  0.39923  0.59225  0.07764  1.0000
  H   H2909     1.0  0.46217  0.77598  0.04512  1.0000
  H   H2910     1.0  0.51965  0.91212  0.18699  1.0000
  H   H2911     1.0  0.55927  0.95900  0.23862  1.0000
  C   C2458     1.0  0.57361  0.89571  0.29636  1.0000
  C   C2459     1.0  0.57922  0.96528  0.18925  1.0000
  C   C2460     1.0  0.58039  0.59053  0.00950  1.0000
  H   H2912     1.0  0.56025  0.90772  0.32565  1.0000
  C   C2461     1.0  0.40957  0.95644  0.11979  1.0000
  C   C2462     1.0  0.46842  0.96336  0.25631  1.0000
  C   C2463     1.0  0.40122  0.81910  0.00441  1.0000
  H   H2913     1.0  0.41396  0.61720  0.99275  1.0000
  H   H2914     1.0  0.47497  0.94903  0.13330  1.0000
  H   H2915     1.0  0.52475  0.80990  0.01923  1.0000
  S   S660      1.0  0.43738  0.64135  0.00753  1.0000
  H   H2916     1.0  0.52610  0.79213  0.01152  1.0000
  H   H2917     1.0  0.56440  0.57316  0.03154  1.0000
  C   C2464     1.0  0.56374  0.70184  0.00650  1.0000
  C   C2465     1.0  0.39066  0.92932  0.37669  1.0000
  C   C2466     1.0  0.51156  0.93275  0.18318  1.0000
  H   H2918     1.0  0.40828  0.97495  0.29103  1.0000
  C   C2467     1.0  0.57290  0.85772  0.06917  1.0000
  H   H2919     1.0  0.39277  0.94293  0.13874  1.0000
  S   S661      1.0  0.42658  0.73648  0.02991  1.0000
  H   H2920     1.0  0.45651  0.97633  0.16128  1.0000
  H   H2921     1.0  0.39138  0.89644  0.39955  1.0000
  H   H2922     1.0  0.43263  0.97291  0.22652  1.0000
  H   H2923     1.0  0.42060  0.59584  0.98567  1.0000
  H   H2924     1.0  0.51652  0.91123  0.14682  1.0000
  H   H2925     1.0  0.57672  0.59009  0.02035  1.0000
  C   C2468     1.0  0.49814  0.90239  0.16767  1.0000
  C   C2469     1.0  0.48928  0.88340  0.10012  1.0000
  H   H2926     1.0  0.50617  0.86508  0.11455  1.0000
  C   C2470     1.0  0.56326  0.92982  0.38955  1.0000
  C   C2471     1.0  0.48289  0.96803  0.32367  1.0000
  H   H2927     1.0  0.54771  0.88198  0.05473  1.0000
  C   C2472     1.0  0.58220  0.85469  0.05750  1.0000
  C   C2473     1.0  0.57180  0.58979  0.04876  1.0000
  C   C2474     1.0  0.55077  0.89361  0.06671  1.0000
  Fe  Fe325     1.0  0.54612  0.91675  0.10046  1.0000
  H   H2928     1.0  0.48479  0.69060  0.07258  1.0000
  Fe  Fe326     1.0  0.53562  0.94371  0.10847  1.0000
  H   H2929     1.0  0.48445  0.70758  0.06363  1.0000
  H   H2930     1.0  0.55662  0.96839  0.18091  1.0000
  S   S662      1.0  0.55496  0.90825  0.08187  1.0000
  H   H2931     1.0  0.56332  0.87746  0.33424  1.0000
  C   C2475     1.0  0.53248  0.97374  0.11415  1.0000
  H   H2932     1.0  0.55616  0.89973  0.05828  1.0000
  H   H2933     1.0  0.44137  0.80967  0.00838  1.0000
  H   H2934     1.0  0.44472  0.91085  0.37252  1.0000
  H   H2935     1.0  0.41944  0.69620  0.03998  1.0000
  H   H2936     1.0  0.57447  0.59983  0.00436  1.0000
  H   H2937     1.0  0.47398  0.77733  0.05921  1.0000
  C   C2476     1.0  0.56606  0.96749  0.38166  1.0000
  C   C2477     1.0  0.50237  0.92935  0.16274  1.0000
  C   C2478     1.0  0.53517  0.97492  0.35155  1.0000
  S   S663      1.0  0.49865  0.93627  0.35868  1.0000
  H   H2938     1.0  0.44660  0.68212  0.01873  1.0000
  H   H2939     1.0  0.52995  0.90537  0.15510  1.0000
  C   C2479     1.0  0.47688  0.88738  0.09637  1.0000
  C   C2480     1.0  0.49961  0.88028  0.07729  1.0000
  H   H2940     1.0  0.50843  0.87748  0.06987  1.0000
  H   H2941     1.0  0.39364  0.97557  0.35050  1.0000
  Fe  Fe327     1.0  0.52265  0.92034  0.23191  1.0000
  H   H2942     1.0  0.46765  0.89031  0.10319  1.0000
  H   H2943     1.0  0.50077  0.64585  0.99983  1.0000
  H   H2944     1.0  0.51318  0.93006  0.30858  1.0000
  S   S664      1.0  0.51315  0.93944  0.21965  1.0000
  S   S665      1.0  0.50244  0.96666  0.24194  1.0000
  H   H2945     1.0  0.50968  0.65842  0.99145  1.0000
  H   H2946     1.0  0.52710  0.57834  0.02234  1.0000
  H   H2947     1.0  0.46937  0.68463  0.01120  1.0000
  S   S666      1.0  0.52293  0.92981  0.24804  1.0000
  H   H2948     1.0  0.52065  0.96038  0.28347  1.0000
  C   C2481     1.0  0.51192  0.97321  0.24830  1.0000
  N   N170      1.0  0.49226  0.66454  0.00620  1.0000
  Fe  Fe328     1.0  0.43961  0.74608  0.01151  1.0000
  Fe  Fe329     1.0  0.42278  0.63749  0.02696  1.0000
  H   H2949     1.0  0.56532  0.85150  0.03659  1.0000
  S   S667      1.0  0.53579  0.95203  0.22322  1.0000
  C   C2482     1.0  0.39690  0.55502  0.99109  1.0000
  C   C2483     1.0  0.47710  0.77115  0.01407  1.0000
  H   H2950     1.0  0.51532  0.97917  0.21423  1.0000
  H   H2951     1.0  0.54350  0.91273  0.26373  1.0000
  H   H2952     1.0  0.48585  0.80943  0.02775  1.0000
  H   H2953     1.0  0.38761  0.51434  0.98755  1.0000
  H   H2954     1.0  0.52625  0.95477  0.25194  1.0000
  H   H2955     1.0  0.50093  0.91639  0.27810  1.0000
  H   H2956     1.0  0.56612  0.83653  0.06496  1.0000
  H   H2957     1.0  0.45418  0.97204  0.34362  1.0000
  C   C2484     1.0  0.57854  0.89780  0.30645  1.0000
  C   C2485     1.0  0.45455  0.67354  0.01720  1.0000
  H   H2958     1.0  0.51580  0.81531  0.00593  1.0000
  H   H2959     1.0  0.40105  0.96643  0.15211  1.0000
  Fe  Fe330     1.0  0.51579  0.94896  0.23451  1.0000
  Fe  Fe331     1.0  0.53406  0.94064  0.20942  1.0000
  C   C2486     1.0  0.57622  0.92819  0.39091  1.0000
  C   C2487     1.0  0.39918  0.97427  0.13123  1.0000
  Fe  Fe332     1.0  0.53994  0.92639  0.32413  1.0000
  C   C2488     1.0  0.54625  0.92492  0.18060  1.0000
  H   H2960     1.0  0.48208  0.64216  0.01270  1.0000
  H   H2961     1.0  0.56217  0.94138  0.26776  1.0000
  C   C2489     1.0  0.55317  0.92758  0.26409  1.0000
  C   C2490     1.0  0.39141  0.92403  0.35580  1.0000
  Fe  Fe333     1.0  0.52040  0.93344  0.34896  1.0000
  C   C2491     1.0  0.52328  0.96510  0.25251  1.0000
  C   C2492     1.0  0.48580  0.95331  0.30913  1.0000
  C   C2493     1.0  0.54215  0.93868  0.17629  1.0000
  C   C2494     1.0  0.54055  0.98011  0.33822  1.0000
  C   C2495     1.0  0.56086  0.92612  0.37897  1.0000
  Fe  Fe334     1.0  0.54561  0.91938  0.12835  1.0000
  N   N171      1.0  0.57907  0.84762  0.04912  1.0000
  C   C2496     1.0  0.44185  0.97565  0.22090  1.0000
  S   S668      1.0  0.47256  0.70941  0.99136  1.0000
  H   H2962     1.0  0.47873  0.96138  0.25741  1.0000
  C   C2497     1.0  0.40069  0.89665  0.39232  1.0000
  C   C2498     1.0  0.53090  0.97033  0.25755  1.0000
  H   H2963     1.0  0.44950  0.88694  0.37598  1.0000
  H   H2964     1.0  0.53971  0.96401  0.26074  1.0000
  H   H2965     1.0  0.54445  0.94003  0.14349  1.0000
  H   H2966     1.0  0.52693  0.94407  0.28034  1.0000
  H   H2967     1.0  0.52656  0.94666  0.29621  1.0000
  C   C2499     1.0  0.46153  0.65010  0.01778  1.0000
  H   H2968     1.0  0.39289  0.62953  0.04957  1.0000
  H   H2969     1.0  0.43683  0.96410  0.33893  1.0000
  H   H2970     1.0  0.49938  0.92945  0.30285  1.0000
  H   H2971     1.0  0.51564  0.92634  0.29261  1.0000
  S   S669      1.0  0.55429  0.91149  0.14666  1.0000
  C   C2500     1.0  0.49069  0.95780  0.13183  1.0000
  S   S670      1.0  0.44639  0.70771  0.02512  1.0000
  Fe  Fe335     1.0  0.45738  0.71935  0.00670  1.0000
  C   C2501     1.0  0.56422  0.68658  0.99293  1.0000
  H   H2972     1.0  0.41236  0.78796  0.99749  1.0000
  H   H2973     1.0  0.54700  0.95743  0.12218  1.0000
  C   C2502     1.0  0.52095  0.94969  0.28815  1.0000
  H   H2974     1.0  0.46186  0.80836  0.03636  1.0000
  C   C2503     1.0  0.48737  0.88450  0.07385  1.0000
  H   H2975     1.0  0.42411  0.96881  0.25582  1.0000
  C   C2504     1.0  0.54543  0.92003  0.29206  1.0000
  H   H2976     1.0  0.49878  0.92852  0.15461  1.0000
  H   H2977     1.0  0.48664  0.88517  0.06378  1.0000
  H   H2978     1.0  0.45730  0.79596  0.05085  1.0000
  C   C2505     1.0  0.55894  0.57488  0.02394  1.0000
  C   C2506     1.0  0.53764  0.57789  0.01897  1.0000
  S   S671      1.0  0.55526  0.92922  0.10774  1.0000
  H   H2979     1.0  0.49436  0.95044  0.15945  1.0000
  H   H2980     1.0  0.53827  0.95470  0.15948  1.0000
  C   C2507     1.0  0.50893  0.93261  0.29956  1.0000
  N   N172      1.0  0.39811  0.82574  0.01568  1.0000
  S   S672      1.0  0.52379  0.94417  0.32757  1.0000
  C   C2508     1.0  0.54363  0.97447  0.13063  1.0000
  C   C2509     1.0  0.56285  0.96580  0.21719  1.0000
  C   C2510     1.0  0.51402  0.92007  0.18073  1.0000
  H   H2981     1.0  0.47706  0.76523  0.00740  1.0000
  C   C2511     1.0  0.48147  0.78348  0.05411  1.0000
  S   S673      1.0  0.57848  0.93325  0.40439  1.0000
  H   H2982     1.0  0.53007  0.96705  0.35402  1.0000
  C   C2512     1.0  0.52026  0.90367  0.15516  1.0000
  N   N173      1.0  0.50746  0.94700  0.29330  1.0000
  H   H2983     1.0  0.49153  0.94750  0.28445  1.0000
  C   C2513     1.0  0.47790  0.78577  0.03209  1.0000
  H   H2984     1.0  0.49828  0.79562  0.03423  1.0000
  H   H2985     1.0  0.54584  0.97553  0.19448  1.0000
  H   H2986     1.0  0.43256  0.78019  0.04421  1.0000
  H   H2987     1.0  0.48160  0.94670  0.30638  1.0000
  H   H2988     1.0  0.49292  0.77985  0.00081  1.0000
  C   C2514     1.0  0.50914  0.91793  0.17065  1.0000
  C   C2515     1.0  0.45311  0.95853  0.12612  1.0000
  C   C2516     1.0  0.56716  0.67588  0.00380  1.0000
  H   H2989     1.0  0.48736  0.73088  0.98407  1.0000
  C   C2517     1.0  0.57443  0.95601  0.35750  1.0000
  C   C2518     1.0  0.48345  0.81294  0.98485  1.0000
  H   H2990     1.0  0.57026  0.66995  0.02388  1.0000
  C   C2519     1.0  0.54484  0.93576  0.15383  1.0000
  C   C2520     1.0  0.50137  0.95004  0.28167  1.0000
  C   C2521     1.0  0.48598  0.77945  0.01037  1.0000
  H   H2991     1.0  0.55665  0.97371  0.37896  1.0000
  H   H2992     1.0  0.54685  0.92068  0.19090  1.0000
  C   C2522     1.0  0.48041  0.92078  0.28800  1.0000
  C   C2523     1.0  0.56044  0.96739  0.23025  1.0000
  C   C2524     1.0  0.48634  0.78679  0.01913  1.0000
  C   C2525     1.0  0.50356  0.96362  0.30769  1.0000
  H   H2993     1.0  0.41829  0.95427  0.12417  1.0000
  H   H2994     1.0  0.53486  0.77031  0.00670  1.0000
  Fe  Fe336     1.0  0.42110  0.61077  0.02398  1.0000
  C   C2526     1.0  0.54220  0.91384  0.28387  1.0000
  H   H2995     1.0  0.42012  0.67229  0.05029  1.0000
  C   C2527     1.0  0.49897  0.95481  0.30322  1.0000
  C   C2528     1.0  0.39467  0.95168  0.14096  1.0000
  H   H2996     1.0  0.44062  0.98071  0.27967  1.0000
  H   H2997     1.0  0.48379  0.98185  0.28630  1.0000
  C   C2529     1.0  0.56909  0.90093  0.32905  1.0000
  H   H2998     1.0  0.40219  0.54447  0.99138  1.0000
  H   H2999     1.0  0.56535  0.95693  0.38399  1.0000
  N   N174      1.0  0.46119  0.97716  0.25709  1.0000
  H   H3000     1.0  0.40765  0.62297  0.05565  1.0000
  H   H3001     1.0  0.57374  0.82910  0.05105  1.0000
  C   C2530     1.0  0.57673  0.97842  0.34616  1.0000
  C   C2531     1.0  0.57698  0.90235  0.28303  1.0000
  H   H3002     1.0  0.50947  0.98109  0.36454  1.0000
  H   H3003     1.0  0.56682  0.88931  0.29851  1.0000
  H   H3004     1.0  0.56776  0.86764  0.08546  1.0000
  H   H3005     1.0  0.48926  0.68320  0.99198  1.0000
  H   H3006     1.0  0.54166  0.68939  0.98605  1.0000
  H   H3007     1.0  0.40792  0.72489  0.98489  1.0000
  N   N175      1.0  0.39737  0.96212  0.12866  1.0000
  H   H3008     1.0  0.42473  0.71972  0.98703  1.0000
  C   C2532     1.0  0.55954  0.97973  0.23262  1.0000
  H   H3009     1.0  0.56042  0.58331  0.99031  1.0000
  H   H3010     1.0  0.57253  0.56908  0.05812  1.0000
  H   H3011     1.0  0.57283  0.90090  0.27555  1.0000
  H   H3012     1.0  0.41065  0.89898  0.40598  1.0000
  C   C2533     1.0  0.48134  0.97450  0.36288  1.0000
  C   C2534     1.0  0.55108  0.77582  0.99100  1.0000
  C   C2535     1.0  0.53563  0.98046  0.36175  1.0000
  S   S674      1.0  0.55705  0.61325  0.98612  1.0000
  C   C2536     1.0  0.47498  0.98222  0.12234  1.0000
  C   C2537     1.0  0.55277  0.79874  0.98644  1.0000
  C   C2538     1.0  0.39115  0.60031  0.02234  1.0000
  C   C2539     1.0  0.44636  0.98033  0.13057  1.0000
  H   H3013     1.0  0.46543  0.64237  0.98768  1.0000
  H   H3014     1.0  0.45670  0.97602  0.17822  1.0000
  H   H3015     1.0  0.46250  0.76160  0.98361  1.0000
  H   H3016     1.0  0.57385  0.66421  0.98177  1.0000
  H   H3017     1.0  0.55771  0.98090  0.24277  1.0000
  H   H3018     1.0  0.41473  0.98120  0.24487  1.0000
  C   C2540     1.0  0.42060  0.97845  0.08618  1.0000
  H   H3019     1.0  0.52822  0.97639  0.17725  1.0000
  H   H3020     1.0  0.46031  0.60165  0.98513  1.0000
  H   H3021     1.0  0.51384  0.97640  0.17216  1.0000
  H   H3022     1.0  0.46537  0.85379  0.98697  1.0000
  H   H3023     1.0  0.58143  0.96379  0.17889  1.0000
  H   H3024     1.0  0.57930  0.95528  0.19600  1.0000
  C   C2541     1.0  0.51833  0.98246  0.17579  1.0000
  H   H3025     1.0  0.43644  0.98122  0.12876  1.0000
  C   C2542     1.0  0.58682  0.92269  0.38161  1.0000
  C   C2543     1.0  0.45285  0.98208  0.16926  1.0000
  C   C2544     1.0  0.42883  0.98321  0.32746  1.0000
  C   C2545     1.0  0.46302  0.98329  0.29468  1.0000
  H   H3026     1.0  0.58554  0.56577  0.02359  1.0000
  C   C2546     1.0  0.49919  0.98301  0.36445  1.0000
  C   C2547     1.0  0.46574  0.98248  0.20603  1.0000
  C   C2548     1.0  0.45098  0.98303  0.29257  1.0000
  C   C2549     1.0  0.48022  0.74050  0.98170  1.0000
  H   H3027     1.0  0.58622  0.55747  0.01086  1.0000
  C   C2550     1.0  0.48045  0.98195  0.16061  1.0000
  C   C2551     1.0  0.42956  0.83440  0.98271  1.0000
  H   H3028     1.0  0.55505  0.76585  0.98923  1.0000
  C   C2552     1.0  0.55758  0.78602  0.98378  1.0000
  H   H3029     1.0  0.44192  0.98312  0.17224  1.0000
  H   H3030     1.0  0.38761  0.97619  0.25836  1.0000
  C   C2553     1.0  0.49400  0.98157  0.15589  1.0000
  C   C2554     1.0  0.58678  0.86982  0.07302  1.0000
  C   C2555     1.0  0.39140  0.98310  0.26165  1.0000
  Fe  Fe337     1.0  0.46606  0.83081  0.91354  1.0000
  S   S675      1.0  0.44496  0.84196  0.91699  1.0000
  S   S676      1.0  0.48190  0.84136  0.91147  1.0000
  Fe  Fe338     1.0  0.45947  0.80575  0.91129  1.0000
  C   C2556     1.0  0.39723  0.56661  0.92032  1.0000
  C   C2557     1.0  0.42562  0.93934  0.76409  1.0000
  H   H3031     1.0  0.53095  0.86092  0.87223  1.0000
  S   S677      1.0  0.46526  0.82355  0.89620  1.0000
  S   S678      1.0  0.46265  0.81198  0.92819  1.0000
  Fe  Fe339     1.0  0.53395  0.82672  0.94521  1.0000
  S   S679      1.0  0.53770  0.84725  0.93829  1.0000
  S   S680      1.0  0.51449  0.82180  0.95642  1.0000
  Fe  Fe340     1.0  0.56127  0.81392  0.93213  1.0000
  S   S681      1.0  0.56774  0.83344  0.92379  1.0000
  S   S682      1.0  0.57277  0.79290  0.93190  1.0000
  Fe  Fe341     1.0  0.55715  0.83776  0.94408  1.0000
  S   S683      1.0  0.56415  0.84960  0.95410  1.0000
  Fe  Fe342     1.0  0.54772  0.84152  0.91868  1.0000
  S   S684      1.0  0.54047  0.85516  0.90060  1.0000
  S   S685      1.0  0.55242  0.81764  0.95279  1.0000
  S   S686      1.0  0.54233  0.82160  0.92521  1.0000
  C   C2558     1.0  0.50488  0.66875  0.94328  1.0000
  S   S687      1.0  0.45572  0.90109  0.81705  1.0000
  C   C2559     1.0  0.40047  0.90851  0.83526  1.0000
  N   N176      1.0  0.47294  0.63430  0.88797  1.0000
  H   H3032     1.0  0.50428  0.84846  0.91410  1.0000
  Fe  Fe343     1.0  0.46683  0.91741  0.80883  1.0000
  S   S688      1.0  0.48866  0.91455  0.80106  1.0000
  H   H3033     1.0  0.39188  0.89033  0.82889  1.0000
  Fe  Fe344     1.0  0.54638  0.92901  0.82185  1.0000
  S   S689      1.0  0.55644  0.93413  0.83503  1.0000
  S   S690      1.0  0.55009  0.93781  0.79951  1.0000
  Fe  Fe345     1.0  0.52735  0.91646  0.84568  1.0000
  S   S691      1.0  0.53512  0.92117  0.86066  1.0000
  S   S692      1.0  0.51087  0.90571  0.85197  1.0000
  Fe  Fe346     1.0  0.53595  0.94090  0.84661  1.0000
  Fe  Fe347     1.0  0.44428  0.72017  0.92341  1.0000
  Fe  Fe348     1.0  0.55485  0.91379  0.84804  1.0000
  S   S693      1.0  0.56957  0.89887  0.85928  1.0000
  S   S694      1.0  0.52594  0.93696  0.83283  1.0000
  S   S695      1.0  0.54695  0.90798  0.83366  1.0000
  Fe  Fe349     1.0  0.41850  0.93169  0.61701  1.0000
  S   S696      1.0  0.43392  0.94227  0.60311  1.0000
  S   S697      1.0  0.41848  0.92363  0.63890  1.0000
  Fe  Fe350     1.0  0.40699  0.93041  0.59420  1.0000
  S   S698      1.0  0.42192  0.94046  0.57833  1.0000
  C   C2560     1.0  0.44019  0.88638  0.86162  1.0000
  Fe  Fe351     1.0  0.43683  0.92787  0.59045  1.0000
  S   S699      1.0  0.45776  0.91756  0.58271  1.0000
  Fe  Fe352     1.0  0.41779  0.95391  0.59236  1.0000
  H   H3034     1.0  0.46864  0.61524  0.89878  1.0000
  S   S700      1.0  0.42238  0.91636  0.60503  1.0000
  Fe  Fe353     1.0  0.44418  0.94202  0.68908  1.0000
  S   S701      1.0  0.46489  0.92992  0.68809  1.0000
  C   C2561     1.0  0.39992  0.86583  0.86486  1.0000
  S   S702      1.0  0.45756  0.92543  0.72113  1.0000
  C   C2562     1.0  0.51253  0.84735  0.88246  1.0000
  C   C2563     1.0  0.44452  0.75354  0.91946  1.0000
  Fe  Fe354     1.0  0.45566  0.91591  0.70585  1.0000
  S   S703      1.0  0.46539  0.89419  0.70870  1.0000
  S   S704      1.0  0.43459  0.92714  0.70573  1.0000
  Fe  Fe355     1.0  0.51611  0.93954  0.59467  1.0000
  S   S705      1.0  0.52050  0.95093  0.60700  1.0000
  S   S706      1.0  0.49799  0.94920  0.58594  1.0000
  Fe  Fe356     1.0  0.54028  0.91759  0.59830  1.0000
  S   S707      1.0  0.54650  0.92667  0.61137  1.0000
  S   S708      1.0  0.55275  0.89854  0.59282  1.0000
  Fe  Fe357     1.0  0.52494  0.93134  0.62119  1.0000
  S   S709      1.0  0.51514  0.93049  0.64307  1.0000
  Fe  Fe358     1.0  0.54158  0.94548  0.59624  1.0000
  H   H3035     1.0  0.43830  0.63890  0.91911  1.0000
  S   S710      1.0  0.51903  0.92019  0.60962  1.0000
  S   S711      1.0  0.53688  0.93609  0.58243  1.0000
  Fe  Fe359     1.0  0.53845  0.92271  0.73577  1.0000
  S   S712      1.0  0.51771  0.92003  0.74446  1.0000
  S   S713      1.0  0.55345  0.91683  0.74874  1.0000
  Fe  Fe360     1.0  0.53432  0.93128  0.70685  1.0000
  S   S714      1.0  0.51325  0.92956  0.71359  1.0000
  S   S715      1.0  0.54376  0.93690  0.68475  1.0000
  Fe  Fe361     1.0  0.51230  0.93917  0.72990  1.0000
  H   H3036     1.0  0.40512  0.57747  0.90082  1.0000
  Fe  Fe362     1.0  0.52065  0.91055  0.72729  1.0000
  S   S716      1.0  0.51518  0.89099  0.73016  1.0000
  S   S717      1.0  0.53287  0.94260  0.72224  1.0000
  S   S718      1.0  0.54194  0.91162  0.71965  1.0000
  H   H3037     1.0  0.45665  0.97493  0.58850  1.0000
  Fe  Fe363     1.0  0.55326  0.60444  0.91503  1.0000
  S   S719      1.0  0.54509  0.61936  0.92809  1.0000
  S   S720      1.0  0.57515  0.59521  0.91364  1.0000
  Fe  Fe364     1.0  0.52688  0.60938  0.90732  1.0000
  S   S721      1.0  0.51671  0.62440  0.91983  1.0000
  S   S722      1.0  0.51717  0.60679  0.89244  1.0000
  Fe  Fe365     1.0  0.53512  0.63242  0.91189  1.0000
  S   S723      1.0  0.53280  0.65471  0.90511  1.0000
  Fe  Fe366     1.0  0.52748  0.61006  0.93501  1.0000
  S   S724      1.0  0.51706  0.60702  0.95660  1.0000
  S   S725      1.0  0.54467  0.61846  0.89805  1.0000
  S   S726      1.0  0.53626  0.59411  0.92325  1.0000
  Fe  Fe367     1.0  0.55389  0.73823  0.91547  1.0000
  S   S727      1.0  0.53951  0.74214  0.93421  1.0000
  S   S728      1.0  0.55799  0.75758  0.90189  1.0000
  Fe  Fe368     1.0  0.55512  0.70816  0.92449  1.0000
  S   S729      1.0  0.54089  0.71020  0.94401  1.0000
  S   S730      1.0  0.56365  0.68673  0.92289  1.0000
  Fe  Fe369     1.0  0.52973  0.72771  0.93155  1.0000
  S   S731      1.0  0.50791  0.73331  0.93358  1.0000
  Fe  Fe370     1.0  0.55244  0.72440  0.94430  1.0000
  S   S732      1.0  0.55851  0.72642  0.96171  1.0000
  S   S733      1.0  0.54301  0.72492  0.91187  1.0000
  S   S734      1.0  0.56766  0.72120  0.92582  1.0000
  Fe  Fe371     1.0  0.44971  0.58752  0.91238  1.0000
  S   S735      1.0  0.43175  0.59604  0.90340  1.0000
  S   S736      1.0  0.46960  0.57989  0.90014  1.0000
  C   C2564     1.0  0.48662  0.86229  0.87563  1.0000
  H   H3038     1.0  0.56337  0.93829  0.72343  1.0000
  H   H3039     1.0  0.43481  0.61595  0.94544  1.0000
  H   H3040     1.0  0.50963  0.87376  0.84864  1.0000
  S   S737      1.0  0.43905  0.57489  0.93034  1.0000
  S   S738      1.0  0.44705  0.60436  0.92201  1.0000
  N   N177      1.0  0.51009  0.86164  0.87568  1.0000
  S   S739      1.0  0.43923  0.90356  0.85451  1.0000
  S   S740      1.0  0.43780  0.81492  0.91470  1.0000
  S   S741      1.0  0.45717  0.68137  0.92914  1.0000
  N   N178      1.0  0.52105  0.97617  0.68037  1.0000
  Fe  Fe372     1.0  0.46838  0.69761  0.92014  1.0000
  S   S742      1.0  0.49039  0.69209  0.91433  1.0000
  S   S743      1.0  0.45501  0.71003  0.90642  1.0000
  H   H3041     1.0  0.40822  0.88017  0.82400  1.0000
  C   C2565     1.0  0.50904  0.78864  0.94537  1.0000
  H   H3042     1.0  0.52599  0.79380  0.96880  1.0000
  C   C2566     1.0  0.43034  0.82995  0.96135  1.0000
  H   H3043     1.0  0.47993  0.62037  0.90470  1.0000
  H   H3044     1.0  0.57184  0.63500  0.92131  1.0000
  H   H3045     1.0  0.42791  0.96291  0.64625  1.0000
  Fe  Fe373     1.0  0.43773  0.93811  0.71934  1.0000
  S   S744      1.0  0.49595  0.95632  0.73502  1.0000
  H   H3046     1.0  0.54432  0.82601  0.97962  1.0000
  H   H3047     1.0  0.45881  0.62952  0.88015  1.0000
  C   C2567     1.0  0.43168  0.94573  0.66200  1.0000
  H   H3048     1.0  0.50226  0.73746  0.96236  1.0000
  C   C2568     1.0  0.46717  0.65800  0.89134  1.0000
  C   C2569     1.0  0.50359  0.72226  0.92716  1.0000
  C   C2570     1.0  0.49128  0.72547  0.92389  1.0000
  C   C2571     1.0  0.48765  0.71650  0.91904  1.0000
  C   C2572     1.0  0.49609  0.70416  0.91792  1.0000
  C   C2573     1.0  0.50861  0.70118  0.92070  1.0000
  C   C2574     1.0  0.51240  0.71025  0.92529  1.0000
  H   H3049     1.0  0.48456  0.73484  0.92509  1.0000
  H   H3050     1.0  0.47829  0.71910  0.91617  1.0000
  H   H3051     1.0  0.51525  0.69178  0.91958  1.0000
  H   H3052     1.0  0.52200  0.70776  0.92768  1.0000
  C   C2575     1.0  0.50452  0.59816  0.89586  1.0000
  C   C2576     1.0  0.50246  0.59460  0.88512  1.0000
  C   C2577     1.0  0.49186  0.58884  0.88673  1.0000
  C   C2578     1.0  0.48291  0.58689  0.89900  1.0000
  C   C2579     1.0  0.48489  0.59038  0.90990  1.0000
  C   C2580     1.0  0.49584  0.59587  0.90837  1.0000
  H   H3053     1.0  0.50911  0.59633  0.87545  1.0000
  H   H3054     1.0  0.49048  0.58604  0.87834  1.0000
  H   H3055     1.0  0.47809  0.58870  0.91948  1.0000
  H   H3056     1.0  0.49737  0.59861  0.91671  1.0000
  C   C2581     1.0  0.54045  0.66361  0.91121  1.0000
  C   C2582     1.0  0.53851  0.67746  0.90668  1.0000
  C   C2583     1.0  0.54501  0.68476  0.91082  1.0000
  C   C2584     1.0  0.55383  0.67817  0.91918  1.0000
  C   C2585     1.0  0.55559  0.66433  0.92390  1.0000
  C   C2586     1.0  0.54871  0.65712  0.92015  1.0000
  H   H3057     1.0  0.53204  0.68257  0.89985  1.0000
  H   H3058     1.0  0.54358  0.69541  0.90710  1.0000
  H   H3059     1.0  0.56237  0.65919  0.93040  1.0000
  H   H3060     1.0  0.54996  0.64653  0.92397  1.0000
  Fe  Fe374     1.0  0.44133  0.82255  0.93068  1.0000
  S   S745      1.0  0.52720  0.96018  0.85353  1.0000
  H   H3061     1.0  0.47706  0.97818  0.57554  1.0000
  H   H3062     1.0  0.54547  0.59959  0.95191  1.0000
  H   H3063     1.0  0.40167  0.93519  0.56376  1.0000
  Fe  Fe375     1.0  0.44625  0.69392  0.94402  1.0000
  H   H3064     1.0  0.46291  0.86790  0.97344  1.0000
  H   H3065     1.0  0.40466  0.91311  0.84077  1.0000
  C   C2587     1.0  0.57524  0.57147  0.90805  1.0000
  H   H3066     1.0  0.41576  0.91345  0.57841  1.0000
  H   H3067     1.0  0.51312  0.77890  0.88323  1.0000
  H   H3068     1.0  0.56503  0.57559  0.90740  1.0000
  H   H3069     1.0  0.46056  0.87335  0.77011  1.0000
  C   C2588     1.0  0.51537  0.78273  0.95628  1.0000
  C   C2589     1.0  0.55041  0.95956  0.61515  1.0000
  H   H3070     1.0  0.52274  0.75185  0.90202  1.0000
  H   H3071     1.0  0.39217  0.63232  0.94733  1.0000
  C   C2590     1.0  0.56923  0.89933  0.58481  1.0000
  H   H3072     1.0  0.53439  0.98199  0.69557  1.0000
  H   H3073     1.0  0.47842  0.92157  0.77354  1.0000
  C   C2591     1.0  0.57236  0.91010  0.57444  1.0000
  H   H3074     1.0  0.48887  0.95408  0.61288  1.0000
  H   H3075     1.0  0.56457  0.91848  0.57172  1.0000
  C   C2592     1.0  0.52310  0.93346  0.65400  1.0000
  C   C2593     1.0  0.53629  0.93464  0.65021  1.0000
  C   C2594     1.0  0.54246  0.93605  0.65959  1.0000
  C   C2595     1.0  0.53556  0.93604  0.67287  1.0000
  C   C2596     1.0  0.52223  0.93543  0.67640  1.0000
  C   C2597     1.0  0.51602  0.93433  0.66701  1.0000
  H   H3076     1.0  0.54184  0.93414  0.64017  1.0000
  H   H3077     1.0  0.55272  0.93672  0.65665  1.0000
  H   H3078     1.0  0.51660  0.93577  0.68638  1.0000
  H   H3079     1.0  0.50568  0.93403  0.66997  1.0000
  C   C2598     1.0  0.39485  0.60174  0.96711  1.0000
  C   C2599     1.0  0.42777  0.95248  0.64999  1.0000
  C   C2600     1.0  0.47238  0.96471  0.65009  1.0000
  H   H3080     1.0  0.39341  0.68822  0.94213  1.0000
  H   H3081     1.0  0.48625  0.63591  0.86864  1.0000
  C   C2601     1.0  0.47995  0.89269  0.71373  1.0000
  C   C2602     1.0  0.48518  0.90391  0.71097  1.0000
  C   C2603     1.0  0.49613  0.90332  0.71574  1.0000
  C   C2604     1.0  0.50200  0.89149  0.72337  1.0000
  C   C2605     1.0  0.49713  0.88003  0.72578  1.0000
  C   C2606     1.0  0.48613  0.88061  0.72089  1.0000
  H   H3082     1.0  0.48081  0.91318  0.70515  1.0000
  H   H3083     1.0  0.49987  0.91212  0.71356  1.0000
  H   H3084     1.0  0.50170  0.87078  0.73162  1.0000
  H   H3085     1.0  0.48217  0.87185  0.72300  1.0000
  C   C2607     1.0  0.46922  0.92609  0.58350  1.0000
  C   C2608     1.0  0.46582  0.93991  0.58181  1.0000
  C   C2609     1.0  0.47483  0.94673  0.58254  1.0000
  C   C2610     1.0  0.48728  0.93988  0.58504  1.0000
  C   C2611     1.0  0.49073  0.92602  0.58682  1.0000
  C   C2612     1.0  0.48174  0.91915  0.58593  1.0000
  H   H3086     1.0  0.45630  0.94539  0.57975  1.0000
  H   H3087     1.0  0.47213  0.95734  0.58128  1.0000
  H   H3088     1.0  0.50034  0.92063  0.58872  1.0000
  H   H3089     1.0  0.48444  0.90845  0.58722  1.0000
  C   C2613     1.0  0.42361  0.93228  0.64759  1.0000
  N   N179      1.0  0.55711  0.96370  0.72942  1.0000
  C   C2614     1.0  0.43148  0.93226  0.66685  1.0000
  C   C2615     1.0  0.42731  0.92560  0.65973  1.0000
  H   H3090     1.0  0.43451  0.92695  0.67609  1.0000
  H   H3091     1.0  0.42701  0.91521  0.66360  1.0000
  H   H3092     1.0  0.49723  0.86776  0.89346  1.0000
  N   N180      1.0  0.40236  0.56409  0.97874  1.0000
  H   H3093     1.0  0.40530  0.56599  0.95748  1.0000
  C   C2616     1.0  0.42830  0.85248  0.96329  1.0000
  H   H3094     1.0  0.53671  0.96400  0.66840  1.0000
  C   C2617     1.0  0.54450  0.73334  0.97244  1.0000
  C   C2618     1.0  0.49923  0.86487  0.86859  1.0000
  C   C2619     1.0  0.45962  0.77296  0.91285  1.0000
  H   H3095     1.0  0.41434  0.96457  0.61240  1.0000
  H   H3096     1.0  0.45627  0.81255  0.97527  1.0000
  H   H3097     1.0  0.46146  0.85428  0.95364  1.0000
  N   N181      1.0  0.47425  0.84962  0.96756  1.0000
  H   H3098     1.0  0.39544  0.93752  0.54245  1.0000
  H   H3099     1.0  0.45176  0.64131  0.89023  1.0000
  C   C2620     1.0  0.54924  0.93011  0.78728  1.0000
  C   C2621     1.0  0.53993  0.93635  0.77931  1.0000
  C   C2622     1.0  0.54073  0.93208  0.76773  1.0000
  C   C2623     1.0  0.55115  0.92180  0.76382  1.0000
  C   C2624     1.0  0.56031  0.91542  0.77193  1.0000
  C   C2625     1.0  0.55931  0.91947  0.78365  1.0000
  H   H3100     1.0  0.53236  0.94478  0.78191  1.0000
  H   H3101     1.0  0.53358  0.93703  0.76159  1.0000
  N   N182      1.0  0.40737  0.89445  0.83514  1.0000
  C   C2626     1.0  0.42825  0.84798  0.97694  1.0000
  C   C2627     1.0  0.42788  0.93064  0.77616  1.0000
  H   H3102     1.0  0.48530  0.67466  0.89950  1.0000
  H   H3103     1.0  0.45428  0.97835  0.78153  1.0000
  H   H3104     1.0  0.46760  0.68920  0.95783  1.0000
  C   C2628     1.0  0.47403  0.95529  0.80423  1.0000
  H   H3105     1.0  0.50777  0.97738  0.61169  1.0000
  C   C2629     1.0  0.49525  0.91129  0.81509  1.0000
  C   C2630     1.0  0.50759  0.91388  0.81376  1.0000
  C   C2631     1.0  0.51245  0.91205  0.82511  1.0000
  C   C2632     1.0  0.50498  0.90763  0.83780  1.0000
  C   C2633     1.0  0.49267  0.90501  0.83913  1.0000
  C   C2634     1.0  0.48782  0.90681  0.82777  1.0000
  H   H3106     1.0  0.51324  0.91768  0.80405  1.0000
  H   H3107     1.0  0.52196  0.91413  0.82403  1.0000
  H   H3108     1.0  0.48681  0.90175  0.84896  1.0000
  H   H3109     1.0  0.47829  0.90473  0.82889  1.0000
  Fe  Fe376     1.0  0.42847  0.61222  0.91434  1.0000
  N   N183      1.0  0.42264  0.73089  0.96727  1.0000
  H   H3110     1.0  0.39688  0.85652  0.86705  1.0000
  C   C2635     1.0  0.54914  0.86695  0.88930  1.0000
  C   C2636     1.0  0.56235  0.86646  0.88880  1.0000
  C   C2637     1.0  0.56876  0.87620  0.87953  1.0000
  C   C2638     1.0  0.56203  0.88621  0.87057  1.0000
  C   C2639     1.0  0.54900  0.88633  0.87089  1.0000
  C   C2640     1.0  0.54252  0.87698  0.88038  1.0000
  H   H3111     1.0  0.56763  0.85851  0.89539  1.0000
  C   C2641     1.0  0.41665  0.56227  0.97814  1.0000
  H   H3112     1.0  0.54379  0.89373  0.86389  1.0000
  H   H3113     1.0  0.53223  0.87778  0.88093  1.0000
  C   C2642     1.0  0.56819  0.78340  0.92359  1.0000
  C   C2643     1.0  0.56918  0.76974  0.92893  1.0000
  C   C2644     1.0  0.56580  0.76186  0.92246  1.0000
  C   C2645     1.0  0.56187  0.76748  0.91033  1.0000
  H   H3114     1.0  0.46307  0.75759  0.88536  1.0000
  H   H3115     1.0  0.41902  0.97899  0.67098  1.0000
  C   C2646     1.0  0.42745  0.75376  0.95827  1.0000
  H   H3116     1.0  0.56667  0.75132  0.92668  1.0000
  H   H3117     1.0  0.40137  0.91490  0.82497  1.0000
  C   C2647     1.0  0.55760  0.88229  0.93559  1.0000
  H   H3118     1.0  0.47644  0.75699  0.90888  1.0000
  C   C2648     1.0  0.41297  0.91424  0.53274  1.0000
  C   C2649     1.0  0.43846  0.88198  0.87553  1.0000
  C   C2650     1.0  0.43777  0.86870  0.88176  1.0000
  H   H3119     1.0  0.43739  0.88895  0.88156  1.0000
  H   H3120     1.0  0.43616  0.86554  0.89252  1.0000
  C   C2651     1.0  0.54174  0.60354  0.96082  1.0000
  H   H3121     1.0  0.50145  0.65320  0.89904  1.0000
  N   N184      1.0  0.52970  0.78142  0.95485  1.0000
  H   H3122     1.0  0.52086  0.84459  0.88766  1.0000
  C   C2652     1.0  0.49038  0.83596  0.92440  1.0000
  C   C2653     1.0  0.48658  0.82656  0.93596  1.0000
  C   C2654     1.0  0.49387  0.82225  0.94597  1.0000
  C   C2655     1.0  0.50492  0.82733  0.94437  1.0000
  C   C2656     1.0  0.50856  0.83682  0.93289  1.0000
  C   C2657     1.0  0.50132  0.84114  0.92295  1.0000
  H   H3123     1.0  0.47794  0.82279  0.93734  1.0000
  H   H3124     1.0  0.49097  0.81499  0.95489  1.0000
  H   H3125     1.0  0.51695  0.84095  0.93162  1.0000
  N   N185      1.0  0.56410  0.88205  0.92142  1.0000
  C   C2658     1.0  0.57934  0.88858  0.58840  1.0000
  C   C2659     1.0  0.40568  0.65945  0.93772  1.0000
  C   C2660     1.0  0.44256  0.75911  0.88662  1.0000
  C   C2661     1.0  0.55443  0.88881  0.91285  1.0000
  H   H3126     1.0  0.40859  0.91838  0.52408  1.0000
  H   H3127     1.0  0.40764  0.89344  0.56297  1.0000
  H   H3128     1.0  0.40807  0.68587  0.96453  1.0000
  H   H3129     1.0  0.42804  0.92556  0.52518  1.0000
  C   C2662     1.0  0.44813  0.98241  0.58517  1.0000
  C   C2663     1.0  0.45981  0.64386  0.94393  1.0000
  C   C2664     1.0  0.41258  0.90019  0.55485  1.0000
  H   H3130     1.0  0.43219  0.77308  0.95149  1.0000
  C   C2665     1.0  0.51225  0.97645  0.67181  1.0000
  C   C2666     1.0  0.43962  0.96822  0.82625  1.0000
  C   C2667     1.0  0.50311  0.97730  0.73874  1.0000
  H   H3131     1.0  0.40600  0.54940  0.96714  1.0000
  C   C2668     1.0  0.53306  0.89091  0.90771  1.0000
  H   H3132     1.0  0.47868  0.95052  0.82877  1.0000
  C   C2669     1.0  0.53486  0.97284  0.67270  1.0000
  H   H3133     1.0  0.48484  0.97785  0.60399  1.0000
  H   H3134     1.0  0.52842  0.90591  0.89053  1.0000
  C   C2670     1.0  0.57262  0.65955  0.89135  1.0000
  H   H3135     1.0  0.49649  0.75123  0.95006  1.0000
  C   C2671     1.0  0.56647  0.55583  0.97191  1.0000
  C   C2672     1.0  0.47625  0.64556  0.89083  1.0000
  C   C2673     1.0  0.46993  0.65613  0.96892  1.0000
  H   H3136     1.0  0.49594  0.67680  0.94200  1.0000
  C   C2674     1.0  0.49693  0.97572  0.79864  1.0000
  C   C2675     1.0  0.47043  0.66830  0.89451  1.0000
  C   C2676     1.0  0.46072  0.63809  0.88272  1.0000
  H   H3137     1.0  0.51495  0.84091  0.87521  1.0000
  S   S746      1.0  0.40447  0.57302  0.92943  1.0000
  Fe  Fe377     1.0  0.46543  0.94000  0.70348  1.0000
  H   H3138     1.0  0.57892  0.87594  0.87921  1.0000
  H   H3139     1.0  0.57032  0.62189  0.89929  1.0000
  H   H3140     1.0  0.45836  0.93028  0.74825  1.0000
  N   N186      1.0  0.42899  0.89865  0.56819  1.0000
  C   C2677     1.0  0.44079  0.90348  0.56768  1.0000
  H   H3141     1.0  0.50500  0.63350  0.96552  1.0000
  C   C2678     1.0  0.43283  0.88393  0.57057  1.0000
  C   C2679     1.0  0.42369  0.90410  0.55593  1.0000
  C   C2680     1.0  0.42919  0.91339  0.54484  1.0000
  C   C2681     1.0  0.57390  0.83687  0.97656  1.0000
  C   C2682     1.0  0.39304  0.64377  0.96055  1.0000
  H   H3142     1.0  0.52734  0.95751  0.80868  1.0000
  C   C2683     1.0  0.42385  0.91834  0.53345  1.0000
  H   H3143     1.0  0.43851  0.91447  0.56654  1.0000
  H   H3144     1.0  0.44448  0.89924  0.57708  1.0000
  H   H3145     1.0  0.44917  0.90068  0.55943  1.0000
  H   H3146     1.0  0.53622  0.96912  0.73000  1.0000
  H   H3147     1.0  0.51778  0.97476  0.64299  1.0000
  H   H3148     1.0  0.46102  0.61873  0.98093  1.0000
  H   H3149     1.0  0.42420  0.87938  0.57266  1.0000
  H   H3150     1.0  0.44004  0.88067  0.56175  1.0000
  H   H3151     1.0  0.44088  0.97678  0.58529  1.0000
  H   H3152     1.0  0.42805  0.97281  0.72985  1.0000
  H   H3153     1.0  0.42177  0.55160  0.98001  1.0000
  H   H3154     1.0  0.46855  0.73352  0.96611  1.0000
  C   C2684     1.0  0.56579  0.94366  0.70246  1.0000
  C   C2685     1.0  0.48290  0.60438  0.96814  1.0000
  C   C2686     1.0  0.40149  0.64864  0.93675  1.0000
  C   C2687     1.0  0.52311  0.87537  0.75966  1.0000
  C   C2688     1.0  0.45968  0.61077  0.97696  1.0000
  H   H3155     1.0  0.56110  0.60293  0.96310  1.0000
  H   H3156     1.0  0.40330  0.64619  0.92712  1.0000
  C   C2689     1.0  0.46766  0.90148  0.77230  1.0000
  C   C2690     1.0  0.54585  0.74018  0.98114  1.0000
  C   C2691     1.0  0.47251  0.89976  0.74929  1.0000
  H   H3157     1.0  0.44334  0.72359  0.96732  1.0000
  H   H3158     1.0  0.54793  0.89281  0.76912  1.0000
  C   C2692     1.0  0.46441  0.93056  0.75502  1.0000
  H   H3159     1.0  0.46643  0.90672  0.77996  1.0000
  Fe  Fe378     1.0  0.44377  0.83334  0.90059  1.0000
  C   C2693     1.0  0.44169  0.87723  0.85393  1.0000
  S   S747      1.0  0.42524  0.94552  0.73757  1.0000
  C   C2694     1.0  0.58242  0.57907  0.91070  1.0000
  C   C2695     1.0  0.43986  0.78702  0.88201  1.0000
  H   H3160     1.0  0.42389  0.89965  0.81960  1.0000
  H   H3161     1.0  0.57930  0.55594  0.93335  1.0000
  H   H3162     1.0  0.54636  0.95966  0.63602  1.0000
  H   H3163     1.0  0.49756  0.75398  0.96537  1.0000
  C   C2696     1.0  0.43845  0.85977  0.87416  1.0000
  C   C2697     1.0  0.47258  0.90687  0.75862  1.0000
  C   C2698     1.0  0.52982  0.88014  0.76611  1.0000
  N   N187      1.0  0.50288  0.65552  0.94372  1.0000
  C   C2699     1.0  0.49848  0.65634  0.93151  1.0000
  H   H3164     1.0  0.47249  0.95863  0.68089  1.0000
  C   C2700     1.0  0.51593  0.64605  0.94325  1.0000
  C   C2701     1.0  0.49271  0.65164  0.95575  1.0000
  C   C2702     1.0  0.52656  0.97552  0.81427  1.0000
  H   H3165     1.0  0.48775  0.93277  0.61231  1.0000
  C   C2703     1.0  0.53230  0.78415  0.96665  1.0000
  C   C2704     1.0  0.52075  0.73793  0.98085  1.0000
  C   C2705     1.0  0.42806  0.76599  0.95995  1.0000
  H   H3166     1.0  0.48939  0.66418  0.93034  1.0000
  H   H3167     1.0  0.50607  0.65900  0.92228  1.0000
  H   H3168     1.0  0.49651  0.64671  0.93159  1.0000
  H   H3169     1.0  0.49738  0.95499  0.78730  1.0000
  C   C2706     1.0  0.57500  0.55619  0.94403  1.0000
  C   C2707     1.0  0.56381  0.78915  0.91169  1.0000
  H   H3170     1.0  0.51521  0.63589  0.94333  1.0000
  H   H3171     1.0  0.56318  0.79966  0.90742  1.0000
  H   H3172     1.0  0.48320  0.59591  0.97697  1.0000
  H   H3173     1.0  0.47683  0.66835  0.95018  1.0000
  C   C2708     1.0  0.49494  0.74712  0.96097  1.0000
  C   C2709     1.0  0.42337  0.67034  0.94784  1.0000
  C   C2710     1.0  0.51771  0.97682  0.63225  1.0000
  H   H3174     1.0  0.41348  0.65991  0.89130  1.0000
  S   S748      1.0  0.55479  0.96006  0.58858  1.0000
  C   C2711     1.0  0.48566  0.63699  0.97738  1.0000
  H   H3175     1.0  0.52026  0.64545  0.95175  1.0000
  H   H3176     1.0  0.56972  0.96973  0.85169  1.0000
  H   H3177     1.0  0.49031  0.93425  0.62777  1.0000
  C   C2712     1.0  0.42703  0.80674  0.89034  1.0000
  H   H3178     1.0  0.56550  0.97246  0.74004  1.0000
  H   H3179     1.0  0.44352  0.74843  0.88888  1.0000
  H   H3180     1.0  0.57077  0.63619  0.88602  1.0000
  H   H3181     1.0  0.40976  0.88414  0.87990  1.0000
  C   C2713     1.0  0.49758  0.94928  0.79770  1.0000
  C   C2714     1.0  0.49543  0.64020  0.96603  1.0000
  C   C2715     1.0  0.45308  0.97520  0.61761  1.0000
  H   H3182     1.0  0.50528  0.95915  0.64706  1.0000
  C   C2716     1.0  0.55120  0.96483  0.85329  1.0000
  H   H3183     1.0  0.57265  0.76520  0.93807  1.0000
  C   C2717     1.0  0.43487  0.80813  0.86665  1.0000
  H   H3184     1.0  0.44290  0.80447  0.85851  1.0000
  C   C2718     1.0  0.48187  0.97359  0.69977  1.0000
  S   S749      1.0  0.41577  0.60203  0.93252  1.0000
  H   H3185     1.0  0.47903  0.92352  0.73292  1.0000
  H   H3186     1.0  0.41772  0.68107  0.89166  1.0000
  H   H3187     1.0  0.49281  0.91216  0.76425  1.0000
  H   H3188     1.0  0.46516  0.95824  0.81195  1.0000
  H   H3189     1.0  0.48130  0.62019  0.87517  1.0000
  C   C2719     1.0  0.47799  0.87083  0.85560  1.0000
  S   S750      1.0  0.42880  0.92532  0.82063  1.0000
  H   H3190     1.0  0.49306  0.62353  0.88161  1.0000
  C   C2720     1.0  0.48275  0.66658  0.89722  1.0000
  C   C2721     1.0  0.49020  0.87354  0.84837  1.0000
  H   H3191     1.0  0.49146  0.87814  0.83782  1.0000
  C   C2722     1.0  0.45512  0.96143  0.62247  1.0000
  H   H3192     1.0  0.48465  0.85817  0.88623  1.0000
  Fe  Fe379     1.0  0.44285  0.69462  0.91687  1.0000
  H   H3193     1.0  0.50388  0.84472  0.89028  1.0000
  C   C2723     1.0  0.50632  0.86972  0.88590  1.0000
  H   H3194     1.0  0.46982  0.87329  0.85071  1.0000
  H   H3195     1.0  0.52082  0.96720  0.62901  1.0000
  H   H3196     1.0  0.48001  0.69885  0.96760  1.0000
  H   H3197     1.0  0.46690  0.94051  0.75204  1.0000
  C   C2724     1.0  0.47620  0.86523  0.86921  1.0000
  C   C2725     1.0  0.47096  0.62405  0.90046  1.0000
  H   H3198     1.0  0.54572  0.79085  0.94282  1.0000
  C   C2726     1.0  0.50065  0.87082  0.85473  1.0000
  H   H3199     1.0  0.51453  0.90982  0.78392  1.0000
  H   H3200     1.0  0.49699  0.93903  0.79800  1.0000
  H   H3201     1.0  0.55554  0.74110  0.98123  1.0000
  N   N188      1.0  0.56896  0.90661  0.53444  1.0000
  C   C2727     1.0  0.57503  0.91267  0.52054  1.0000
  C   C2728     1.0  0.55762  0.90174  0.53381  1.0000
  C   C2729     1.0  0.56393  0.91722  0.54213  1.0000
  C   C2730     1.0  0.57825  0.89557  0.54120  1.0000
  H   H3202     1.0  0.58158  0.88757  0.90767  1.0000
  H   H3203     1.0  0.44312  0.98133  0.61900  1.0000
  C   C2731     1.0  0.56915  0.86804  0.92016  1.0000
  C   C2732     1.0  0.54237  0.88468  0.91559  1.0000
  H   H3204     1.0  0.58224  0.83195  0.96998  1.0000
  H   H3205     1.0  0.57923  0.90515  0.51423  1.0000
  H   H3206     1.0  0.56775  0.92065  0.51554  1.0000
  H   H3207     1.0  0.58306  0.91742  0.52021  1.0000
  H   H3208     1.0  0.56112  0.89316  0.52885  1.0000
  H   H3209     1.0  0.55079  0.90962  0.52815  1.0000
  H   H3210     1.0  0.55150  0.89846  0.54386  1.0000
  C   C2733     1.0  0.56740  0.97000  0.73014  1.0000
  H   H3211     1.0  0.55717  0.92593  0.53723  1.0000
  H   H3212     1.0  0.56785  0.97949  0.72257  1.0000
  C   C2734     1.0  0.41837  0.72141  0.97987  1.0000
  C   C2735     1.0  0.39712  0.65462  0.96161  1.0000
  H   H3213     1.0  0.40900  0.80097  0.97506  1.0000
  H   H3214     1.0  0.56681  0.91489  0.78945  1.0000
  C   C2736     1.0  0.42242  0.74408  0.96920  1.0000
  H   H3215     1.0  0.56874  0.95652  0.81842  1.0000
  S   S751      1.0  0.44574  0.95373  0.70271  1.0000
  H   H3216     1.0  0.56714  0.55038  0.94741  1.0000
  H   H3217     1.0  0.45778  0.60094  0.95695  1.0000
  H   H3218     1.0  0.56353  0.89058  0.55951  1.0000
  H   H3219     1.0  0.41723  0.80625  0.88937  1.0000
  S   S752      1.0  0.43082  0.70589  0.93261  1.0000
  H   H3220     1.0  0.56657  0.78399  0.97626  1.0000
  H   H3221     1.0  0.48837  0.93145  0.73791  1.0000
  Fe  Fe380     1.0  0.44242  0.93953  0.81193  1.0000
  C   C2737     1.0  0.42557  0.64798  0.90514  1.0000
  H   H3222     1.0  0.44651  0.95732  0.62735  1.0000
  C   C2738     1.0  0.47852  0.63151  0.93063  1.0000
  H   H3223     1.0  0.42205  0.56688  0.96819  1.0000
  H   H3224     1.0  0.45239  0.63402  0.96361  1.0000
  C   C2739     1.0  0.54415  0.97329  0.73102  1.0000
  C   C2740     1.0  0.55421  0.97649  0.62363  1.0000
  C   C2741     1.0  0.46904  0.64319  0.93193  1.0000
  H   H3225     1.0  0.48577  0.63099  0.92135  1.0000
  C   C2742     1.0  0.41991  0.65992  0.89744  1.0000
  C   C2743     1.0  0.44590  0.77638  0.91720  1.0000
  H   H3226     1.0  0.40056  0.82522  0.97125  1.0000
  C   C2744     1.0  0.39877  0.57066  0.90645  1.0000
  C   C2745     1.0  0.39177  0.56614  0.89990  1.0000
  S   S753      1.0  0.43233  0.68816  0.90528  1.0000
  S   S754      1.0  0.45869  0.70901  0.93627  1.0000
  C   C2746     1.0  0.55613  0.95220  0.74096  1.0000
  H   H3227     1.0  0.40951  0.89894  0.58129  1.0000
  C   C2747     1.0  0.46362  0.85697  0.97667  1.0000
  C   C2748     1.0  0.43053  0.67229  0.90548  1.0000
  H   H3228     1.0  0.43356  0.81914  0.86465  1.0000
  C   C2749     1.0  0.46731  0.59782  0.96026  1.0000
  C   C2750     1.0  0.39521  0.64079  0.94815  1.0000
  H   H3229     1.0  0.45852  0.96481  0.71861  1.0000
  S   S755      1.0  0.41516  0.97583  0.58446  1.0000
  C   C2751     1.0  0.43394  0.64812  0.91306  1.0000
  H   H3230     1.0  0.54750  0.76601  0.95318  1.0000
  H   H3231     1.0  0.47520  0.59467  0.95182  1.0000
  H   H3232     1.0  0.56110  0.86255  0.92311  1.0000
  Fe  Fe381     1.0  0.43474  0.59253  0.93915  1.0000
  C   C2752     1.0  0.42234  0.67193  0.89763  1.0000
  C   C2753     1.0  0.40822  0.88955  0.85934  1.0000
  C   C2754     1.0  0.43272  0.92080  0.75322  1.0000
  C   C2755     1.0  0.40306  0.86952  0.87489  1.0000
  H   H3233     1.0  0.42731  0.88338  0.83004  1.0000
  Fe  Fe382     1.0  0.44142  0.91451  0.80470  1.0000
  H   H3234     1.0  0.50758  0.66884  0.95255  1.0000
  C   C2756     1.0  0.48468  0.92214  0.74059  1.0000
  H   H3235     1.0  0.57699  0.88028  0.59642  1.0000
  C   C2757     1.0  0.48384  0.62831  0.87792  1.0000
  C   C2758     1.0  0.45648  0.98275  0.56167  1.0000
  H   H3236     1.0  0.46332  0.67771  0.89480  1.0000
  H   H3237     1.0  0.57430  0.86741  0.90971  1.0000
  C   C2759     1.0  0.52607  0.88685  0.79863  1.0000
  H   H3238     1.0  0.50448  0.88056  0.88120  1.0000
  C   C2760     1.0  0.49380  0.77910  0.97023  1.0000
  C   C2761     1.0  0.46438  0.82983  0.97119  1.0000
  H   H3239     1.0  0.51421  0.86748  0.89155  1.0000
  H   H3240     1.0  0.55956  0.56134  0.96564  1.0000
  H   H3241     1.0  0.42581  0.89782  0.83611  1.0000
  C   C2762     1.0  0.50909  0.88725  0.78105  1.0000
  S   S756      1.0  0.46922  0.78512  0.90760  1.0000
  H   H3242     1.0  0.46664  0.86327  0.87488  1.0000
  C   C2763     1.0  0.49182  0.65448  0.89697  1.0000
  S   S757      1.0  0.43775  0.95413  0.67014  1.0000
  C   C2764     1.0  0.52281  0.86424  0.86674  1.0000
  H   H3243     1.0  0.45796  0.92955  0.76523  1.0000
  C   C2765     1.0  0.53544  0.79073  0.94289  1.0000
  C   C2766     1.0  0.44127  0.96659  0.75626  1.0000
  C   C2767     1.0  0.45411  0.78253  0.95575  1.0000
  C   C2768     1.0  0.44998  0.80569  0.88026  1.0000
  H   H3244     1.0  0.49541  0.84698  0.96101  1.0000
  H   H3245     1.0  0.44198  0.97388  0.84310  1.0000
  C   C2769     1.0  0.44026  0.97735  0.83309  1.0000
  C   C2770     1.0  0.41869  0.90245  0.57976  1.0000
  H   H3246     1.0  0.44877  0.95648  0.73303  1.0000
  H   H3247     1.0  0.46475  0.97420  0.56383  1.0000
  C   C2771     1.0  0.40523  0.88607  0.84883  1.0000
  H   H3248     1.0  0.45102  0.93646  0.62472  1.0000
  S   S758      1.0  0.42158  0.63351  0.90417  1.0000
  H   H3249     1.0  0.45746  0.66005  0.88933  1.0000
  C   C2772     1.0  0.47655  0.97323  0.60927  1.0000
  H   H3250     1.0  0.42768  0.67818  0.94883  1.0000
  Fe  Fe383     1.0  0.42062  0.58493  0.92249  1.0000
  H   H3251     1.0  0.44946  0.61328  0.97528  1.0000
  C   C2773     1.0  0.46582  0.75973  0.91221  1.0000
  H   H3252     1.0  0.51542  0.89040  0.80289  1.0000
  C   C2774     1.0  0.42395  0.94571  0.64268  1.0000
  H   H3253     1.0  0.44305  0.66047  0.91909  1.0000
  N   N189      1.0  0.50976  0.89539  0.67492  1.0000
  C   C2775     1.0  0.50872  0.89214  0.66269  1.0000
  C   C2776     1.0  0.50713  0.88400  0.68620  1.0000
  C   C2777     1.0  0.49925  0.90732  0.67724  1.0000
  C   C2778     1.0  0.52279  0.89799  0.67400  1.0000
  C   C2779     1.0  0.52578  0.89999  0.68531  1.0000
  C   C2780     1.0  0.53274  0.89886  0.66200  1.0000
  C   C2781     1.0  0.53799  0.90243  0.68473  1.0000
  C   C2782     1.0  0.54494  0.90130  0.66154  1.0000
  C   C2783     1.0  0.54756  0.90305  0.67288  1.0000
  H   H3254     1.0  0.51644  0.88328  0.66028  1.0000
  H   H3255     1.0  0.49894  0.88992  0.66386  1.0000
  H   H3256     1.0  0.50967  0.90065  0.65391  1.0000
  H   H3257     1.0  0.50636  0.88609  0.69600  1.0000
  H   H3258     1.0  0.51513  0.87497  0.68512  1.0000
  H   H3259     1.0  0.49755  0.88152  0.68698  1.0000
  H   H3260     1.0  0.48918  0.90528  0.67967  1.0000
  H   H3261     1.0  0.49996  0.91110  0.68561  1.0000
  H   H3262     1.0  0.49990  0.91561  0.66827  1.0000
  H   H3263     1.0  0.51862  0.89994  0.69468  1.0000
  H   H3264     1.0  0.53127  0.89802  0.65273  1.0000
  H   H3265     1.0  0.53991  0.90420  0.69343  1.0000
  H   H3266     1.0  0.55227  0.90221  0.65223  1.0000
  H   H3267     1.0  0.55686  0.90533  0.67240  1.0000
  H   H3268     1.0  0.46308  0.73990  0.91483  1.0000
  H   H3269     1.0  0.48844  0.93002  0.75956  1.0000
  H   H3270     1.0  0.46134  0.64618  0.87355  1.0000
  H   H3271     1.0  0.47233  0.86508  0.94974  1.0000
  H   H3272     1.0  0.53272  0.76026  0.96224  1.0000
  H   H3273     1.0  0.45247  0.65296  0.94499  1.0000
  H   H3274     1.0  0.52215  0.87507  0.86227  1.0000
  C   C2784     1.0  0.52299  0.88613  0.77714  1.0000
  H   H3275     1.0  0.50602  0.76327  0.92533  1.0000
  H   H3276     1.0  0.49593  0.63479  0.89418  1.0000
  H   H3277     1.0  0.52605  0.85871  0.85861  1.0000
  N   N190      1.0  0.43807  0.80161  0.87987  1.0000
  C   C2785     1.0  0.48862  0.64407  0.89395  1.0000
  C   C2786     1.0  0.50740  0.77751  0.96863  1.0000
  H   H3278     1.0  0.42107  0.95088  0.63336  1.0000
  C   C2787     1.0  0.53159  0.98134  0.85960  1.0000
  H   H3279     1.0  0.42182  0.94986  0.76369  1.0000
  Fe  Fe384     1.0  0.44416  0.91296  0.83242  1.0000
  H   H3280     1.0  0.46267  0.62802  0.90821  1.0000
  N   N191      1.0  0.51168  0.77159  0.90434  1.0000
  C   C2788     1.0  0.52424  0.76140  0.90289  1.0000
  C   C2789     1.0  0.50225  0.76578  0.91606  1.0000
  C   C2790     1.0  0.51315  0.78427  0.90610  1.0000
  C   C2791     1.0  0.52551  0.78660  0.90599  1.0000
  C   C2792     1.0  0.50196  0.79489  0.90778  1.0000
  C   C2793     1.0  0.52649  0.79881  0.90748  1.0000
  C   C2794     1.0  0.50304  0.80700  0.90932  1.0000
  C   C2795     1.0  0.51527  0.80898  0.90918  1.0000
  H   H3281     1.0  0.50057  0.75648  0.91479  1.0000
  H   H3282     1.0  0.49235  0.77249  0.91775  1.0000
  H   H3283     1.0  0.52867  0.75894  0.91172  1.0000
  H   H3284     1.0  0.53460  0.77919  0.90465  1.0000
  C   C2796     1.0  0.45993  0.63282  0.95465  1.0000
  H   H3285     1.0  0.53603  0.80042  0.90729  1.0000
  H   H3286     1.0  0.49432  0.81490  0.91056  1.0000
  H   H3287     1.0  0.51606  0.81840  0.91041  1.0000
  H   H3288     1.0  0.45498  0.94088  0.64448  1.0000
  C   C2797     1.0  0.53549  0.90134  0.89684  1.0000
  C   C2798     1.0  0.47159  0.85452  0.95392  1.0000
  H   H3289     1.0  0.54676  0.95070  0.61700  1.0000
  H   H3290     1.0  0.42589  0.93450  0.78502  1.0000
  S   S759      1.0  0.45373  0.92961  0.79502  1.0000
  H   H3291     1.0  0.42217  0.89831  0.58926  1.0000
  S   S760      1.0  0.45658  0.92841  0.82516  1.0000
  C   C2799     1.0  0.54732  0.90548  0.89372  1.0000
  C   C2800     1.0  0.58553  0.90975  0.56728  1.0000
  C   C2801     1.0  0.46946  0.62072  0.95363  1.0000
  H   H3292     1.0  0.54820  0.87734  0.78157  1.0000
  C   C2802     1.0  0.44052  0.86405  0.86020  1.0000
  C   C2803     1.0  0.50651  0.77410  0.89220  1.0000
  C   C2804     1.0  0.42355  0.76902  0.97252  1.0000
  C   C2805     1.0  0.47418  0.96649  0.68426  1.0000
  H   H3293     1.0  0.46669  0.58880  0.96848  1.0000
  H   H3294     1.0  0.45999  0.66224  0.97012  1.0000
  C   C2806     1.0  0.45829  0.75002  0.91560  1.0000
  C   C2807     1.0  0.43653  0.66032  0.91314  1.0000
  H   H3295     1.0  0.55577  0.95532  0.85064  1.0000
  H   H3296     1.0  0.56847  0.90753  0.76895  1.0000
  H   H3297     1.0  0.41908  0.71145  0.97815  1.0000
  H   H3298     1.0  0.52558  0.98246  0.62676  1.0000
  H   H3299     1.0  0.56745  0.93344  0.70167  1.0000
  C   C2808     1.0  0.46379  0.98107  0.61093  1.0000
  H   H3300     1.0  0.40344  0.73725  0.96263  1.0000
  C   C2809     1.0  0.48396  0.82632  0.97958  1.0000
  C   C2810     1.0  0.40436  0.67725  0.96436  1.0000
  H   H3301     1.0  0.57039  0.56684  0.94412  1.0000
  C   C2811     1.0  0.56309  0.84525  0.97151  1.0000
  H   H3302     1.0  0.50314  0.89210  0.78902  1.0000
  C   C2812     1.0  0.43029  0.76764  0.88598  1.0000
  C   C2813     1.0  0.40429  0.68614  0.94115  1.0000
  H   H3303     1.0  0.46611  0.92508  0.64567  1.0000
  H   H3304     1.0  0.52326  0.64911  0.93399  1.0000
  H   H3305     1.0  0.40264  0.86303  0.88474  1.0000
  H   H3306     1.0  0.48630  0.61158  0.93979  1.0000
  C   C2814     1.0  0.41378  0.98065  0.62092  1.0000
  H   H3307     1.0  0.47878  0.84859  0.94695  1.0000
  C   C2815     1.0  0.56100  0.97004  0.70435  1.0000
  H   H3308     1.0  0.57904  0.61876  0.91796  1.0000
  H   H3309     1.0  0.42558  0.80616  0.86585  1.0000
  H   H3310     1.0  0.56060  0.63764  0.90239  1.0000
  H   H3311     1.0  0.49341  0.91376  0.73930  1.0000
  H   H3312     1.0  0.47270  0.96213  0.79452  1.0000
  H   H3313     1.0  0.51431  0.96674  0.66894  1.0000
  H   H3314     1.0  0.47724  0.78714  0.96080  1.0000
  H   H3315     1.0  0.42834  0.80095  0.90047  1.0000
  S   S761      1.0  0.43461  0.58916  0.96065  1.0000
  C   C2816     1.0  0.48435  0.92088  0.76335  1.0000
  H   H3316     1.0  0.41685  0.73885  0.94833  1.0000
  C   C2817     1.0  0.51283  0.96224  0.76125  1.0000
  C   C2818     1.0  0.42844  0.60446  0.96518  1.0000
  C   C2819     1.0  0.43023  0.61622  0.95575  1.0000
  H   H3317     1.0  0.55830  0.91370  0.55240  1.0000
  H   H3318     1.0  0.49190  0.82946  0.98124  1.0000
  S   S762      1.0  0.43406  0.90586  0.79216  1.0000
  C   C2820     1.0  0.55020  0.96461  0.62593  1.0000
  C   C2821     1.0  0.42808  0.93444  0.75259  1.0000
  N   N192      1.0  0.47650  0.91984  0.75442  1.0000
  H   H3319     1.0  0.41923  0.78757  0.88303  1.0000
  C   C2822     1.0  0.48689  0.85296  0.96700  1.0000
  S   S763      1.0  0.48245  0.94719  0.70448  1.0000
  H   H3320     1.0  0.47537  0.90339  0.73869  1.0000
  C   C2823     1.0  0.53742  0.96907  0.85602  1.0000
  C   C2824     1.0  0.42694  0.62824  0.95986  1.0000
  H   H3321     1.0  0.50918  0.96821  0.69925  1.0000
  C   C2825     1.0  0.47444  0.83522  0.97250  1.0000
  H   H3322     1.0  0.42914  0.63716  0.95275  1.0000
  H   H3323     1.0  0.56556  0.68062  0.88466  1.0000
  H   H3324     1.0  0.44825  0.81665  0.87903  1.0000
  S   S764      1.0  0.43466  0.74191  0.92277  1.0000
  C   C2826     1.0  0.43837  0.76672  0.92037  1.0000
  H   H3325     1.0  0.44104  0.78648  0.91790  1.0000
  C   C2827     1.0  0.57369  0.88817  0.55417  1.0000
  H   H3326     1.0  0.53576  0.76551  0.94447  1.0000
  H   H3327     1.0  0.56275  0.66930  0.97077  1.0000
  H   H3328     1.0  0.44084  0.95776  0.83097  1.0000
  H   H3329     1.0  0.45852  0.80305  0.87207  1.0000
  H   H3330     1.0  0.57254  0.89886  0.91862  1.0000
  H   H3331     1.0  0.39294  0.97742  0.57318  1.0000
  H   H3332     1.0  0.44350  0.88034  0.84320  1.0000
  H   H3333     1.0  0.54807  0.69017  0.96850  1.0000
  H   H3334     1.0  0.43678  0.71457  0.95986  1.0000
  H   H3335     1.0  0.58184  0.93676  0.59004  1.0000
  S   S765      1.0  0.42094  0.64216  0.97934  1.0000
  H   H3336     1.0  0.51294  0.67165  0.93468  1.0000
  H   H3337     1.0  0.48685  0.94868  0.65848  1.0000
  S   S766      1.0  0.43577  0.84357  0.88192  1.0000
  H   H3338     1.0  0.46118  0.78127  0.88157  1.0000
  C   C2828     1.0  0.46364  0.88940  0.77636  1.0000
  C   C2829     1.0  0.55513  0.96608  0.60207  1.0000
  H   H3339     1.0  0.43104  0.81502  0.97959  1.0000
  H   H3340     1.0  0.56575  0.90288  0.89829  1.0000
  H   H3341     1.0  0.46822  0.88264  0.74608  1.0000
  C   C2830     1.0  0.46835  0.88775  0.75345  1.0000
  H   H3342     1.0  0.49099  0.60101  0.95994  1.0000
  C   C2831     1.0  0.39568  0.57825  0.97817  1.0000
  C   C2832     1.0  0.45230  0.77804  0.88248  1.0000
  H   H3343     1.0  0.48592  0.97121  0.70854  1.0000
  C   C2833     1.0  0.42894  0.78140  0.88354  1.0000
  C   C2834     1.0  0.43208  0.91695  0.77690  1.0000
  H   H3344     1.0  0.44117  0.85718  0.85424  1.0000
  H   H3345     1.0  0.43753  0.91710  0.54477  1.0000
  H   H3346     1.0  0.39919  0.60915  0.95924  1.0000
  C   C2835     1.0  0.47122  0.76374  0.94984  1.0000
  C   C2836     1.0  0.50226  0.96396  0.74352  1.0000
  C   C2837     1.0  0.52812  0.60703  0.96584  1.0000
  H   H3347     1.0  0.41412  0.97449  0.63076  1.0000
  H   H3348     1.0  0.43747  0.87953  0.57937  1.0000
  C   C2838     1.0  0.40736  0.90518  0.54341  1.0000
  C   C2839     1.0  0.52903  0.96750  0.80522  1.0000
  C   C2840     1.0  0.58225  0.67647  0.89345  1.0000
  S   S767      1.0  0.43027  0.81871  0.95215  1.0000
  H   H3349     1.0  0.49949  0.98308  0.72992  1.0000
  C   C2841     1.0  0.48379  0.93120  0.62328  1.0000
  C   C2842     1.0  0.53423  0.97203  0.79177  1.0000
  H   H3350     1.0  0.42772  0.76950  0.92340  1.0000
  H   H3351     1.0  0.54907  0.89221  0.78549  1.0000
  H   H3352     1.0  0.52952  0.80106  0.94258  1.0000
  H   H3353     1.0  0.56765  0.95134  0.68134  1.0000
  H   H3354     1.0  0.54018  0.87639  0.92366  1.0000
  S   S768      1.0  0.38980  0.92388  0.59138  1.0000
  C   C2843     1.0  0.40095  0.87395  0.85200  1.0000
  C   C2844     1.0  0.45357  0.76431  0.88468  1.0000
  H   H3355     1.0  0.48548  0.61260  0.97061  1.0000
  H   H3356     1.0  0.52334  0.97111  0.82470  1.0000
  H   H3357     1.0  0.51660  0.95641  0.76992  1.0000
  H   H3358     1.0  0.54030  0.87926  0.76207  1.0000
  C   C2845     1.0  0.48673  0.96929  0.80710  1.0000
  C   C2846     1.0  0.48718  0.94708  0.82093  1.0000
  N   N193      1.0  0.46984  0.93856  0.62649  1.0000
  H   H3359     1.0  0.57571  0.55259  0.90428  1.0000
  N   N194      1.0  0.46976  0.60870  0.96461  1.0000
  H   H3360     1.0  0.45966  0.88565  0.78684  1.0000
  C   C2847     1.0  0.46403  0.88252  0.76696  1.0000
  C   C2848     1.0  0.44003  0.97809  0.74575  1.0000
  C   C2849     1.0  0.47014  0.69758  0.97277  1.0000
  H   H3361     1.0  0.48552  0.72502  0.96508  1.0000
  H   H3362     1.0  0.40899  0.58573  0.95981  1.0000
  C   C2850     1.0  0.47964  0.65950  0.95755  1.0000
  C   C2851     1.0  0.50729  0.95638  0.75465  1.0000
  H   H3363     1.0  0.50684  0.94601  0.75823  1.0000
  C   C2852     1.0  0.47985  0.96345  0.69527  1.0000
  C   C2853     1.0  0.43587  0.96735  0.76960  1.0000
  H   H3364     1.0  0.58254  0.95323  0.58942  1.0000
  C   C2854     1.0  0.40095  0.55995  0.96719  1.0000
  C   C2855     1.0  0.39318  0.93170  0.56384  1.0000
  C   C2856     1.0  0.51892  0.96545  0.69249  1.0000
  H   H3365     1.0  0.43453  0.91692  0.74441  1.0000
  N   N195      1.0  0.52967  0.89173  0.78392  1.0000
  C   C2857     1.0  0.53673  0.76771  0.95365  1.0000
  H   H3366     1.0  0.53014  0.91107  0.78563  1.0000
  H   H3367     1.0  0.42932  0.84706  0.94501  1.0000
  C   C2858     1.0  0.45433  0.77723  0.96914  1.0000
  H   H3368     1.0  0.47752  0.75887  0.94198  1.0000
  H   H3369     1.0  0.44735  0.79187  0.95284  1.0000
  C   C2859     1.0  0.56589  0.95376  0.69096  1.0000
  H   H3370     1.0  0.42745  0.66879  0.93752  1.0000
  C   C2860     1.0  0.47871  0.95949  0.61442  1.0000
  H   H3371     1.0  0.42706  0.66100  0.95478  1.0000
  C   C2861     1.0  0.43447  0.91204  0.76542  1.0000
  H   H3372     1.0  0.49075  0.79506  0.93868  1.0000
  H   H3373     1.0  0.52838  0.87579  0.80139  1.0000
  H   H3374     1.0  0.50567  0.76471  0.89034  1.0000
  H   H3375     1.0  0.43767  0.90146  0.76593  1.0000
  H   H3376     1.0  0.53065  0.77618  0.97576  1.0000
  C   C2862     1.0  0.46253  0.77579  0.94613  1.0000
  C   C2863     1.0  0.55671  0.89934  0.90154  1.0000
  H   H3377     1.0  0.44843  0.97841  0.56118  1.0000
  H   H3378     1.0  0.49224  0.79396  0.90782  1.0000
  C   C2864     1.0  0.41395  0.97506  0.61051  1.0000
  N   N196      1.0  0.48123  0.74538  0.96708  1.0000
  H   H3379     1.0  0.41071  0.66505  0.92862  1.0000
  C   C2865     1.0  0.42165  0.62843  0.97334  1.0000
  C   C2866     1.0  0.50250  0.88243  0.77452  1.0000
  H   H3380     1.0  0.42726  0.86298  0.95878  1.0000
  C   C2867     1.0  0.41376  0.73252  0.95833  1.0000
  H   H3381     1.0  0.42175  0.76350  0.88758  1.0000
  C   C2868     1.0  0.46183  0.93300  0.62108  1.0000
  C   C2869     1.0  0.57567  0.88824  0.91792  1.0000
  C   C2870     1.0  0.51378  0.97552  0.75653  1.0000
  C   C2871     1.0  0.46543  0.93589  0.64123  1.0000
  C   C2872     1.0  0.47877  0.62044  0.94129  1.0000
  H   H3382     1.0  0.40841  0.66895  0.97209  1.0000
  H   H3383     1.0  0.53619  0.78791  0.93343  1.0000
  H   H3384     1.0  0.53089  0.72704  0.96542  1.0000
  H   H3385     1.0  0.52663  0.96308  0.69831  1.0000
  H   H3386     1.0  0.54851  0.94706  0.74098  1.0000
  C   C2873     1.0  0.40706  0.88141  0.87216  1.0000
  S   S769      1.0  0.44048  0.68601  0.96593  1.0000
  H   H3387     1.0  0.58152  0.94241  0.56695  1.0000
  H   H3388     1.0  0.54221  0.97035  0.67895  1.0000
  H   H3389     1.0  0.48088  0.73693  0.95100  1.0000
  C   C2874     1.0  0.56368  0.96692  0.69189  1.0000
  C   C2875     1.0  0.43625  0.72465  0.96107  1.0000
  C   C2876     1.0  0.47890  0.73485  0.96207  1.0000
  S   S770      1.0  0.43672  0.96165  0.80428  1.0000
  H   H3390     1.0  0.55000  0.87617  0.93967  1.0000
  H   H3391     1.0  0.53146  0.89045  0.80391  1.0000
  C   C2877     1.0  0.48511  0.95843  0.65190  1.0000
  C   C2878     1.0  0.45021  0.69068  0.97375  1.0000
  H   H3392     1.0  0.40916  0.68543  0.93064  1.0000
  C   C2879     1.0  0.43044  0.82545  0.97496  1.0000
  C   C2880     1.0  0.57029  0.63266  0.89694  1.0000
  H   H3393     1.0  0.47387  0.94517  0.80356  1.0000
  C   C2881     1.0  0.43724  0.97272  0.81337  1.0000
  N   N197      1.0  0.40874  0.67394  0.95098  1.0000
  C   C2882     1.0  0.40365  0.66278  0.95018  1.0000
  H   H3394     1.0  0.51436  0.79249  0.93553  1.0000
  C   C2883     1.0  0.45423  0.96465  0.72939  1.0000
  H   H3395     1.0  0.50734  0.94842  0.79983  1.0000
  C   C2884     1.0  0.55909  0.97306  0.85376  1.0000
  C   C2885     1.0  0.46299  0.76517  0.97302  1.0000
  N   N198      1.0  0.44544  0.97764  0.73150  1.0000
  H   H3396     1.0  0.44605  0.95683  0.75443  1.0000
  H   H3397     1.0  0.48707  0.93659  0.82154  1.0000
  C   C2886     1.0  0.56092  0.78115  0.90494  1.0000
  C   C2887     1.0  0.49568  0.96464  0.64529  1.0000
  H   H3398     1.0  0.54063  0.98060  0.83014  1.0000
  H   H3399     1.0  0.40669  0.69502  0.94248  1.0000
  H   H3400     1.0  0.49640  0.94696  0.82375  1.0000
  H   H3401     1.0  0.42441  0.77832  0.97393  1.0000
  C   C2888     1.0  0.54434  0.88830  0.77983  1.0000
  H   H3402     1.0  0.52410  0.88733  0.90979  1.0000
  H   H3403     1.0  0.46227  0.77994  0.93573  1.0000
  H   H3404     1.0  0.44768  0.78248  0.97660  1.0000
  C   C2889     1.0  0.40054  0.58827  0.96763  1.0000
  S   S771      1.0  0.40186  0.94484  0.60750  1.0000
  N   N199      1.0  0.48648  0.95549  0.80741  1.0000
  H   H3405     1.0  0.52809  0.91043  0.76975  1.0000
  H   H3406     1.0  0.48482  0.92028  0.62716  1.0000
  H   H3407     1.0  0.46418  0.95993  0.65531  1.0000
  C   C2890     1.0  0.56635  0.97074  0.80017  1.0000
  H   H3408     1.0  0.56399  0.97475  0.68290  1.0000
  H   H3409     1.0  0.53170  0.76471  0.89384  1.0000
  H   H3410     1.0  0.39340  0.67969  0.96753  1.0000
  H   H3411     1.0  0.56480  0.65762  0.88821  1.0000
  C   C2891     1.0  0.42953  0.84346  0.95547  1.0000
  C   C2892     1.0  0.49544  0.79008  0.94703  1.0000
  C   C2893     1.0  0.53194  0.73236  0.97213  1.0000
  C   C2894     1.0  0.42228  0.60487  0.97843  1.0000
  H   H3412     1.0  0.47147  0.93945  0.64578  1.0000
  C   C2895     1.0  0.56332  0.94665  0.71496  1.0000
  H   H3413     1.0  0.45291  0.80105  0.88998  1.0000
  H   H3414     1.0  0.49189  0.88342  0.77764  1.0000
  C   C2896     1.0  0.47177  0.75805  0.96343  1.0000
  H   H3415     1.0  0.52843  0.87113  0.75105  1.0000
  H   H3416     1.0  0.43106  0.75187  0.94833  1.0000
  H   H3417     1.0  0.55323  0.95528  0.75069  1.0000
  H   H3418     1.0  0.56572  0.94481  0.74097  1.0000
  H   H3419     1.0  0.39280  0.56953  0.88921  1.0000
  H   H3420     1.0  0.49647  0.78067  0.89300  1.0000
  C   C2897     1.0  0.56991  0.96630  0.81248  1.0000
  H   H3421     1.0  0.41370  0.72279  0.95661  1.0000
  C   C2898     1.0  0.42171  0.89380  0.83002  1.0000
  C   C2899     1.0  0.52540  0.90640  0.78070  1.0000
  H   H3422     1.0  0.46277  0.96202  0.73424  1.0000
  C   C2900     1.0  0.56046  0.96004  0.71632  1.0000
  H   H3423     1.0  0.43589  0.97822  0.68104  1.0000
  H   H3424     1.0  0.57855  0.87242  0.57081  1.0000
  H   H3425     1.0  0.57223  0.92081  0.54319  1.0000
  C   C2901     1.0  0.57497  0.97433  0.81717  1.0000
  H   H3426     1.0  0.53652  0.96558  0.78487  1.0000
  H   H3427     1.0  0.42636  0.81741  0.88992  1.0000
  H   H3428     1.0  0.46404  0.93576  0.60998  1.0000
  H   H3429     1.0  0.43992  0.73033  0.95089  1.0000
  H   H3430     1.0  0.48688  0.86363  0.96242  1.0000
  H   H3431     1.0  0.46884  0.65175  0.92363  1.0000
  H   H3432     1.0  0.56245  0.96441  0.79662  1.0000
  C   C2902     1.0  0.57973  0.54976  0.96663  1.0000
  H   H3433     1.0  0.58204  0.68688  0.89230  1.0000
  H   H3434     1.0  0.50434  0.87318  0.75846  1.0000
  H   H3435     1.0  0.43796  0.97960  0.71420  1.0000
  H   H3436     1.0  0.55805  0.78554  0.89548  1.0000
  H   H3437     1.0  0.54435  0.85879  0.97612  1.0000
  N   N200      1.0  0.58521  0.55062  0.95215  1.0000
  C   C2903     1.0  0.46309  0.69215  0.96722  1.0000
  H   H3438     1.0  0.54942  0.91323  0.88490  1.0000
  H   H3439     1.0  0.46377  0.92195  0.62405  1.0000
  H   H3440     1.0  0.48874  0.85129  0.97713  1.0000
  C   C2904     1.0  0.55058  0.60527  0.96725  1.0000
  C   C2905     1.0  0.46799  0.95312  0.62106  1.0000
  H   H3441     1.0  0.50170  0.97831  0.67708  1.0000
  C   C2906     1.0  0.58132  0.55845  0.90628  1.0000
  H   H3442     1.0  0.43679  0.95844  0.77749  1.0000
  C   C2907     1.0  0.50949  0.87655  0.76381  1.0000
  H   H3443     1.0  0.57625  0.86248  0.92669  1.0000
  H   H3444     1.0  0.45650  0.83598  0.96640  1.0000
  H   H3445     1.0  0.41202  0.89833  0.85764  1.0000
  H   H3446     1.0  0.54278  0.78473  0.96506  1.0000
  H   H3447     1.0  0.51915  0.95602  0.68999  1.0000
  C   C2908     1.0  0.48781  0.78558  0.95949  1.0000
  H   H3448     1.0  0.54110  0.97585  0.74100  1.0000
  C   C2909     1.0  0.47295  0.64493  0.97884  1.0000
  H   H3449     1.0  0.57736  0.96330  0.72844  1.0000
  H   H3450     1.0  0.58551  0.53006  0.95392  1.0000
  H   H3451     1.0  0.38977  0.90931  0.83995  1.0000
  N   N201      1.0  0.56287  0.68457  0.98027  1.0000
  N   N202      1.0  0.58149  0.63501  0.90076  1.0000
  H   H3452     1.0  0.53722  0.98127  0.66426  1.0000
  C   C2910     1.0  0.46403  0.81641  0.97641  1.0000
  C   C2911     1.0  0.49372  0.97746  0.63668  1.0000
  H   H3453     1.0  0.39547  0.65609  0.97157  1.0000
  C   C2912     1.0  0.52338  0.61138  0.97782  1.0000
  H   H3454     1.0  0.56478  0.87801  0.94223  1.0000
  C   C2913     1.0  0.54978  0.69211  0.97749  1.0000
  C   C2914     1.0  0.40263  0.89024  0.82554  1.0000
  H   H3455     1.0  0.40415  0.89699  0.81543  1.0000
  H   H3456     1.0  0.50511  0.97095  0.79183  1.0000
  H   H3457     1.0  0.46040  0.98191  0.63983  1.0000
  H   H3458     1.0  0.54867  0.70302  0.97561  1.0000
  H   H3459     1.0  0.55275  0.89261  0.93683  1.0000
  H   H3460     1.0  0.39854  0.87040  0.84469  1.0000
  H   H3461     1.0  0.51161  0.77217  0.97717  1.0000
  C   C2915     1.0  0.55986  0.97756  0.59979  1.0000
  H   H3462     1.0  0.45380  0.85520  0.97724  1.0000
  C   C2916     1.0  0.41366  0.98305  0.59773  1.0000
  C   C2917     1.0  0.57295  0.67292  0.88917  1.0000
  C   C2918     1.0  0.57334  0.68946  0.96914  1.0000
  H   H3463     1.0  0.38772  0.55458  0.93819  1.0000
  H   H3464     1.0  0.57282  0.70019  0.96799  1.0000
  H   H3465     1.0  0.57253  0.68834  0.95937  1.0000
  H   H3466     1.0  0.39860  0.90241  0.54297  1.0000
  H   H3467     1.0  0.55934  0.98039  0.70457  1.0000
  C   C2919     1.0  0.47019  0.97717  0.64157  1.0000
  H   H3468     1.0  0.46846  0.97253  0.82223  1.0000
  C   C2920     1.0  0.58224  0.87775  0.56080  1.0000
  H   H3469     1.0  0.57738  0.97025  0.82684  1.0000
  H   H3470     1.0  0.58335  0.68403  0.97081  1.0000
  H   H3471     1.0  0.48792  0.77520  0.97984  1.0000
  H   H3472     1.0  0.58263  0.95913  0.56533  1.0000
  C   C2921     1.0  0.54582  0.61036  0.97880  1.0000
  C   C2922     1.0  0.40172  0.81959  0.98117  1.0000
  H   H3473     1.0  0.58255  0.88310  0.92476  1.0000
  C   C2923     1.0  0.42903  0.97949  0.77287  1.0000
  C   C2924     1.0  0.47026  0.97973  0.67785  1.0000
  C   C2925     1.0  0.56400  0.67043  0.98035  1.0000
  C   C2926     1.0  0.58040  0.62916  0.91527  1.0000
  C   C2927     1.0  0.47655  0.97673  0.81553  1.0000
  H   H3474     1.0  0.42476  0.97999  0.78323  1.0000
  C   C2928     1.0  0.58176  0.64926  0.89789  1.0000
  C   C2929     1.0  0.38894  0.55776  0.92747  1.0000
  C   C2930     1.0  0.55256  0.85196  0.98003  1.0000
  H   H3475     1.0  0.51112  0.73665  0.98113  1.0000
  H   H3476     1.0  0.46561  0.98209  0.66949  1.0000
  H   H3477     1.0  0.39037  0.56094  0.96735  1.0000
  H   H3478     1.0  0.38849  0.63744  0.96948  1.0000
  C   C2931     1.0  0.38961  0.93304  0.55177  1.0000
  H   H3479     1.0  0.56355  0.98261  0.58970  1.0000
  C   C2932     1.0  0.43435  0.98023  0.72488  1.0000
  S   S772      1.0  0.52081  0.98234  0.76522  1.0000
  C   C2933     1.0  0.55929  0.98284  0.61058  1.0000
  H   H3480     1.0  0.55843  0.80618  0.98090  1.0000
  C   C2934     1.0  0.50911  0.98302  0.74513  1.0000
  H   H3481     1.0  0.54428  0.98289  0.72362  1.0000
  H   H3482     1.0  0.44097  0.98318  0.65699  1.0000
  C   C2935     1.0  0.48063  0.98354  0.63505  1.0000
  C   C2936     1.0  0.56773  0.98332  0.79253  1.0000
  H   H3483     1.0  0.59787  0.00042  0.41354  1.0000
  H   H3484     1.0  0.61350  0.98467  0.44762  1.0000
  H   H3485     1.0  0.60035  0.04414  0.36847  1.0000
  C   C2937     1.0  0.61873  0.36114  0.98323  1.0000
  H   H3486     1.0  0.71829  0.98604  0.45669  1.0000
  H   H3487     1.0  0.59021  0.24353  0.00419  1.0000
  H   H3488     1.0  0.67756  0.04685  0.45123  1.0000
  H   H3489     1.0  0.68526  0.03193  0.46122  1.0000
  H   H3490     1.0  0.70796  0.00259  0.47761  1.0000
  Fe  Fe385     1.0  0.62239  0.02044  0.44442  1.0000
  S   S773      1.0  0.61340  0.04180  0.43716  1.0000
  S   S774      1.0  0.62146  0.00946  0.46583  1.0000
  Fe  Fe386     1.0  0.63570  0.01664  0.41621  1.0000
  S   S775      1.0  0.62824  0.03788  0.40654  1.0000
  S   S776      1.0  0.64813  0.00069  0.40544  1.0000
  Fe  Fe387     1.0  0.63345  0.04238  0.42359  1.0000
  S   S777      1.0  0.64435  0.05698  0.42465  1.0000
  Fe  Fe388     1.0  0.60897  0.03511  0.42098  1.0000
  H   H3491     1.0  0.76120  0.42892  0.04744  1.0000
  S   S778      1.0  0.64260  0.02129  0.43182  1.0000
  S   S779      1.0  0.61629  0.01351  0.42961  1.0000
  H   H3492     1.0  0.66943  0.00119  0.44280  1.0000
  C   C2938     1.0  0.69395  0.00108  0.37932  1.0000
  C   C2939     1.0  0.59251  0.04348  0.37735  1.0000
  C   C2940     1.0  0.76657  0.44589  0.03250  1.0000
  Fe  Fe389     1.0  0.72283  0.03480  0.44123  1.0000
  S   S780      1.0  0.72145  0.05448  0.42668  1.0000
  S   S781      1.0  0.71417  0.03174  0.46330  1.0000
  Fe  Fe390     1.0  0.74080  0.01957  0.42053  1.0000
  S   S782      1.0  0.74150  0.03789  0.40420  1.0000
  S   S783      1.0  0.75184  0.99920  0.41744  1.0000
  Fe  Fe391     1.0  0.74340  0.04724  0.41972  1.0000
  S   S784      1.0  0.75767  0.05944  0.41881  1.0000
  Fe  Fe392     1.0  0.71958  0.04334  0.41255  1.0000
  S   S785      1.0  0.70563  0.04796  0.39886  1.0000
  S   S786      1.0  0.74480  0.02828  0.43522  1.0000
  S   S787      1.0  0.71880  0.02436  0.42788  1.0000
  C   C2941     1.0  0.65652  0.99994  0.47105  1.0000
  C   C2942     1.0  0.62756  0.47015  0.02046  1.0000
  C   C2943     1.0  0.60695  0.00556  0.34204  1.0000
  C   C2944     1.0  0.58875  0.39804  0.01976  1.0000
  H   H3493     1.0  0.76342  0.47334  0.99929  1.0000
  H   H3494     1.0  0.62357  0.01495  0.39745  1.0000
  H   H3495     1.0  0.64071  0.47132  0.03179  1.0000
  C   C2945     1.0  0.65662  0.01335  0.46532  1.0000
  H   H3496     1.0  0.78366  0.00882  0.39841  1.0000
  S   S788      1.0  0.74311  0.48198  0.05127  1.0000
  C   C2946     1.0  0.74323  0.04517  0.46902  1.0000
  H   H3497     1.0  0.76856  0.03253  0.45579  1.0000
  Fe  Fe393     1.0  0.63412  0.42415  0.99647  1.0000
  S   S789      1.0  0.63017  0.40841  0.01496  1.0000
  C   C2947     1.0  0.60597  0.02890  0.34182  1.0000
  Fe  Fe394     1.0  0.61780  0.44695  0.00969  1.0000
  S   S790      1.0  0.61229  0.43313  0.02932  1.0000
  S   S791      1.0  0.61095  0.46917  0.00549  1.0000
  Fe  Fe395     1.0  0.63372  0.42260  0.02486  1.0000
  S   S792      1.0  0.64792  0.41751  0.03828  1.0000
  Fe  Fe396     1.0  0.60925  0.42044  0.01724  1.0000
  H   H3498     1.0  0.61583  0.03790  0.46504  1.0000
  S   S793      1.0  0.63928  0.43738  0.00606  1.0000
  S   S794      1.0  0.61313  0.43531  0.99793  1.0000
  H   H3499     1.0  0.78138  0.42327  0.05628  1.0000
  C   C2948     1.0  0.66061  0.47967  0.99231  1.0000
  H   H3500     1.0  0.77685  0.04024  0.43968  1.0000
  Fe  Fe397     1.0  0.72198  0.42032  0.00639  1.0000
  S   S795      1.0  0.72301  0.44030  0.99308  1.0000
  S   S796      1.0  0.70641  0.41214  0.00298  1.0000
  Fe  Fe398     1.0  0.74650  0.41925  0.01610  1.0000
  S   S797      1.0  0.74927  0.43918  0.00351  1.0000
  S   S798      1.0  0.76044  0.40641  0.02919  1.0000
  Fe  Fe399     1.0  0.72723  0.44502  0.01025  1.0000
  S   S799      1.0  0.71675  0.46474  0.01501  1.0000
  Fe  Fe400     1.0  0.74477  0.43237  0.98767  1.0000
  H   H3501     1.0  0.68029  0.47618  0.01239  1.0000
  S   S800      1.0  0.72456  0.42563  0.02423  1.0000
  S   S801      1.0  0.74366  0.41185  0.99966  1.0000
  H   H3502     1.0  0.73711  0.45659  0.05311  1.0000
  C   C2949     1.0  0.72768  0.48136  0.02129  1.0000
  H   H3503     1.0  0.77790  0.98698  0.40335  1.0000
  C   C2950     1.0  0.62306  0.01851  0.47652  1.0000
  C   C2951     1.0  0.62027  0.98806  0.38883  1.0000
  C   C2952     1.0  0.65432  0.04127  0.45525  1.0000
  C   C2953     1.0  0.59536  0.04198  0.38981  1.0000
  C   C2954     1.0  0.72504  0.46871  0.02475  1.0000
  C   C2955     1.0  0.72879  0.45959  0.03602  1.0000
  C   C2956     1.0  0.73456  0.46348  0.04419  1.0000
  H   H3504     1.0  0.78153  0.06455  0.42093  1.0000
  H   H3505     1.0  0.67360  0.01357  0.42832  1.0000
  H   H3506     1.0  0.69416  0.01154  0.37561  1.0000
  H   H3507     1.0  0.72687  0.44971  0.03867  1.0000
  C   C2957     1.0  0.67738  0.03613  0.45540  1.0000
  C   C2958     1.0  0.77653  0.03805  0.45052  1.0000
  H   H3508     1.0  0.59997  0.33990  0.98452  1.0000
  H   H3509     1.0  0.62916  0.01026  0.34422  1.0000
  H   H3510     1.0  0.78580  0.47173  0.99472  1.0000
  C   C2959     1.0  0.69512  0.01016  0.40792  1.0000
  C   C2960     1.0  0.63788  0.99629  0.39803  1.0000
  C   C2961     1.0  0.60492  0.98740  0.32824  1.0000
  H   H3511     1.0  0.78032  0.02420  0.47470  1.0000
  H   H3512     1.0  0.58884  0.41815  0.04622  1.0000
  H   H3513     1.0  0.59815  0.02039  0.36828  1.0000
  H   H3514     1.0  0.73681  0.00720  0.45765  1.0000
  C   C2962     1.0  0.59260  0.13069  0.98763  1.0000
  H   H3515     1.0  0.61643  0.38873  0.05061  1.0000
  H   H3516     1.0  0.64503  0.37287  0.99347  1.0000
  H   H3517     1.0  0.68405  0.00739  0.44012  1.0000
  H   H3518     1.0  0.60821  0.00780  0.38893  1.0000
  C   C2963     1.0  0.75667  0.00575  0.46832  1.0000
  H   H3519     1.0  0.75403  0.46755  0.01531  1.0000
  C   C2964     1.0  0.59988  0.00980  0.33165  1.0000
  C   C2965     1.0  0.62662  0.36648  0.00010  1.0000
  C   C2966     1.0  0.74345  0.98758  0.42916  1.0000
  C   C2967     1.0  0.59828  0.38653  0.02298  1.0000
  N   N203      1.0  0.60786  0.01487  0.34950  1.0000
  H   H3520     1.0  0.60721  0.38724  0.02514  1.0000
  C   C2968     1.0  0.66422  0.41636  0.02857  1.0000
  C   C2969     1.0  0.66716  0.41395  0.01576  1.0000
  C   C2970     1.0  0.68010  0.41288  0.00803  1.0000
  C   C2971     1.0  0.69022  0.41436  0.01292  1.0000
  C   C2972     1.0  0.68729  0.41710  0.02561  1.0000
  C   C2973     1.0  0.67431  0.41795  0.03349  1.0000
  H   H3521     1.0  0.65955  0.41249  0.01194  1.0000
  H   H3522     1.0  0.68230  0.41070  0.99830  1.0000
  H   H3523     1.0  0.69507  0.41814  0.02951  1.0000
  H   H3524     1.0  0.67211  0.41980  0.04340  1.0000
  C   C2974     1.0  0.77616  0.45381  0.02637  1.0000
  H   H3525     1.0  0.65661  0.03739  0.44605  1.0000
  H   H3526     1.0  0.59841  0.12075  0.99170  1.0000
  H   H3527     1.0  0.78010  0.47848  0.02295  1.0000
  H   H3528     1.0  0.60312  0.23722  0.01359  1.0000
  H   H3529     1.0  0.60423  0.37283  0.06294  1.0000
  N   N204      1.0  0.68591  0.99381  0.42795  1.0000
  H   H3530     1.0  0.58749  0.01757  0.35974  1.0000
  H   H3531     1.0  0.77523  0.44947  0.98420  1.0000
  H   H3532     1.0  0.60867  0.36010  0.00409  1.0000
  H   H3533     1.0  0.61698  0.98750  0.35410  1.0000
  H   H3534     1.0  0.66894  0.98683  0.42811  1.0000
  H   H3535     1.0  0.62190  0.40992  0.99101  1.0000
  H   H3536     1.0  0.62220  0.01909  0.35751  1.0000
  C   C2975     1.0  0.72109  0.99668  0.40875  1.0000
  C   C2976     1.0  0.70568  0.01507  0.39878  1.0000
  C   C2977     1.0  0.59546  0.36638  0.98283  1.0000
  H   H3537     1.0  0.59116  0.46822  0.98431  1.0000
  H   H3538     1.0  0.65398  0.05212  0.45180  1.0000
  C   C2978     1.0  0.66438  0.01999  0.46886  1.0000
  H   H3539     1.0  0.60375  0.34311  0.99834  1.0000
  H   H3540     1.0  0.62224  0.00208  0.36093  1.0000
  C   C2979     1.0  0.59996  0.39632  0.07253  1.0000
  C   C2980     1.0  0.70577  0.99146  0.37933  1.0000
  C   C2981     1.0  0.61827  0.47731  0.01274  1.0000
  H   H3541     1.0  0.60300  0.36509  0.02740  1.0000
  H   H3542     1.0  0.59819  0.00382  0.36799  1.0000
  H   H3543     1.0  0.65947  0.05209  0.47142  1.0000
  C   C2982     1.0  0.59749  0.01411  0.36193  1.0000
  H   H3544     1.0  0.65006  0.01841  0.45860  1.0000
  S   S802      1.0  0.58831  0.03996  0.41715  1.0000
  C   C2983     1.0  0.73668  0.47641  0.04095  1.0000
  C   C2984     1.0  0.73362  0.99156  0.43981  1.0000
  H   H3545     1.0  0.67268  0.00478  0.38417  1.0000
  H   H3546     1.0  0.66317  0.47537  0.01800  1.0000
  H   H3547     1.0  0.73182  0.00147  0.44119  1.0000
  H   H3548     1.0  0.75761  0.44763  0.02908  1.0000
  C   C2985     1.0  0.61227  0.99169  0.34571  1.0000
  H   H3549     1.0  0.59222  0.35788  0.06031  1.0000
  C   C2986     1.0  0.63362  0.47691  0.02573  1.0000
  H   H3550     1.0  0.59568  0.03307  0.34037  1.0000
  C   C2987     1.0  0.59900  0.00083  0.32483  1.0000
  C   C2988     1.0  0.59052  0.22085  0.03355  1.0000
  C   C2989     1.0  0.78203  0.41870  0.01954  1.0000
  H   H3551     1.0  0.76283  0.47856  0.02717  1.0000
  C   C2990     1.0  0.76843  0.43511  0.04325  1.0000
  H   H3552     1.0  0.59480  0.01999  0.32863  1.0000
  H   H3553     1.0  0.71285  0.06739  0.46751  1.0000
  C   C2991     1.0  0.68186  0.99732  0.38412  1.0000
  H   H3554     1.0  0.60531  0.04146  0.39047  1.0000
  H   H3555     1.0  0.77339  0.04790  0.45331  1.0000
  C   C2992     1.0  0.66147  0.05368  0.41792  1.0000
  C   C2993     1.0  0.66984  0.05782  0.42310  1.0000
  C   C2994     1.0  0.68352  0.05546  0.41774  1.0000
  C   C2995     1.0  0.68877  0.04964  0.40668  1.0000
  C   C2996     1.0  0.68036  0.04566  0.40139  1.0000
  C   C2997     1.0  0.66680  0.04732  0.40725  1.0000
  H   H3556     1.0  0.66572  0.06310  0.43108  1.0000
  H   H3557     1.0  0.68991  0.05880  0.42168  1.0000
  H   H3558     1.0  0.68428  0.04152  0.39261  1.0000
  H   H3559     1.0  0.66035  0.04432  0.40307  1.0000
  N   N205      1.0  0.59735  0.40010  0.05891  1.0000
  C   C2998     1.0  0.67749  0.99060  0.42100  1.0000
  H   H3560     1.0  0.64998  0.99530  0.46871  1.0000
  C   C2999     1.0  0.67238  0.01223  0.47802  1.0000
  C   C3000     1.0  0.67792  0.00445  0.43509  1.0000
  C   C3001     1.0  0.78422  0.05725  0.41487  1.0000
  H   H3561     1.0  0.60509  0.40328  0.07404  1.0000
  C   C3002     1.0  0.73399  0.04315  0.46324  1.0000
  C   C3003     1.0  0.72521  0.03496  0.47073  1.0000
  S   S803      1.0  0.59012  0.41384  0.02062  1.0000
  H   H3562     1.0  0.61612  0.40569  0.04955  1.0000
  H   H3563     1.0  0.74973  0.05178  0.46325  1.0000
  H   H3564     1.0  0.73351  0.04815  0.45303  1.0000
  H   H3565     1.0  0.76715  0.00196  0.46928  1.0000
  C   C3004     1.0  0.66396  0.99282  0.48053  1.0000
  H   H3566     1.0  0.60748  0.03567  0.34719  1.0000
  C   C3005     1.0  0.77430  0.05299  0.41217  1.0000
  C   C3006     1.0  0.62094  0.01138  0.35311  1.0000
  H   H3567     1.0  0.77062  0.47358  0.05577  1.0000
  C   C3007     1.0  0.59442  0.23503  0.01170  1.0000
  C   C3008     1.0  0.71863  0.00842  0.39929  1.0000
  H   H3568     1.0  0.67864  0.01654  0.48109  1.0000
  C   C3009     1.0  0.59589  0.37397  0.02420  1.0000
  H   H3569     1.0  0.70386  0.02430  0.39146  1.0000
  H   H3570     1.0  0.75624  0.01308  0.45869  1.0000
  H   H3571     1.0  0.59848  0.98871  0.42894  1.0000
  H   H3572     1.0  0.59519  0.21211  0.02890  1.0000
  H   H3573     1.0  0.65541  0.45820  0.01243  1.0000
  N   N206      1.0  0.67534  0.46152  0.00567  1.0000
  C   C3010     1.0  0.66584  0.45265  0.01049  1.0000
  C   C3011     1.0  0.68886  0.45290  0.00466  1.0000
  C   C3012     1.0  0.67340  0.46929  0.01582  1.0000
  C   C3013     1.0  0.67306  0.47074  0.99291  1.0000
  H   H3574     1.0  0.63653  0.46552  0.98483  1.0000
  C   C3014     1.0  0.77929  0.47482  0.05865  1.0000
  H   H3575     1.0  0.71489  0.99489  0.37543  1.0000
  H   H3576     1.0  0.61289  0.02989  0.33187  1.0000
  H   H3577     1.0  0.64180  0.98771  0.44194  1.0000
  N   N207      1.0  0.77471  0.46508  0.01472  1.0000
  H   H3578     1.0  0.66731  0.44553  0.02007  1.0000
  H   H3579     1.0  0.63303  0.98651  0.43048  1.0000
  H   H3580     1.0  0.69097  0.44639  0.99750  1.0000
  H   H3581     1.0  0.69022  0.44606  0.01441  1.0000
  H   H3582     1.0  0.69656  0.45888  0.00169  1.0000
  H   H3583     1.0  0.59355  0.00436  0.31691  1.0000
  H   H3584     1.0  0.59827  0.22338  0.03680  1.0000
  H   H3585     1.0  0.67527  0.46270  0.02551  1.0000
  H   H3586     1.0  0.73075  0.00617  0.47514  1.0000
  N   N208      1.0  0.66417  0.03436  0.46363  1.0000
  C   C3015     1.0  0.77779  0.04365  0.40425  1.0000
  H   H3587     1.0  0.73165  0.99251  0.46830  1.0000
  C   C3016     1.0  0.76387  0.46543  0.00853  1.0000
  C   C3017     1.0  0.59484  0.37715  0.06011  1.0000
  H   H3588     1.0  0.63000  0.45940  0.02246  1.0000
  H   H3589     1.0  0.65262  0.47991  0.00106  1.0000
  C   C3018     1.0  0.62609  0.00509  0.39550  1.0000
  H   H3590     1.0  0.72678  0.01251  0.39247  1.0000
  C   C3019     1.0  0.66083  0.04110  0.47490  1.0000
  C   C3020     1.0  0.62564  0.40671  0.98172  1.0000
  H   H3591     1.0  0.61865  0.05010  0.48030  1.0000
  H   H3592     1.0  0.73122  0.99155  0.40898  1.0000
  H   H3593     1.0  0.77017  0.04044  0.40201  1.0000
  H   H3594     1.0  0.68526  0.01580  0.40715  1.0000
  C   C3021     1.0  0.77187  0.47772  0.01904  1.0000
  C   C3022     1.0  0.61017  0.39894  0.04907  1.0000
  H   H3595     1.0  0.59056  0.39637  0.08025  1.0000
  C   C3023     1.0  0.61742  0.00106  0.39061  1.0000
  C   C3024     1.0  0.77663  0.40795  0.02791  1.0000
  C   C3025     1.0  0.58980  0.39113  0.05758  1.0000
  C   C3026     1.0  0.71064  0.99175  0.41810  1.0000
  H   H3596     1.0  0.66698  0.44663  0.00314  1.0000
  H   H3597     1.0  0.59172  0.36581  0.99373  1.0000
  H   H3598     1.0  0.61690  0.33633  0.98584  1.0000
  H   H3599     1.0  0.60645  0.38627  0.07460  1.0000
  H   H3600     1.0  0.77855  0.41890  0.98314  1.0000
  H   H3601     1.0  0.77074  0.99905  0.44678  1.0000
  H   H3602     1.0  0.76517  0.45587  0.00576  1.0000
  H   H3603     1.0  0.60854  0.40154  0.03875  1.0000
  H   H3604     1.0  0.58747  0.98671  0.36249  1.0000
  C   C3027     1.0  0.60723  0.34352  0.98743  1.0000
  N   N209      1.0  0.75040  0.99464  0.46964  1.0000
  C   C3028     1.0  0.63790  0.36936  0.99072  1.0000
  C   C3029     1.0  0.69727  0.99846  0.41803  1.0000
  H   H3605     1.0  0.68027  0.03127  0.44679  1.0000
  C   C3030     1.0  0.59351  0.99209  0.42039  1.0000
  C   C3031     1.0  0.73681  0.00035  0.46758  1.0000
  C   C3032     1.0  0.59041  0.41434  0.05660  1.0000
  C   C3033     1.0  0.75767  0.98605  0.46004  1.0000
  H   H3606     1.0  0.59075  0.25765  0.01683  1.0000
  H   H3607     1.0  0.62505  0.36766  0.01020  1.0000
  H   H3608     1.0  0.59623  0.42081  0.05787  1.0000
  H   H3609     1.0  0.75153  0.01147  0.47619  1.0000
  H   H3610     1.0  0.64413  0.04036  0.46085  1.0000
  C   C3034     1.0  0.61979  0.03244  0.47372  1.0000
  C   C3035     1.0  0.61724  0.36230  0.99648  1.0000
  H   H3611     1.0  0.78481  0.03984  0.47066  1.0000
  H   H3612     1.0  0.77616  0.42656  0.01342  1.0000
  H   H3613     1.0  0.78023  0.38952  0.04228  1.0000
  C   C3036     1.0  0.58805  0.36849  0.05866  1.0000
  H   H3614     1.0  0.60824  0.39966  0.98364  1.0000
  H   H3615     1.0  0.59823  0.22632  0.00692  1.0000
  C   C3037     1.0  0.77979  0.43191  0.04825  1.0000
  H   H3616     1.0  0.69357  0.05702  0.47645  1.0000
  C   C3038     1.0  0.70947  0.06429  0.47822  1.0000
  H   H3617     1.0  0.67328  0.99938  0.41381  1.0000
  H   H3618     1.0  0.77960  0.46827  0.06873  1.0000
  H   H3619     1.0  0.58951  0.13625  0.99576  1.0000
  C   C3039     1.0  0.78429  0.39785  0.03583  1.0000
  H   H3620     1.0  0.62133  0.98605  0.45960  1.0000
  C   C3040     1.0  0.76788  0.98970  0.44895  1.0000
  H   H3621     1.0  0.66858  0.03784  0.48081  1.0000
  C   C3041     1.0  0.68153  0.98392  0.38887  1.0000
  H   H3622     1.0  0.78211  0.98441  0.43155  1.0000
  H   H3623     1.0  0.59634  0.98380  0.41510  1.0000
  Fe  Fe401     1.0  0.78118  0.00772  0.52395  1.0000
  C   C3042     1.0  0.59897  0.45176  0.95882  1.0000
  H   H3624     1.0  0.59018  0.18841  0.86671  1.0000
  Fe  Fe402     1.0  0.75538  0.99970  0.52635  1.0000
  H   H3625     1.0  0.59203  0.99600  0.82898  1.0000
  N   N210      1.0  0.60839  0.35710  0.97962  1.0000
  C   C3043     1.0  0.59707  0.47707  0.96350  1.0000
  H   H3626     1.0  0.67741  0.99343  0.49159  1.0000
  S   S804      1.0  0.75989  0.01905  0.52591  1.0000
  H   H3627     1.0  0.71289  0.42647  0.95385  1.0000
  C   C3044     1.0  0.68045  0.48033  0.96905  1.0000
  H   H3628     1.0  0.71147  0.02909  0.51422  1.0000
  H   H3629     1.0  0.76185  0.47098  0.93054  1.0000
  H   H3630     1.0  0.59024  0.06626  0.61766  1.0000
  C   C3045     1.0  0.72433  0.04908  0.51839  1.0000
  C   C3046     1.0  0.74951  0.98686  0.48359  1.0000
  C   C3047     1.0  0.59663  0.00637  0.63977  1.0000
  H   H3631     1.0  0.73086  0.04240  0.51175  1.0000
  H   H3632     1.0  0.64919  0.42217  0.87319  1.0000
  H   H3633     1.0  0.61463  0.03067  0.55794  1.0000
  H   H3634     1.0  0.69741  0.05195  0.51625  1.0000
  C   C3048     1.0  0.63444  0.47231  0.97533  1.0000
  H   H3635     1.0  0.59032  0.17555  0.91167  1.0000
  C   C3049     1.0  0.67379  0.44739  0.97050  1.0000
  C   C3050     1.0  0.63928  0.44146  0.87724  1.0000
  N   N211      1.0  0.58851  0.04687  0.61715  1.0000
  H   H3636     1.0  0.59934  0.13593  0.97918  1.0000
  H   H3637     1.0  0.76955  0.47251  0.86635  1.0000
  Fe  Fe403     1.0  0.61852  0.39786  0.93622  1.0000
  S   S805      1.0  0.63101  0.38266  0.92471  1.0000
  S   S806      1.0  0.61136  0.39344  0.95839  1.0000
  Fe  Fe404     1.0  0.61790  0.42034  0.91191  1.0000
  S   S807      1.0  0.63011  0.40695  0.89787  1.0000
  S   S808      1.0  0.61034  0.44272  0.90757  1.0000
  Fe  Fe405     1.0  0.61744  0.39230  0.91048  1.0000
  S   S809      1.0  0.61168  0.37726  0.90306  1.0000
  Fe  Fe406     1.0  0.64260  0.39826  0.91320  1.0000
  S   S810      1.0  0.66493  0.39299  0.90934  1.0000
  S   S811      1.0  0.60407  0.40658  0.92300  1.0000
  S   S812      1.0  0.63126  0.41259  0.92620  1.0000
  C   C3051     1.0  0.58762  0.16920  0.86705  1.0000
  C   C3052     1.0  0.74474  0.40293  0.94778  1.0000
  C   C3053     1.0  0.69434  0.05418  0.49695  1.0000
  C   C3054     1.0  0.64234  0.48056  0.87558  1.0000
  C   C3055     1.0  0.58784  0.98940  0.55485  1.0000
  H   H3638     1.0  0.58766  0.36424  0.97933  1.0000
  C   C3056     1.0  0.62675  0.03237  0.49353  1.0000
  H   H3639     1.0  0.72796  0.40937  0.93855  1.0000
  H   H3640     1.0  0.60880  0.00145  0.62138  1.0000
  H   H3641     1.0  0.60316  0.35409  0.96276  1.0000
  C   C3057     1.0  0.68297  0.47137  0.98087  1.0000
  Fe  Fe407     1.0  0.71147  0.44258  0.89243  1.0000
  S   S813      1.0  0.70979  0.46217  0.89711  1.0000
  S   S814      1.0  0.69231  0.44224  0.88800  1.0000
  Fe  Fe408     1.0  0.73020  0.46157  0.88457  1.0000
  H   H3642     1.0  0.59019  0.35173  0.85465  1.0000
  Fe  Fe409     1.0  0.71973  0.44987  0.91357  1.0000
  H   H3643     1.0  0.78568  0.46799  0.85579  1.0000
  H   H3644     1.0  0.68985  0.00194  0.54367  1.0000
  H   H3645     1.0  0.76143  0.45778  0.94508  1.0000
  C   C3058     1.0  0.76534  0.46687  0.94004  1.0000
  S   S815      1.0  0.75597  0.43447  0.96637  1.0000
  C   C3059     1.0  0.75850  0.39713  0.94644  1.0000
  H   H3646     1.0  0.74390  0.99311  0.49095  1.0000
  C   C3060     1.0  0.71640  0.06560  0.48687  1.0000
  C   C3061     1.0  0.60498  0.99978  0.55417  1.0000
  C   C3062     1.0  0.62305  0.47304  0.91224  1.0000
  C   C3063     1.0  0.77605  0.40276  0.95233  1.0000
  C   C3064     1.0  0.73522  0.44049  0.93841  1.0000
  H   H3647     1.0  0.59331  0.04312  0.59736  1.0000
  H   H3648     1.0  0.58937  0.17094  0.85628  1.0000
  C   C3065     1.0  0.59502  0.31535  0.88625  1.0000
  H   H3649     1.0  0.75334  0.42791  0.94308  1.0000
  H   H3650     1.0  0.61266  0.99314  0.54812  1.0000
  H   H3651     1.0  0.70192  0.06604  0.52604  1.0000
  C   C3066     1.0  0.73343  0.45139  0.95986  1.0000
  C   C3067     1.0  0.66383  0.44824  0.86648  1.0000
  H   H3652     1.0  0.68593  0.04949  0.50086  1.0000
  S   S816      1.0  0.75830  0.00289  0.50421  1.0000
  C   C3068     1.0  0.62024  0.45205  0.90996  1.0000
  C   C3069     1.0  0.63332  0.44631  0.91099  1.0000
  C   C3070     1.0  0.64125  0.45385  0.91252  1.0000
  S   S817      1.0  0.64624  0.41856  0.97746  1.0000
  H   H3653     1.0  0.63522  0.44721  0.97609  1.0000
  C   C3071     1.0  0.61513  0.46547  0.91055  1.0000
  H   H3654     1.0  0.63750  0.43620  0.91002  1.0000
  H   H3655     1.0  0.65148  0.44937  0.91286  1.0000
  H   H3656     1.0  0.75667  0.42756  0.91625  1.0000
  H   H3657     1.0  0.60504  0.47005  0.90962  1.0000
  C   C3072     1.0  0.59597  0.37314  0.90855  1.0000
  C   C3073     1.0  0.59514  0.35997  0.90998  1.0000
  H   H3658     1.0  0.63817  0.44856  0.95847  1.0000
  H   H3659     1.0  0.64859  0.37037  0.97038  1.0000
  H   H3660     1.0  0.73291  0.45591  0.96788  1.0000
  H   H3661     1.0  0.59120  0.11026  0.97904  1.0000
  H   H3662     1.0  0.60411  0.35233  0.90893  1.0000
  H   H3663     1.0  0.63062  0.00084  0.49017  1.0000
  C   C3074     1.0  0.72434  0.45050  0.94195  1.0000
  C   C3075     1.0  0.76536  0.39333  0.93420  1.0000
  C   C3076     1.0  0.67272  0.40652  0.90330  1.0000
  C   C3077     1.0  0.68638  0.40451  0.90215  1.0000
  C   C3078     1.0  0.69257  0.41539  0.89770  1.0000
  C   C3079     1.0  0.68509  0.42828  0.89426  1.0000
  C   C3080     1.0  0.67145  0.43022  0.89557  1.0000
  C   C3081     1.0  0.66530  0.41940  0.89999  1.0000
  H   H3664     1.0  0.69217  0.39453  0.90470  1.0000
  H   H3665     1.0  0.70312  0.41379  0.89667  1.0000
  H   H3666     1.0  0.66558  0.44013  0.89313  1.0000
  H   H3667     1.0  0.65483  0.42097  0.90074  1.0000
  C   C3082     1.0  0.62231  0.39728  0.96523  1.0000
  S   S818      1.0  0.64566  0.03155  0.53635  1.0000
  S   S819      1.0  0.66079  0.01653  0.51142  1.0000
  C   C3083     1.0  0.66011  0.45163  0.97192  1.0000
  C   C3084     1.0  0.59622  0.02069  0.50882  1.0000
  Fe  Fe410     1.0  0.77946  0.99325  0.50429  1.0000
  H   H3668     1.0  0.77669  0.37845  0.96936  1.0000
  S   S820      1.0  0.62902  0.04085  0.50436  1.0000
  C   C3085     1.0  0.61460  0.43291  0.95138  1.0000
  H   H3669     1.0  0.66510  0.47951  0.88021  1.0000
  H   H3670     1.0  0.59772  0.02519  0.49824  1.0000
  H   H3671     1.0  0.73605  0.02524  0.49960  1.0000
  H   H3672     1.0  0.60851  0.00904  0.55220  1.0000
  C   C3086     1.0  0.65294  0.45800  0.87128  1.0000
  S   S821      1.0  0.77612  0.98815  0.52642  1.0000
  H   H3673     1.0  0.59334  0.12394  0.96510  1.0000
  C   C3087     1.0  0.77268  0.45305  0.88726  1.0000
  C   C3088     1.0  0.71125  0.02031  0.52216  1.0000
  S   S822      1.0  0.66203  0.00008  0.54213  1.0000
  C   C3089     1.0  0.63621  0.46724  0.91306  1.0000
  C   C3090     1.0  0.71239  0.06124  0.50095  1.0000
  H   H3674     1.0  0.71511  0.46390  0.95525  1.0000
  Fe  Fe411     1.0  0.76402  0.02154  0.50359  1.0000
  H   H3675     1.0  0.73615  0.06931  0.51125  1.0000
  H   H3676     1.0  0.67405  0.46401  0.87587  1.0000
  C   C3091     1.0  0.69922  0.01659  0.52862  1.0000
  H   H3677     1.0  0.77588  0.38919  0.93227  1.0000
  C   C3092     1.0  0.66328  0.46683  0.95033  1.0000
  H   H3678     1.0  0.69281  0.44981  0.95813  1.0000
  H   H3679     1.0  0.59070  0.36575  0.86977  1.0000
  Fe  Fe412     1.0  0.64126  0.01170  0.54830  1.0000
  H   H3680     1.0  0.65230  0.40540  0.95571  1.0000
  Fe  Fe413     1.0  0.64026  0.02683  0.51959  1.0000
  C   C3093     1.0  0.58766  0.33967  0.88036  1.0000
  H   H3681     1.0  0.59914  0.99542  0.79893  1.0000
  H   H3682     1.0  0.60067  0.42643  0.97595  1.0000
  C   C3094     1.0  0.67195  0.99892  0.48392  1.0000
  H   H3683     1.0  0.61609  0.42287  0.94950  1.0000
  C   C3095     1.0  0.63781  0.40892  0.97357  1.0000
  C   C3096     1.0  0.75886  0.39501  0.92407  1.0000
  C   C3097     1.0  0.63499  0.39831  0.95769  1.0000
  C   C3098     1.0  0.59833  0.02694  0.51756  1.0000
  H   H3684     1.0  0.69723  0.01346  0.49666  1.0000
  H   H3685     1.0  0.71530  0.07229  0.52669  1.0000
  N   N212      1.0  0.63983  0.46583  0.96380  1.0000
  C   C3099     1.0  0.66241  0.43553  0.86704  1.0000
  H   H3686     1.0  0.76256  0.39728  0.97729  1.0000
  C   C3100     1.0  0.70470  0.99659  0.48740  1.0000
  C   C3101     1.0  0.77648  0.42550  0.91824  1.0000
  H   H3687     1.0  0.59355  0.05949  0.59760  1.0000
  H   H3688     1.0  0.59162  0.04261  0.56572  1.0000
  H   H3689     1.0  0.63859  0.48113  0.97370  1.0000
  H   H3690     1.0  0.77325  0.42958  0.92706  1.0000
  H   H3691     1.0  0.65432  0.47817  0.85010  1.0000
  H   H3692     1.0  0.71090  0.98807  0.54980  1.0000
  C   C3102     1.0  0.78435  0.47650  0.93056  1.0000
  C   C3103     1.0  0.65439  0.46149  0.96192  1.0000
  C   C3104     1.0  0.73839  0.40475  0.93746  1.0000
  C   C3105     1.0  0.74543  0.40079  0.92565  1.0000
  C   C3106     1.0  0.76708  0.42449  0.91205  1.0000
  H   H3693     1.0  0.58808  0.99301  0.53025  1.0000
  H   H3694     1.0  0.74056  0.40240  0.91755  1.0000
  C   C3107     1.0  0.72302  0.01271  0.52586  1.0000
  C   C3108     1.0  0.72298  0.00106  0.53573  1.0000
  C   C3109     1.0  0.71101  0.99708  0.54208  1.0000
  C   C3110     1.0  0.69910  0.00488  0.53856  1.0000
  H   H3695     1.0  0.73219  0.01587  0.52122  1.0000
  C   C3111     1.0  0.77195  0.38063  0.96076  1.0000
  H   H3696     1.0  0.74911  0.39296  0.97401  1.0000
  H   H3697     1.0  0.62042  0.34968  0.96225  1.0000
  S   S823      1.0  0.64705  0.47653  0.91359  1.0000
  C   C3112     1.0  0.66398  0.46975  0.87952  1.0000
  C   C3113     1.0  0.70105  0.05562  0.50570  1.0000
  H   H3698     1.0  0.71883  0.02269  0.48999  1.0000
  C   C3114     1.0  0.58815  0.17900  0.87295  1.0000
  H   H3699     1.0  0.78325  0.40031  0.94316  1.0000
  H   H3700     1.0  0.78121  0.45775  0.91979  1.0000
  C   C3115     1.0  0.65017  0.43214  0.87244  1.0000
  C   C3116     1.0  0.68220  0.45294  0.95913  1.0000
  S   S824      1.0  0.63403  0.00822  0.53226  1.0000
  C   C3117     1.0  0.63033  0.01853  0.49604  1.0000
  C   C3118     1.0  0.59410  0.46664  0.97418  1.0000
  S   S825      1.0  0.74010  0.45101  0.90152  1.0000
  H   H3701     1.0  0.67068  0.47205  0.85322  1.0000
  H   H3702     1.0  0.65402  0.44708  0.98090  1.0000
  H   H3703     1.0  0.76453  0.37435  0.96359  1.0000
  H   H3704     1.0  0.60220  0.05252  0.62455  1.0000
  C   C3119     1.0  0.69855  0.00280  0.49806  1.0000
  H   H3705     1.0  0.61431  0.98538  0.51977  1.0000
  H   H3706     1.0  0.62980  0.43871  0.88169  1.0000
  H   H3707     1.0  0.77405  0.45741  0.86101  1.0000
  C   C3120     1.0  0.59303  0.00858  0.53646  1.0000
  C   C3121     1.0  0.63048  0.36393  0.97394  1.0000
  H   H3708     1.0  0.76061  0.47439  0.94623  1.0000
  Fe  Fe414     1.0  0.66595  0.01954  0.52906  1.0000
  C   C3122     1.0  0.59681  0.02101  0.53116  1.0000
  S   S826      1.0  0.71177  0.45590  0.93315  1.0000
  H   H3709     1.0  0.77614  0.44732  0.89648  1.0000
  C   C3123     1.0  0.74515  0.43584  0.94569  1.0000
  S   S827      1.0  0.75938  0.41764  0.89298  1.0000
  C   C3124     1.0  0.59285  0.01532  0.59126  1.0000
  H   H3710     1.0  0.63877  0.39473  0.94857  1.0000
  H   H3711     1.0  0.70584  0.08064  0.51407  1.0000
  Fe  Fe415     1.0  0.73994  0.43254  0.89595  1.0000
  H   H3712     1.0  0.70495  0.41153  0.97520  1.0000
  H   H3713     1.0  0.67096  0.42810  0.86373  1.0000
  H   H3714     1.0  0.72801  0.07892  0.49805  1.0000
  Fe  Fe416     1.0  0.65505  0.99816  0.52507  1.0000
  H   H3715     1.0  0.63172  0.46080  0.88081  1.0000
  H   H3716     1.0  0.72500  0.06979  0.48221  1.0000
  S   S828      1.0  0.68463  0.02715  0.52420  1.0000
  N   N213      1.0  0.78360  0.45726  0.87634  1.0000
  C   C3125     1.0  0.75692  0.39882  0.96953  1.0000
  S   S829      1.0  0.63001  0.00531  0.56953  1.0000
  H   H3717     1.0  0.66037  0.46438  0.88988  1.0000
  C   C3126     1.0  0.67697  0.46254  0.94904  1.0000
  N   N214      1.0  0.76562  0.39494  0.95712  1.0000
  C   C3127     1.0  0.74426  0.03843  0.48206  1.0000
  C   C3128     1.0  0.61382  0.01414  0.57487  1.0000
  H   H3718     1.0  0.65995  0.47426  0.94209  1.0000
  H   H3719     1.0  0.61907  0.43910  0.94184  1.0000
  C   C3129     1.0  0.71023  0.07071  0.51971  1.0000
  H   H3720     1.0  0.76786  0.44662  0.88446  1.0000
  H   H3721     1.0  0.73583  0.43612  0.93026  1.0000
  S   S830      1.0  0.73113  0.44322  0.87807  1.0000
  H   H3722     1.0  0.60680  0.04606  0.60223  1.0000
  H   H3723     1.0  0.60993  0.99917  0.59285  1.0000
  C   C3130     1.0  0.77806  0.46414  0.86432  1.0000
  H   H3724     1.0  0.62457  0.47878  0.95382  1.0000
  C   C3131     1.0  0.58830  0.01646  0.64594  1.0000
  H   H3725     1.0  0.63452  0.99317  0.51645  1.0000
  C   C3132     1.0  0.69386  0.99531  0.51055  1.0000
  H   H3726     1.0  0.65145  0.03910  0.48190  1.0000
  H   H3727     1.0  0.59388  0.30558  0.88641  1.0000
  C   C3133     1.0  0.72343  0.45600  0.95264  1.0000
  C   C3134     1.0  0.64056  0.45422  0.87668  1.0000
  S   S831      1.0  0.72030  0.43013  0.90988  1.0000
  C   C3135     1.0  0.73100  0.06864  0.50388  1.0000
  C   C3136     1.0  0.61116  0.35695  0.96524  1.0000
  H   H3728     1.0  0.73867  0.40632  0.95661  1.0000
  H   H3729     1.0  0.62034  0.43182  0.95894  1.0000
  H   H3730     1.0  0.61186  0.36697  0.95878  1.0000
  N   N215      1.0  0.71943  0.06244  0.51046  1.0000
  C   C3137     1.0  0.74414  0.44112  0.95656  1.0000
  N   N216      1.0  0.67709  0.42736  0.93651  1.0000
  C   C3138     1.0  0.68214  0.43725  0.92467  1.0000
  C   C3139     1.0  0.67686  0.41573  0.93178  1.0000
  C   C3140     1.0  0.66334  0.43363  0.94226  1.0000
  C   C3141     1.0  0.68509  0.42288  0.94680  1.0000
  C   C3142     1.0  0.68103  0.41409  0.95905  1.0000
  C   C3143     1.0  0.69700  0.42696  0.94508  1.0000
  H   H3731     1.0  0.76600  0.45897  0.96463  1.0000
  C   C3144     1.0  0.70404  0.42290  0.95524  1.0000
  C   C3145     1.0  0.59508  0.42891  0.96796  1.0000
  H   H3732     1.0  0.69203  0.43292  0.91908  1.0000
  H   H3733     1.0  0.67566  0.44075  0.91734  1.0000
  H   H3734     1.0  0.68272  0.44625  0.92750  1.0000
  H   H3735     1.0  0.68698  0.41089  0.92707  1.0000
  H   H3736     1.0  0.67064  0.41866  0.92428  1.0000
  H   H3737     1.0  0.67273  0.40801  0.93994  1.0000
  H   H3738     1.0  0.65722  0.43779  0.93461  1.0000
  H   H3739     1.0  0.65816  0.42649  0.95017  1.0000
  H   H3740     1.0  0.66322  0.44180  0.94675  1.0000
  H   H3741     1.0  0.67223  0.41033  0.96102  1.0000
  H   H3742     1.0  0.70097  0.43351  0.93608  1.0000
  C   C3146     1.0  0.60244  0.00934  0.62621  1.0000
  H   H3743     1.0  0.59237  0.44660  0.98069  1.0000
  C   C3147     1.0  0.59173  0.05581  0.62354  1.0000
  H   H3744     1.0  0.73852  0.06264  0.49709  1.0000
  C   C3148     1.0  0.69857  0.05846  0.48323  1.0000
  H   H3745     1.0  0.63486  0.01322  0.50432  1.0000
  H   H3746     1.0  0.61096  0.30770  0.89658  1.0000
  H   H3747     1.0  0.73019  0.04948  0.52526  1.0000
  H   H3748     1.0  0.67367  0.45015  0.86277  1.0000
  C   C3149     1.0  0.64272  0.40422  0.96182  1.0000
  H   H3749     1.0  0.71617  0.04419  0.52472  1.0000
  H   H3750     1.0  0.61339  0.33000  0.89641  1.0000
  N   N217      1.0  0.65481  0.47127  0.87090  1.0000
  H   H3751     1.0  0.63243  0.36357  0.96357  1.0000
  C   C3150     1.0  0.60592  0.00864  0.58691  1.0000
  C   C3151     1.0  0.77113  0.41916  0.90069  1.0000
  C   C3152     1.0  0.63549  0.47547  0.95204  1.0000
  H   H3752     1.0  0.68882  0.00019  0.51877  1.0000
  H   H3753     1.0  0.59865  0.15120  0.91113  1.0000
  C   C3153     1.0  0.60860  0.02637  0.56722  1.0000
  C   C3154     1.0  0.59593  0.04892  0.60300  1.0000
  H   H3754     1.0  0.78425  0.42615  0.95856  1.0000
  C   C3155     1.0  0.78187  0.45108  0.97451  1.0000
  C   C3156     1.0  0.58767  0.02759  0.58364  1.0000
  H   H3755     1.0  0.60147  0.03631  0.51372  1.0000
  H   H3756     1.0  0.59845  0.99621  0.64547  1.0000
  H   H3757     1.0  0.60573  0.46134  0.93804  1.0000
  C   C3157     1.0  0.77665  0.45644  0.96307  1.0000
  C   C3158     1.0  0.59245  0.00853  0.51366  1.0000
  H   H3758     1.0  0.78025  0.48132  0.92146  1.0000
  H   H3759     1.0  0.76434  0.39227  0.91469  1.0000
  H   H3760     1.0  0.76492  0.46183  0.88988  1.0000
  H   H3761     1.0  0.77171  0.41360  0.94991  1.0000
  C   C3159     1.0  0.60460  0.31653  0.89200  1.0000
  H   H3762     1.0  0.59589  0.41925  0.96549  1.0000
  H   H3763     1.0  0.59928  0.34991  0.88644  1.0000
  C   C3160     1.0  0.60000  0.02241  0.61875  1.0000
  S   S832      1.0  0.73796  0.99157  0.54000  1.0000
  N   N218      1.0  0.60040  0.43859  0.95607  1.0000
  H   H3764     1.0  0.60473  0.02392  0.60827  1.0000
  H   H3765     1.0  0.62349  0.47591  0.97703  1.0000
  C   C3161     1.0  0.73540  0.03036  0.48956  1.0000
  C   C3162     1.0  0.59336  0.43989  0.94551  1.0000
  H   H3766     1.0  0.60467  0.99514  0.56491  1.0000
  C   C3163     1.0  0.58818  0.15042  0.91544  1.0000
  H   H3767     1.0  0.78184  0.40104  0.95999  1.0000
  C   C3164     1.0  0.59492  0.45417  0.97194  1.0000
  H   H3768     1.0  0.63888  0.47118  0.94300  1.0000
  C   C3165     1.0  0.60224  0.46252  0.94822  1.0000
  C   C3166     1.0  0.69958  0.41452  0.96726  1.0000
  C   C3167     1.0  0.61791  0.40082  0.97758  1.0000
  H   H3769     1.0  0.59887  0.02616  0.53743  1.0000
  H   H3770     1.0  0.69277  0.46509  0.98032  1.0000
  C   C3168     1.0  0.59558  0.03309  0.57164  1.0000
  S   S833      1.0  0.75678  0.03995  0.48876  1.0000
  C   C3169     1.0  0.62806  0.01159  0.48789  1.0000
  C   C3170     1.0  0.68816  0.41002  0.96910  1.0000
  C   C3171     1.0  0.59768  0.34053  0.88612  1.0000
  H   H3771     1.0  0.68362  0.46669  0.94017  1.0000
  S   S834      1.0  0.78570  0.01211  0.50162  1.0000
  H   H3772     1.0  0.75204  0.40956  0.96765  1.0000
  C   C3172     1.0  0.63384  0.45423  0.96650  1.0000
  H   H3773     1.0  0.59576  0.00860  0.80756  1.0000
  H   H3774     1.0  0.68816  0.48068  0.95999  1.0000
  N   N219      1.0  0.77998  0.46394  0.93772  1.0000
  H   H3775     1.0  0.78253  0.44451  0.93433  1.0000
  H   H3776     1.0  0.73525  0.47878  0.89773  1.0000
  H   H3777     1.0  0.59784  0.44550  0.93561  1.0000
  C   C3173     1.0  0.60110  0.47502  0.95053  1.0000
  C   C3174     1.0  0.66057  0.47759  0.85702  1.0000
  C   C3175     1.0  0.78468  0.41486  0.89553  1.0000
  H   H3778     1.0  0.59106  0.00361  0.50675  1.0000
  C   C3176     1.0  0.72569  0.02888  0.48405  1.0000
  H   H3779     1.0  0.68474  0.40339  0.97839  1.0000
  H   H3780     1.0  0.62297  0.45730  0.96733  1.0000
  H   H3781     1.0  0.67791  0.43973  0.97823  1.0000
  C   C3177     1.0  0.59155  0.03295  0.62474  1.0000
  C   C3178     1.0  0.60595  0.32909  0.89189  1.0000
  N   N220      1.0  0.59196  0.00232  0.55084  1.0000
  C   C3179     1.0  0.58807  0.98918  0.82577  1.0000
  C   C3180     1.0  0.78522  0.45422  0.92900  1.0000
  C   C3181     1.0  0.63991  0.36792  0.97772  1.0000
  H   H3782     1.0  0.77986  0.37723  0.95245  1.0000
  H   H3783     1.0  0.63498  0.48222  0.86947  1.0000
  S   S835      1.0  0.73732  0.47902  0.87001  1.0000
  H   H3784     1.0  0.59224  0.25283  0.90791  1.0000
  C   C3182     1.0  0.59110  0.00282  0.80372  1.0000
  H   H3785     1.0  0.59370  0.43000  0.94381  1.0000
  H   H3786     1.0  0.59616  0.37686  0.97802  1.0000
  C   C3183     1.0  0.59078  0.00254  0.52728  1.0000
  C   C3184     1.0  0.78504  0.45844  0.95013  1.0000
  H   H3787     1.0  0.63784  0.47678  0.88619  1.0000
  C   C3185     1.0  0.62141  0.03935  0.48236  1.0000
  H   H3788     1.0  0.60344  0.48314  0.94220  1.0000
  H   H3789     1.0  0.58693  0.14136  0.91327  1.0000
  H   H3790     1.0  0.61911  0.48344  0.91246  1.0000
  H   H3791     1.0  0.58709  0.98504  0.56572  1.0000
  C   C3186     1.0  0.68865  0.49089  0.03257  1.0000
  C   C3187     1.0  0.63743  0.96306  0.47171  1.0000
  C   C3188     1.0  0.59623  0.86688  0.06173  1.0000
  H   H3792     1.0  0.58846  0.58801  0.07028  1.0000
  H   H3793     1.0  0.60421  0.98051  0.32290  1.0000
  H   H3794     1.0  0.62801  0.90401  0.47524  1.0000
  C   C3189     1.0  0.74592  0.97458  0.42748  1.0000
  H   H3795     1.0  0.73567  0.49482  0.02621  1.0000
  C   C3190     1.0  0.68486  0.50313  0.01071  1.0000
  S   S836      1.0  0.63532  0.53257  0.03902  1.0000
  S   S837      1.0  0.71907  0.92329  0.42267  1.0000
  Fe  Fe417     1.0  0.73391  0.93513  0.42092  1.0000
  C   C3191     1.0  0.68653  0.55026  0.02257  1.0000
  H   H3796     1.0  0.59140  0.96259  0.38371  1.0000
  H   H3797     1.0  0.67207  0.98106  0.39267  1.0000
  H   H3798     1.0  0.70429  0.50792  0.01968  1.0000
  H   H3799     1.0  0.64793  0.56530  0.03717  1.0000
  H   H3800     1.0  0.62721  0.55596  0.07001  1.0000
  Fe  Fe418     1.0  0.60065  0.94984  0.42912  1.0000
  S   S838      1.0  0.60618  0.92924  0.42546  1.0000
  H   H3801     1.0  0.59084  0.59155  0.00687  1.0000
  Fe  Fe419     1.0  0.60835  0.96214  0.39927  1.0000
  S   S839      1.0  0.61494  0.94253  0.39329  1.0000
  C   C3192     1.0  0.63222  0.97944  0.39095  1.0000
  H   H3802     1.0  0.59261  0.91408  0.36428  1.0000
  C   C3193     1.0  0.77920  0.89406  0.46323  1.0000
  Fe  Fe420     1.0  0.62426  0.93568  0.41129  1.0000
  S   S840      1.0  0.64486  0.92363  0.41326  1.0000
  S   S841      1.0  0.60840  0.98206  0.38537  1.0000
  S   S842      1.0  0.61894  0.95576  0.41589  1.0000
  N   N221      1.0  0.77829  0.48891  0.05867  1.0000
  C   C3194     1.0  0.69379  0.51255  0.02351  1.0000
  C   C3195     1.0  0.65804  0.94779  0.47529  1.0000
  C   C3196     1.0  0.63112  0.55828  0.05902  1.0000
  S   S843      1.0  0.62641  0.56021  0.01727  1.0000
  C   C3197     1.0  0.63745  0.92671  0.46361  1.0000
  C   C3198     1.0  0.64111  0.96327  0.45780  1.0000
  H   H3803     1.0  0.69021  0.55431  0.01213  1.0000
  H   H3804     1.0  0.76574  0.49524  0.98535  1.0000
  H   H3805     1.0  0.59649  0.92066  0.28606  1.0000
  H   H3806     1.0  0.75104  0.50925  0.00062  1.0000
  S   S844      1.0  0.70360  0.93306  0.45094  1.0000
  S   S845      1.0  0.68491  0.95217  0.42216  1.0000
  H   H3807     1.0  0.75631  0.89678  0.45362  1.0000
  C   C3199     1.0  0.60180  0.92018  0.47364  1.0000
  H   H3808     1.0  0.59453  0.88865  0.32434  1.0000
  H   H3809     1.0  0.58958  0.53729  0.99646  1.0000
  H   H3810     1.0  0.77575  0.55231  0.05905  1.0000
  S   S846      1.0  0.64309  0.53310  0.00686  1.0000
  H   H3811     1.0  0.60231  0.90999  0.47358  1.0000
  Fe  Fe421     1.0  0.73111  0.52352  0.01972  1.0000
  S   S847      1.0  0.73128  0.54146  0.02623  1.0000
  H   H3812     1.0  0.60887  0.57833  0.03288  1.0000
  C   C3200     1.0  0.75801  0.89727  0.43326  1.0000
  S   S848      1.0  0.73917  0.52028  0.05389  1.0000
  Fe  Fe422     1.0  0.72061  0.53146  0.04622  1.0000
  S   S849      1.0  0.70000  0.54003  0.05650  1.0000
  Fe  Fe423     1.0  0.74967  0.52916  0.03321  1.0000
  S   S850      1.0  0.76999  0.53337  0.02491  1.0000
  S   S851      1.0  0.71926  0.51447  0.03902  1.0000
  S   S852      1.0  0.75039  0.51213  0.02479  1.0000
  H   H3813     1.0  0.65719  0.95510  0.44264  1.0000
  H   H3814     1.0  0.64235  0.93363  0.45507  1.0000
  H   H3815     1.0  0.75216  0.53139  0.98470  1.0000
  H   H3816     1.0  0.64696  0.91607  0.44215  1.0000
  H   H3817     1.0  0.71857  0.51267  0.98340  1.0000
  Fe  Fe424     1.0  0.71951  0.94419  0.44654  1.0000
  C   C3201     1.0  0.76236  0.89891  0.44370  1.0000
  C   C3202     1.0  0.59021  0.91357  0.28896  1.0000
  C   C3203     1.0  0.77612  0.93797  0.39168  1.0000
  C   C3204     1.0  0.67426  0.50669  0.99207  1.0000
  C   C3205     1.0  0.65368  0.95546  0.45307  1.0000
  H   H3818     1.0  0.76205  0.54705  0.04681  1.0000
  C   C3206     1.0  0.71676  0.95396  0.39075  1.0000
  C   C3207     1.0  0.61139  0.98281  0.33878  1.0000
  H   H3819     1.0  0.76207  0.93850  0.42424  1.0000
  C   C3208     1.0  0.69766  0.49745  0.98934  1.0000
  S   S853      1.0  0.71863  0.95906  0.45782  1.0000
  Fe  Fe425     1.0  0.72041  0.91683  0.44423  1.0000
  Fe  Fe426     1.0  0.61638  0.54686  0.03497  1.0000
  C   C3209     1.0  0.77686  0.90450  0.41753  1.0000
  C   C3210     1.0  0.68975  0.54302  0.04527  1.0000
  C   C3211     1.0  0.67715  0.54008  0.04965  1.0000
  C   C3212     1.0  0.66933  0.54206  0.04041  1.0000
  C   C3213     1.0  0.75418  0.97392  0.46118  1.0000
  H   H3820     1.0  0.67360  0.53602  0.06013  1.0000
  H   H3821     1.0  0.65978  0.53952  0.04374  1.0000
  C   C3214     1.0  0.59916  0.60342  0.06032  1.0000
  H   H3822     1.0  0.61368  0.97220  0.46267  1.0000
  S   S854      1.0  0.61227  0.53466  0.02330  1.0000
  S   S855      1.0  0.71825  0.95289  0.42534  1.0000
  C   C3215     1.0  0.59144  0.57204  0.04571  1.0000
  H   H3823     1.0  0.71103  0.95334  0.40123  1.0000
  H   H3824     1.0  0.75351  0.97144  0.41923  1.0000
  C   C3216     1.0  0.77401  0.90363  0.44135  1.0000
  C   C3217     1.0  0.68240  0.90505  0.45425  1.0000
  Fe  Fe427     1.0  0.62361  0.54715  0.00588  1.0000
  Fe  Fe428     1.0  0.63218  0.52157  0.02548  1.0000
  H   H3825     1.0  0.72115  0.97253  0.40124  1.0000
  H   H3826     1.0  0.72643  0.94676  0.39115  1.0000
  H   H3827     1.0  0.76978  0.91937  0.46631  1.0000
  H   H3828     1.0  0.75981  0.54418  0.98515  1.0000
  C   C3218     1.0  0.64274  0.90953  0.45156  1.0000
  C   C3219     1.0  0.66928  0.90654  0.45363  1.0000
  H   H3829     1.0  0.59684  0.92129  0.38260  1.0000
  N   N222      1.0  0.64455  0.91273  0.46349  1.0000
  H   H3830     1.0  0.63456  0.96944  0.38938  1.0000
  C   C3220     1.0  0.61489  0.49121  0.01057  1.0000
  C   C3221     1.0  0.65632  0.93162  0.41516  1.0000
  C   C3222     1.0  0.66784  0.92393  0.41946  1.0000
  C   C3223     1.0  0.67677  0.93004  0.42168  1.0000
  C   C3224     1.0  0.67426  0.94390  0.41944  1.0000
  C   C3225     1.0  0.66293  0.95156  0.41491  1.0000
  C   C3226     1.0  0.65407  0.94547  0.41266  1.0000
  H   H3831     1.0  0.66986  0.91322  0.42107  1.0000
  H   H3832     1.0  0.68558  0.92403  0.42506  1.0000
  H   H3833     1.0  0.66105  0.96227  0.41305  1.0000
  H   H3834     1.0  0.64570  0.95156  0.40867  1.0000
  H   H3835     1.0  0.67141  0.51158  0.04135  1.0000
  S   S856      1.0  0.72213  0.89542  0.45493  1.0000
  H   H3836     1.0  0.71981  0.96534  0.36449  1.0000
  N   N223      1.0  0.63382  0.57186  0.05418  1.0000
  H   H3837     1.0  0.78233  0.90696  0.40730  1.0000
  H   H3838     1.0  0.62813  0.96874  0.47630  1.0000
  H   H3839     1.0  0.62389  0.55708  0.05403  1.0000
  C   C3227     1.0  0.73069  0.89235  0.46752  1.0000
  C   C3228     1.0  0.73166  0.90297  0.47202  1.0000
  H   H3840     1.0  0.69908  0.55782  0.98374  1.0000
  H   H3841     1.0  0.72665  0.91298  0.46819  1.0000
  H   H3842     1.0  0.62703  0.92845  0.46281  1.0000
  H   H3843     1.0  0.63698  0.92959  0.47296  1.0000
  H   H3844     1.0  0.69147  0.52253  0.01689  1.0000
  H   H3845     1.0  0.64395  0.89337  0.47632  1.0000
  C   C3229     1.0  0.59855  0.94353  0.46251  1.0000
  C   C3230     1.0  0.77128  0.96922  0.44189  1.0000
  C   C3231     1.0  0.59404  0.85943  0.05402  1.0000
  C   C3232     1.0  0.76961  0.93834  0.41514  1.0000
  H   H3846     1.0  0.77527  0.95260  0.47212  1.0000
  H   H3847     1.0  0.59112  0.90902  0.30939  1.0000
  C   C3233     1.0  0.64582  0.95542  0.48025  1.0000
  H   H3848     1.0  0.60523  0.87056  0.05884  1.0000
  H   H3849     1.0  0.76579  0.92617  0.45013  1.0000
  H   H3850     1.0  0.63807  0.95657  0.43611  1.0000
  Fe  Fe429     1.0  0.73855  0.50421  0.04461  1.0000
  S   S857      1.0  0.59567  0.95640  0.44855  1.0000
  H   H3851     1.0  0.77571  0.50769  0.04438  1.0000
  H   H3852     1.0  0.68322  0.98275  0.41537  1.0000
  H   H3853     1.0  0.59261  0.87525  0.31860  1.0000
  H   H3854     1.0  0.75821  0.95630  0.45364  1.0000
  S   S858      1.0  0.66454  0.55064  0.01491  1.0000
  H   H3855     1.0  0.78178  0.51235  0.06144  1.0000
  C   C3234     1.0  0.73354  0.48512  0.02928  1.0000
  H   H3856     1.0  0.64020  0.55048  0.05693  1.0000
  C   C3235     1.0  0.72852  0.96979  0.44705  1.0000
  S   S859      1.0  0.58935  0.95839  0.41292  1.0000
  C   C3236     1.0  0.76566  0.49331  0.06790  1.0000
  S   S860      1.0  0.61788  0.55614  0.98630  1.0000
  C   C3237     1.0  0.59942  0.93032  0.46245  1.0000
  C   C3238     1.0  0.78132  0.90612  0.42792  1.0000
  C   C3239     1.0  0.62099  0.49796  0.01578  1.0000
  H   H3857     1.0  0.59808  0.60226  0.02871  1.0000
  H   H3858     1.0  0.69322  0.52490  0.98523  1.0000
  C   C3240     1.0  0.68521  0.90805  0.46484  1.0000
  H   H3859     1.0  0.72545  0.48823  0.01227  1.0000
  H   H3860     1.0  0.63208  0.91104  0.45161  1.0000
  H   H3861     1.0  0.74044  0.95563  0.43516  1.0000
  C   C3241     1.0  0.58974  0.96113  0.37448  1.0000
  S   S861      1.0  0.63885  0.49915  0.02920  1.0000
  H   H3862     1.0  0.65023  0.97685  0.39710  1.0000
  C   C3242     1.0  0.66198  0.94784  0.46170  1.0000
  C   C3243     1.0  0.63928  0.98058  0.43774  1.0000
  C   C3244     1.0  0.66183  0.91405  0.47438  1.0000
  H   H3863     1.0  0.59864  0.96264  0.36642  1.0000
  H   H3864     1.0  0.66367  0.51029  0.01104  1.0000
  H   H3865     1.0  0.60168  0.85769  0.04531  1.0000
  H   H3866     1.0  0.61216  0.61664  0.04971  1.0000
  H   H3867     1.0  0.77372  0.93775  0.38260  1.0000
  H   H3868     1.0  0.70396  0.55050  0.02825  1.0000
  C   C3245     1.0  0.75527  0.49830  0.98552  1.0000
  C   C3246     1.0  0.59852  0.58141  0.03714  1.0000
  Fe  Fe430     1.0  0.64496  0.54493  0.02013  1.0000
  H   H3869     1.0  0.63203  0.57447  0.03405  1.0000
  C   C3247     1.0  0.63828  0.90386  0.47549  1.0000
  C   C3248     1.0  0.62920  0.96196  0.44226  1.0000
  C   C3249     1.0  0.60011  0.94655  0.47383  1.0000
  S   S862      1.0  0.75033  0.93753  0.40267  1.0000
  H   H3870     1.0  0.71161  0.95024  0.38535  1.0000
  C   C3250     1.0  0.73844  0.96568  0.43644  1.0000
  C   C3251     1.0  0.77772  0.49684  0.04498  1.0000
  C   C3252     1.0  0.72674  0.97114  0.39113  1.0000
  C   C3253     1.0  0.61143  0.60635  0.05371  1.0000
  H   H3871     1.0  0.63193  0.59888  0.04674  1.0000
  C   C3254     1.0  0.67125  0.51051  0.03135  1.0000
  C   C3255     1.0  0.73379  0.51186  0.99314  1.0000
  C   C3256     1.0  0.63958  0.57371  0.03961  1.0000
  H   H3872     1.0  0.59267  0.85349  0.03057  1.0000
  H   H3873     1.0  0.66782  0.90398  0.44517  1.0000
  N   N224      1.0  0.68453  0.50428  0.02429  1.0000
  H   H3874     1.0  0.64364  0.58281  0.03542  1.0000
  C   C3257     1.0  0.58702  0.90689  0.30230  1.0000
  C   C3258     1.0  0.76731  0.91690  0.45799  1.0000
  C   C3259     1.0  0.76107  0.96555  0.45240  1.0000
  H   H3875     1.0  0.69048  0.90152  0.44649  1.0000
  H   H3876     1.0  0.73638  0.87116  0.46916  1.0000
  H   H3877     1.0  0.64710  0.58200  0.05719  1.0000
  C   C3260     1.0  0.62086  0.53005  0.98682  1.0000
  H   H3878     1.0  0.75763  0.91399  0.46205  1.0000
  H   H3879     1.0  0.67152  0.94192  0.45781  1.0000
  H   H3880     1.0  0.69537  0.90681  0.46534  1.0000
  H   H3881     1.0  0.76331  0.50417  0.06742  1.0000
  H   H3882     1.0  0.68849  0.49136  0.04289  1.0000
  N   N225      1.0  0.63243  0.97104  0.44845  1.0000
  H   H3883     1.0  0.68109  0.97866  0.44563  1.0000
  H   H3884     1.0  0.73582  0.96324  0.39233  1.0000
  S   S863      1.0  0.73649  0.92736  0.44190  1.0000
  C   C3261     1.0  0.69694  0.49802  0.00242  1.0000
  H   H3885     1.0  0.66568  0.54949  0.98712  1.0000
  H   H3886     1.0  0.61870  0.52852  0.99752  1.0000
  C   C3262     1.0  0.61971  0.97879  0.45492  1.0000
  H   H3887     1.0  0.62419  0.95449  0.44996  1.0000
  C   C3263     1.0  0.72870  0.50842  0.98426  1.0000
  H   H3888     1.0  0.61836  0.50866  0.01401  1.0000
  H   H3889     1.0  0.71335  0.98279  0.42537  1.0000
  H   H3890     1.0  0.62234  0.96749  0.43549  1.0000
  H   H3891     1.0  0.60750  0.56994  0.06748  1.0000
  C   C3264     1.0  0.72576  0.96768  0.37017  1.0000
  H   H3892     1.0  0.71133  0.97858  0.48063  1.0000
  H   H3893     1.0  0.69219  0.96404  0.39286  1.0000
  S   S864      1.0  0.59929  0.55518  0.05019  1.0000
  H   H3894     1.0  0.69333  0.51421  0.03346  1.0000
  H   H3895     1.0  0.76839  0.52697  0.99936  1.0000
  C   C3265     1.0  0.74693  0.50636  0.99414  1.0000
  C   C3266     1.0  0.63048  0.49085  0.02326  1.0000
  H   H3896     1.0  0.65289  0.56442  0.05938  1.0000
  H   H3897     1.0  0.76971  0.49519  0.04140  1.0000
  C   C3267     1.0  0.73705  0.87940  0.47270  1.0000
  H   H3898     1.0  0.76594  0.48807  0.07842  1.0000
  H   H3899     1.0  0.64732  0.89897  0.45106  1.0000
  H   H3900     1.0  0.59796  0.92792  0.45389  1.0000
  C   C3268     1.0  0.62266  0.59609  0.05200  1.0000
  Fe  Fe431     1.0  0.70352  0.94047  0.42920  1.0000
  H   H3901     1.0  0.62228  0.50957  0.98715  1.0000
  C   C3269     1.0  0.76635  0.93794  0.40345  1.0000
  C   C3270     1.0  0.65856  0.91112  0.46371  1.0000
  H   H3902     1.0  0.58923  0.95053  0.37650  1.0000
  C   C3271     1.0  0.67399  0.54734  0.02687  1.0000
  C   C3272     1.0  0.69439  0.54802  0.03171  1.0000
  H   H3903     1.0  0.58742  0.83885  0.03184  1.0000
  C   C3273     1.0  0.62188  0.58252  0.05672  1.0000
  H   H3904     1.0  0.74600  0.97080  0.46878  1.0000
  C   C3274     1.0  0.59810  0.59024  0.06543  1.0000
  H   H3905     1.0  0.68288  0.53617  0.99547  1.0000
  C   C3275     1.0  0.59011  0.84436  0.03777  1.0000
  H   H3906     1.0  0.76975  0.89077  0.46792  1.0000
  H   H3907     1.0  0.73528  0.96013  0.36973  1.0000
  H   H3908     1.0  0.63979  0.57129  0.07191  1.0000
  C   C3276     1.0  0.78270  0.93860  0.41495  1.0000
  C   C3277     1.0  0.64381  0.57243  0.06095  1.0000
  C   C3278     1.0  0.60924  0.57989  0.06368  1.0000
  C   C3279     1.0  0.67497  0.91263  0.47482  1.0000
  C   C3280     1.0  0.67341  0.50699  0.00528  1.0000
  C   C3281     1.0  0.58755  0.56669  0.01264  1.0000
  H   H3909     1.0  0.74887  0.89397  0.43532  1.0000
  C   C3282     1.0  0.69213  0.53453  0.98774  1.0000
  C   C3283     1.0  0.78032  0.54585  0.05209  1.0000
  C   C3284     1.0  0.59241  0.59499  0.03484  1.0000
  H   H3910     1.0  0.72824  0.97744  0.36476  1.0000
  S   S865      1.0  0.72403  0.52413  0.00177  1.0000
  H   H3911     1.0  0.76158  0.89933  0.41204  1.0000
  Fe  Fe432     1.0  0.59624  0.93818  0.40791  1.0000
  C   C3285     1.0  0.77256  0.54282  0.04524  1.0000
  N   N226      1.0  0.71847  0.96773  0.38415  1.0000
  C   C3286     1.0  0.77617  0.51990  0.99455  1.0000
  H   H3912     1.0  0.59906  0.83797  0.04132  1.0000
  H   H3913     1.0  0.68206  0.48429  0.03332  1.0000
  C   C3287     1.0  0.77863  0.53510  0.03570  1.0000
  H   H3914     1.0  0.58750  0.96889  0.19031  1.0000
  H   H3915     1.0  0.59518  0.58018  0.98844  1.0000
  N   N227      1.0  0.77776  0.90628  0.45249  1.0000
  H   H3916     1.0  0.77638  0.96286  0.43489  1.0000
  C   C3288     1.0  0.69327  0.97421  0.38895  1.0000
  H   H3917     1.0  0.61569  0.97230  0.34164  1.0000
  H   H3918     1.0  0.59824  0.56686  0.00898  1.0000
  H   H3919     1.0  0.60756  0.49678  0.00478  1.0000
  H   H3920     1.0  0.75710  0.49130  0.06551  1.0000
  C   C3289     1.0  0.72611  0.98274  0.44871  1.0000
  H   H3921     1.0  0.73027  0.98039  0.38571  1.0000
  H   H3922     1.0  0.66762  0.52070  0.02566  1.0000
  H   H3923     1.0  0.66384  0.50443  0.03308  1.0000
  H   H3924     1.0  0.59921  0.95677  0.47405  1.0000
  C   C3290     1.0  0.68640  0.50210  0.98405  1.0000
  C   C3291     1.0  0.70580  0.97771  0.38425  1.0000
  H   H3925     1.0  0.70598  0.49452  0.00596  1.0000
  H   H3926     1.0  0.59037  0.61136  0.06124  1.0000
  C   C3292     1.0  0.76517  0.90022  0.42017  1.0000
  H   H3927     1.0  0.69517  0.97307  0.43360  1.0000
  C   C3293     1.0  0.68982  0.98174  0.43818  1.0000
  H   H3928     1.0  0.58836  0.87583  0.07881  1.0000
  C   C3294     1.0  0.77455  0.98135  0.44007  1.0000
  H   H3929     1.0  0.66544  0.51013  0.98802  1.0000
  H   H3930     1.0  0.64852  0.97561  0.43167  1.0000
  H   H3931     1.0  0.77021  0.48650  0.01070  1.0000
  H   H3932     1.0  0.78261  0.89558  0.47148  1.0000
  H   H3933     1.0  0.70710  0.49367  0.98317  1.0000
  C   C3295     1.0  0.77452  0.95580  0.48107  1.0000
  H   H3934     1.0  0.68156  0.56017  0.98720  1.0000
  H   H3935     1.0  0.69890  0.48591  0.02843  1.0000
  C   C3296     1.0  0.78384  0.51010  0.00274  1.0000
  H   H3936     1.0  0.78176  0.50993  0.01331  1.0000
  H   H3937     1.0  0.78232  0.56849  0.02688  1.0000
  H   H3938     1.0  0.78655  0.88570  0.45928  1.0000
  H   H3939     1.0  0.78517  0.93922  0.42382  1.0000
  H   H3940     1.0  0.70033  0.53351  0.99257  1.0000
  C   C3297     1.0  0.64110  0.98363  0.39535  1.0000
  C   C3298     1.0  0.58744  0.88262  0.32495  1.0000
  H   H3941     1.0  0.78681  0.55586  0.01003  1.0000
  H   H3942     1.0  0.58741  0.91669  0.26905  1.0000
  H   H3943     1.0  0.69620  0.98339  0.44388  1.0000
  C   C3299     1.0  0.78358  0.96276  0.48132  1.0000
  Fe  Fe433     1.0  0.61728  0.91005  0.54161  1.0000
  S   S866      1.0  0.63021  0.92440  0.53758  1.0000
  C   C3300     1.0  0.74780  0.49141  0.89722  1.0000
  Fe  Fe434     1.0  0.61522  0.91590  0.51283  1.0000
  S   S867      1.0  0.62782  0.93086  0.50607  1.0000
  Fe  Fe435     1.0  0.64087  0.91650  0.51922  1.0000
  S   S868      1.0  0.66261  0.91364  0.50954  1.0000
  Fe  Fe436     1.0  0.61631  0.93761  0.52476  1.0000
  S   S869      1.0  0.60994  0.95926  0.52423  1.0000
  S   S870      1.0  0.62927  0.90065  0.52438  1.0000
  S   S871      1.0  0.60231  0.92406  0.53045  1.0000
  Fe  Fe437     1.0  0.72584  0.91796  0.52732  1.0000
  S   S872      1.0  0.73256  0.92013  0.50527  1.0000
  S   S873      1.0  0.70405  0.92146  0.53710  1.0000
  Fe  Fe438     1.0  0.75404  0.91114  0.53128  1.0000
  S   S874      1.0  0.76306  0.91264  0.50952  1.0000
  H   H3944     1.0  0.71093  0.94382  0.49450  1.0000
  Fe  Fe439     1.0  0.74688  0.93073  0.50687  1.0000
  H   H3945     1.0  0.71024  0.48982  0.87723  1.0000
  Fe  Fe440     1.0  0.74813  0.90176  0.50980  1.0000
  S   S875      1.0  0.73896  0.93038  0.52865  1.0000
  S   S876      1.0  0.74028  0.89855  0.53196  1.0000
  Fe  Fe441     1.0  0.63937  0.49781  0.91578  1.0000
  S   S877      1.0  0.65054  0.50337  0.92734  1.0000
  Fe  Fe442     1.0  0.62054  0.52508  0.91268  1.0000
  S   S878      1.0  0.63012  0.53290  0.92401  1.0000
  S   S879      1.0  0.60153  0.53621  0.90599  1.0000
  Fe  Fe443     1.0  0.64931  0.52277  0.91258  1.0000
  S   S880      1.0  0.66732  0.53171  0.90505  1.0000
  Fe  Fe444     1.0  0.63074  0.51287  0.93793  1.0000
  S   S881      1.0  0.62661  0.50794  0.96019  1.0000
  S   S882      1.0  0.63979  0.51654  0.89972  1.0000
  S   S883      1.0  0.61954  0.50571  0.92773  1.0000
  Fe  Fe445     1.0  0.75019  0.53345  0.93036  1.0000
  S   S884      1.0  0.76623  0.51538  0.92761  1.0000
  S   S885      1.0  0.75361  0.55310  0.93083  1.0000
  Fe  Fe446     1.0  0.72809  0.51844  0.93553  1.0000
  S   S886      1.0  0.74261  0.49926  0.93290  1.0000
  S   S887      1.0  0.70654  0.51758  0.94397  1.0000
  Fe  Fe447     1.0  0.75347  0.50444  0.94502  1.0000
  H   H3946     1.0  0.64740  0.55078  0.97731  1.0000
  Fe  Fe448     1.0  0.75385  0.51210  0.91566  1.0000
  S   S888      1.0  0.76461  0.50697  0.89594  1.0000
  S   S889      1.0  0.73831  0.52283  0.94885  1.0000
  S   S890      1.0  0.73844  0.53103  0.91713  1.0000
  H   H3947     1.0  0.72188  0.95626  0.51061  1.0000
  H   H3948     1.0  0.74461  0.95614  0.53942  1.0000
  C   C3301     1.0  0.78099  0.91214  0.54105  1.0000
  C   C3302     1.0  0.64739  0.97393  0.51744  1.0000
  H   H3949     1.0  0.59515  0.98192  0.54951  1.0000
  H   H3950     1.0  0.76258  0.57512  0.93222  1.0000
  H   H3951     1.0  0.74610  0.48963  0.90796  1.0000
  C   C3303     1.0  0.74408  0.95861  0.56384  1.0000
  C   C3304     1.0  0.67802  0.52805  0.91606  1.0000
  C   C3305     1.0  0.67451  0.52153  0.92942  1.0000
  C   C3306     1.0  0.68335  0.51838  0.93787  1.0000
  C   C3307     1.0  0.69577  0.52168  0.93303  1.0000
  C   C3308     1.0  0.69921  0.52841  0.91976  1.0000
  C   C3309     1.0  0.69032  0.53166  0.91133  1.0000
  H   H3952     1.0  0.66493  0.51906  0.93330  1.0000
  H   H3953     1.0  0.68054  0.51342  0.94820  1.0000
  H   H3954     1.0  0.70870  0.53114  0.91599  1.0000
  H   H3955     1.0  0.69303  0.53695  0.90112  1.0000
  H   H3956     1.0  0.71351  0.94270  0.51642  1.0000
  H   H3957     1.0  0.59814  0.53859  0.97267  1.0000
  H   H3958     1.0  0.67725  0.91496  0.48302  1.0000
  H   H3959     1.0  0.67430  0.54558  0.94025  1.0000
  H   H3960     1.0  0.78264  0.48479  0.86784  1.0000
  H   H3961     1.0  0.60045  0.96007  0.58995  1.0000
  C   C3310     1.0  0.59563  0.87463  0.55490  1.0000
  C   C3311     1.0  0.67379  0.91658  0.51708  1.0000
  C   C3312     1.0  0.66979  0.91972  0.52965  1.0000
  C   C3313     1.0  0.67911  0.92142  0.53559  1.0000
  C   C3314     1.0  0.69248  0.91997  0.52903  1.0000
  C   C3315     1.0  0.69642  0.91707  0.51635  1.0000
  C   C3316     1.0  0.68711  0.91541  0.51041  1.0000
  H   H3962     1.0  0.65955  0.92070  0.53487  1.0000
  H   H3963     1.0  0.67596  0.92372  0.54537  1.0000
  H   H3964     1.0  0.70664  0.91588  0.51116  1.0000
  H   H3965     1.0  0.69030  0.91300  0.50068  1.0000
  H   H3966     1.0  0.69288  0.54392  0.94942  1.0000
  H   H3967     1.0  0.69136  0.94574  0.51116  1.0000
  H   H3968     1.0  0.66147  0.48787  0.85627  1.0000
  H   H3969     1.0  0.63774  0.94594  0.51930  1.0000
  H   H3970     1.0  0.74486  0.95530  0.57447  1.0000
  C   C3317     1.0  0.62287  0.51933  0.98096  1.0000
  H   H3971     1.0  0.62875  0.53541  0.94846  1.0000
  C   C3318     1.0  0.70184  0.97487  0.50197  1.0000
  H   H3972     1.0  0.77300  0.92850  0.52641  1.0000
  H   H3973     1.0  0.72038  0.50736  0.89660  1.0000
  C   C3319     1.0  0.77099  0.56679  0.93185  1.0000
  H   H3974     1.0  0.68638  0.87798  0.53392  1.0000
  H   H3975     1.0  0.75286  0.54585  0.97147  1.0000
  C   C3320     1.0  0.62639  0.53388  0.95911  1.0000
  C   C3321     1.0  0.75855  0.53843  0.97861  1.0000
  C   C3322     1.0  0.59451  0.55288  0.90734  1.0000
  H   H3976     1.0  0.61193  0.55650  0.91038  1.0000
  C   C3323     1.0  0.76337  0.95747  0.50377  1.0000
  C   C3324     1.0  0.74451  0.87714  0.48228  1.0000
  C   C3325     1.0  0.75276  0.93698  0.55907  1.0000
  C   C3326     1.0  0.59570  0.57364  0.91137  1.0000
  C   C3327     1.0  0.77099  0.96386  0.55535  1.0000
  H   H3977     1.0  0.67195  0.88327  0.51841  1.0000
  C   C3328     1.0  0.78324  0.56820  0.93270  1.0000
  H   H3978     1.0  0.70740  0.53302  0.96346  1.0000
  N   N228      1.0  0.77141  0.53137  0.97156  1.0000
  H   H3979     1.0  0.72870  0.88543  0.51546  1.0000
  C   C3329     1.0  0.65825  0.48864  0.98048  1.0000
  H   H3980     1.0  0.78198  0.54549  0.97190  1.0000
  C   C3330     1.0  0.59485  0.55930  0.94741  1.0000
  C   C3331     1.0  0.60705  0.96044  0.58023  1.0000
  H   H3981     1.0  0.70246  0.86193  0.54307  1.0000
  H   H3982     1.0  0.60136  0.57952  0.91327  1.0000
  C   C3332     1.0  0.69022  0.52007  0.87953  1.0000
  H   H3983     1.0  0.71956  0.88242  0.49995  1.0000
  H   H3984     1.0  0.77951  0.53459  0.92912  1.0000
  C   C3333     1.0  0.62416  0.54467  0.96497  1.0000
  H   H3985     1.0  0.75951  0.98260  0.48561  1.0000
  H   H3986     1.0  0.76384  0.97306  0.55319  1.0000
  C   C3334     1.0  0.62521  0.96947  0.56471  1.0000
  H   H3987     1.0  0.78420  0.57761  0.93370  1.0000
  H   H3988     1.0  0.74436  0.97861  0.48594  1.0000
  H   H3989     1.0  0.76347  0.51793  0.96595  1.0000
  C   C3335     1.0  0.69049  0.49220  0.91770  1.0000
  H   H3990     1.0  0.59514  0.63193  0.88237  1.0000
  H   H3991     1.0  0.68713  0.50222  0.97370  1.0000
  H   H3992     1.0  0.59964  0.55981  0.93668  1.0000
  C   C3336     1.0  0.75038  0.49567  0.97599  1.0000
  H   H3993     1.0  0.72306  0.50702  0.87459  1.0000
  H   H3994     1.0  0.71432  0.52299  0.87840  1.0000
  H   H3995     1.0  0.75382  0.49780  0.85867  1.0000
  C   C3337     1.0  0.69072  0.55804  0.97945  1.0000
  H   H3996     1.0  0.71515  0.88262  0.54456  1.0000
  C   C3338     1.0  0.75822  0.50215  0.87521  1.0000
  C   C3339     1.0  0.75214  0.49597  0.86943  1.0000
  C   C3340     1.0  0.70156  0.50370  0.89589  1.0000
  H   H3997     1.0  0.59000  0.56963  0.94865  1.0000
  C   C3341     1.0  0.76856  0.52629  0.96131  1.0000
  C   C3342     1.0  0.68248  0.88266  0.51458  1.0000
  H   H3998     1.0  0.63195  0.96342  0.54599  1.0000
  H   H3999     1.0  0.68356  0.96205  0.50327  1.0000
  H   H4000     1.0  0.73149  0.86813  0.51509  1.0000
  C   C3343     1.0  0.59387  0.62774  0.89331  1.0000
  C   C3344     1.0  0.76417  0.95354  0.49211  1.0000
  C   C3345     1.0  0.71153  0.49712  0.91544  1.0000
  C   C3346     1.0  0.78116  0.92400  0.53136  1.0000
  C   C3347     1.0  0.71189  0.50317  0.90198  1.0000
  H   H4001     1.0  0.74272  0.93684  0.55833  1.0000
  C   C3348     1.0  0.58862  0.94893  0.56478  1.0000
  N   N229      1.0  0.71330  0.87567  0.52820  1.0000
  N   N230      1.0  0.70357  0.96026  0.50447  1.0000
  C   C3349     1.0  0.73696  0.50014  0.97582  1.0000
  H   H4002     1.0  0.64401  0.49047  0.87511  1.0000
  H   H4003     1.0  0.59853  0.66952  0.90318  1.0000
  H   H4004     1.0  0.77128  0.96835  0.51269  1.0000
  H   H4005     1.0  0.73377  0.87270  0.52897  1.0000
  C   C3350     1.0  0.70090  0.88511  0.49584  1.0000
  C   C3351     1.0  0.60502  0.93049  0.57339  1.0000
  H   H4006     1.0  0.68986  0.52829  0.88411  1.0000
  C   C3352     1.0  0.77236  0.96460  0.50398  1.0000
  C   C3353     1.0  0.75426  0.95623  0.54119  1.0000
  C   C3354     1.0  0.62495  0.96260  0.55555  1.0000
  H   H4007     1.0  0.66620  0.49586  0.95967  1.0000
  H   H4008     1.0  0.59634  0.48673  0.96530  1.0000
  C   C3355     1.0  0.59561  0.89887  0.57087  1.0000
  C   C3356     1.0  0.68322  0.54542  0.95598  1.0000
  C   C3357     1.0  0.69079  0.49811  0.90423  1.0000
  C   C3358     1.0  0.59211  0.53722  0.94950  1.0000
  C   C3359     1.0  0.70457  0.87934  0.51865  1.0000
  H   H4009     1.0  0.59387  0.61698  0.89512  1.0000
  H   H4010     1.0  0.76229  0.95047  0.53454  1.0000
  C   C3360     1.0  0.63689  0.95620  0.51906  1.0000
  H   H4011     1.0  0.74389  0.96942  0.56072  1.0000
  H   H4012     1.0  0.59865  0.64599  0.90671  1.0000
  N   N231      1.0  0.69229  0.54537  0.97559  1.0000
  H   H4013     1.0  0.76458  0.50874  0.86892  1.0000
  S   S891      1.0  0.66125  0.97924  0.51760  1.0000
  H   H4014     1.0  0.65780  0.95365  0.51731  1.0000
  H   H4015     1.0  0.60402  0.93880  0.49359  1.0000
  C   C3361     1.0  0.60171  0.56058  0.90979  1.0000
  H   H4016     1.0  0.75378  0.93202  0.56947  1.0000
  H   H4017     1.0  0.61611  0.94939  0.55125  1.0000
  C   C3362     1.0  0.71249  0.86223  0.53664  1.0000
  C   C3363     1.0  0.78047  0.54395  0.93015  1.0000
  H   H4018     1.0  0.71383  0.51896  0.86343  1.0000
  H   H4019     1.0  0.68078  0.51674  0.88412  1.0000
  S   S892      1.0  0.61226  0.89787  0.56240  1.0000
  C   C3364     1.0  0.78224  0.96754  0.49261  1.0000
  N   N232      1.0  0.75502  0.95071  0.55536  1.0000
  C   C3365     1.0  0.66811  0.48891  0.96884  1.0000
  C   C3366     1.0  0.67256  0.54633  0.95054  1.0000
  C   C3367     1.0  0.65744  0.54921  0.97140  1.0000
  C   C3368     1.0  0.74547  0.88781  0.48676  1.0000
  C   C3369     1.0  0.70203  0.49853  0.87519  1.0000
  H   H4020     1.0  0.59645  0.89721  0.52571  1.0000
  C   C3370     1.0  0.69083  0.87976  0.52337  1.0000
  C   C3371     1.0  0.61623  0.96845  0.57698  1.0000
  H   H4021     1.0  0.69271  0.49488  0.87903  1.0000
  C   C3372     1.0  0.62450  0.96502  0.52040  1.0000
  C   C3373     1.0  0.62542  0.52127  0.96712  1.0000
  H   H4022     1.0  0.69028  0.56656  0.97067  1.0000
  H   H4023     1.0  0.68249  0.49828  0.90040  1.0000
  S   S893      1.0  0.75111  0.94798  0.49044  1.0000
  S   S894      1.0  0.76734  0.90465  0.54584  1.0000
  H   H4024     1.0  0.71945  0.85882  0.54349  1.0000
  H   H4025     1.0  0.77756  0.52286  0.95396  1.0000
  C   C3374     1.0  0.74422  0.48718  0.87751  1.0000
  H   H4026     1.0  0.75537  0.96672  0.53782  1.0000
  H   H4027     1.0  0.65153  0.54869  0.95399  1.0000
  H   H4028     1.0  0.73316  0.49805  0.96846  1.0000
  C   C3375     1.0  0.63518  0.98284  0.51764  1.0000
  C   C3376     1.0  0.72740  0.87544  0.52162  1.0000
  H   H4029     1.0  0.60024  0.88012  0.58453  1.0000
  C   C3377     1.0  0.69054  0.95656  0.50992  1.0000
  C   C3378     1.0  0.70935  0.88224  0.50455  1.0000
  C   C3379     1.0  0.70645  0.98280  0.48927  1.0000
  C   C3380     1.0  0.71198  0.95370  0.51432  1.0000
  C   C3381     1.0  0.70090  0.49161  0.92326  1.0000
  C   C3382     1.0  0.75614  0.49980  0.88909  1.0000
  C   C3383     1.0  0.70909  0.88533  0.53694  1.0000
  C   C3384     1.0  0.70558  0.54253  0.96666  1.0000
  C   C3385     1.0  0.64834  0.96062  0.51770  1.0000
  C   C3386     1.0  0.76799  0.95137  0.55695  1.0000
  H   H4030     1.0  0.68208  0.48817  0.92385  1.0000
  H   H4031     1.0  0.71494  0.85480  0.53036  1.0000
  C   C3387     1.0  0.62121  0.54276  0.97883  1.0000
  H   H4032     1.0  0.68576  0.95868  0.51998  1.0000
  H   H4033     1.0  0.69859  0.88628  0.54239  1.0000
  H   H4034     1.0  0.71947  0.49689  0.91991  1.0000
  H   H4035     1.0  0.70393  0.95913  0.48458  1.0000
  C   C3388     1.0  0.68126  0.54632  0.96944  1.0000
  S   S895      1.0  0.75438  0.88497  0.49908  1.0000
  H   H4036     1.0  0.65425  0.91741  0.48253  1.0000
  H   H4037     1.0  0.69023  0.52438  0.86879  1.0000
  C   C3389     1.0  0.61584  0.95456  0.55869  1.0000
  H   H4038     1.0  0.70747  0.95652  0.52411  1.0000
  C   C3390     1.0  0.77825  0.93990  0.55923  1.0000
  H   H4039     1.0  0.59419  0.94914  0.55428  1.0000
  H   H4040     1.0  0.75973  0.93074  0.55225  1.0000
  H   H4041     1.0  0.71023  0.89539  0.53099  1.0000
  H   H4042     1.0  0.62474  0.55447  0.95877  1.0000
  C   C3391     1.0  0.59134  0.65323  0.90177  1.0000
  H   H4043     1.0  0.72011  0.95652  0.48798  1.0000
  C   C3392     1.0  0.60364  0.92317  0.48484  1.0000
  H   H4044     1.0  0.74049  0.90904  0.48422  1.0000
  H   H4045     1.0  0.73421  0.95780  0.56326  1.0000
  H   H4046     1.0  0.74945  0.86712  0.48626  1.0000
  S   S896      1.0  0.60725  0.91020  0.49846  1.0000
  H   H4047     1.0  0.70683  0.55066  0.95759  1.0000
  H   H4048     1.0  0.69151  0.97629  0.52242  1.0000
  H   H4049     1.0  0.59477  0.93927  0.59585  1.0000
  N   N233      1.0  0.70198  0.50922  0.88147  1.0000
  C   C3393     1.0  0.71382  0.51480  0.87420  1.0000
  H   H4050     1.0  0.76208  0.53410  0.95520  1.0000
  H   H4051     1.0  0.77473  0.54961  0.95769  1.0000
  C   C3394     1.0  0.76950  0.55464  0.93070  1.0000
  N   N234      1.0  0.59742  0.94417  0.57439  1.0000
  C   C3395     1.0  0.62373  0.97842  0.51928  1.0000
  C   C3396     1.0  0.68750  0.88528  0.50085  1.0000
  C   C3397     1.0  0.70991  0.95478  0.49233  1.0000
  H   H4052     1.0  0.64871  0.49551  0.98036  1.0000
  S   S897      1.0  0.76139  0.49021  0.96224  1.0000
  H   H4053     1.0  0.60276  0.62822  0.89628  1.0000
  H   H4054     1.0  0.75528  0.95584  0.51225  1.0000
  C   C3398     1.0  0.60667  0.95311  0.57118  1.0000
  H   H4055     1.0  0.71366  0.54141  0.97174  1.0000
  C   C3399     1.0  0.60048  0.88178  0.54226  1.0000
  H   H4056     1.0  0.61097  0.87951  0.53784  1.0000
  H   H4057     1.0  0.63752  0.90679  0.48491  1.0000
  H   H4058     1.0  0.58935  0.62872  0.91867  1.0000
  H   H4059     1.0  0.70070  0.48699  0.93369  1.0000
  C   C3400     1.0  0.66800  0.54841  0.97692  1.0000
  H   H4060     1.0  0.70336  0.50188  0.86416  1.0000
  H   H4061     1.0  0.63915  0.48471  0.94983  1.0000
  C   C3401     1.0  0.74186  0.48507  0.89142  1.0000
  C   C3402     1.0  0.59249  0.88848  0.58164  1.0000
  C   C3403     1.0  0.77972  0.54121  0.96469  1.0000
  C   C3404     1.0  0.65972  0.54810  0.95825  1.0000
  C   C3405     1.0  0.59147  0.66665  0.89967  1.0000
  H   H4062     1.0  0.64281  0.95540  0.49083  1.0000
  H   H4063     1.0  0.59640  0.98086  0.82308  1.0000
  H   H4064     1.0  0.61265  0.92698  0.57950  1.0000
  C   C3406     1.0  0.59197  0.89206  0.53542  1.0000
  H   H4065     1.0  0.59544  0.53746  0.93858  1.0000
  H   H4066     1.0  0.60292  0.55565  0.95294  1.0000
  H   H4067     1.0  0.60121  0.53301  0.95351  1.0000
  C   C3407     1.0  0.60281  0.93638  0.48491  1.0000
  H   H4068     1.0  0.61015  0.92973  0.56297  1.0000
  H   H4069     1.0  0.68092  0.88771  0.49410  1.0000
  H   H4070     1.0  0.78608  0.88841  0.51033  1.0000
  H   H4071     1.0  0.77708  0.92998  0.56023  1.0000
  H   H4072     1.0  0.78552  0.97451  0.55455  1.0000
  H   H4073     1.0  0.61647  0.97390  0.58403  1.0000
  C   C3408     1.0  0.78342  0.96482  0.55602  1.0000
  H   H4074     1.0  0.59854  0.92319  0.57694  1.0000
  H   H4075     1.0  0.70478  0.88730  0.48512  1.0000
  H   H4076     1.0  0.60234  0.86692  0.56030  1.0000
  H   H4077     1.0  0.78622  0.89506  0.52388  1.0000
  C   C3409     1.0  0.58789  0.54317  0.97593  1.0000
  H   H4078     1.0  0.66325  0.98268  0.48556  1.0000
  H   H4079     1.0  0.63234  0.97566  0.56226  1.0000
  C   C3410     1.0  0.69545  0.98159  0.51253  1.0000
  C   C3411     1.0  0.58885  0.94335  0.58803  1.0000
  H   H4080     1.0  0.66443  0.94181  0.48202  1.0000
  C   C3412     1.0  0.77869  0.52051  0.98064  1.0000
  H   H4081     1.0  0.78102  0.48379  0.93713  1.0000
  H   H4082     1.0  0.58791  0.91790  0.55913  1.0000
  C   C3413     1.0  0.73919  0.90071  0.48145  1.0000
  C   C3414     1.0  0.86582  0.03995  0.46672  1.0000
  C   C3415     1.0  0.95978  0.16478  0.44906  1.0000
  H   H4083     1.0  0.97105  0.39916  0.26827  1.0000
  Fe  Fe449     1.0  0.84161  0.44421  0.99868  1.0000
  S   S898      1.0  0.84980  0.42447  0.01077  1.0000
  H   H4084     1.0  0.84281  0.07012  0.46947  1.0000
  Fe  Fe450     1.0  0.82358  0.45398  0.02318  1.0000
  S   S899      1.0  0.83018  0.43494  0.03743  1.0000
  S   S900      1.0  0.81059  0.47292  0.02874  1.0000
  Fe  Fe451     1.0  0.85087  0.43570  0.02528  1.0000
  S   S901      1.0  0.87001  0.43614  0.03025  1.0000
  Fe  Fe452     1.0  0.82849  0.42555  0.02172  1.0000
  S   S902      1.0  0.81954  0.40780  0.02617  1.0000
  S   S903      1.0  0.84407  0.45540  0.01212  1.0000
  S   S904      1.0  0.82033  0.44451  0.00853  1.0000
  Fe  Fe453     1.0  0.93492  0.43434  0.08035  1.0000
  S   S905      1.0  0.92880  0.41488  0.08994  1.0000
  S   S906      1.0  0.95451  0.43832  0.06787  1.0000
  Fe  Fe454     1.0  0.91033  0.44997  0.09518  1.0000
  S   S907      1.0  0.90211  0.43209  0.10656  1.0000
  S   S908      1.0  0.90077  0.47101  0.09633  1.0000
  Fe  Fe455     1.0  0.92289  0.42238  0.10884  1.0000
  S   S909      1.0  0.92977  0.40942  0.12727  1.0000
  Fe  Fe456     1.0  0.90844  0.42614  0.08669  1.0000
  S   S910      1.0  0.89357  0.41706  0.08274  1.0000
  S   S911      1.0  0.93036  0.44092  0.09943  1.0000
  S   S912      1.0  0.91524  0.44493  0.07520  1.0000
  Fe  Fe457     1.0  0.95270  0.41508  0.20062  1.0000
  S   S913      1.0  0.93134  0.41384  0.20805  1.0000
  C   C3416     1.0  0.78732  0.45060  0.03210  1.0000
  Fe  Fe458     1.0  0.94664  0.44480  0.19487  1.0000
  S   S914      1.0  0.92494  0.44619  0.20209  1.0000
  Fe  Fe459     1.0  0.93004  0.42943  0.21897  1.0000
  S   S915      1.0  0.91834  0.42883  0.24021  1.0000
  Fe  Fe460     1.0  0.92817  0.43080  0.19043  1.0000
  S   S916      1.0  0.91393  0.43618  0.17689  1.0000
  S   S917      1.0  0.95162  0.42939  0.21280  1.0000
  S   S918      1.0  0.94967  0.43059  0.18203  1.0000
  Fe  Fe461     1.0  0.85529  0.01830  0.41666  1.0000
  S   S919      1.0  0.85374  0.03212  0.39676  1.0000
  S   S920      1.0  0.86628  0.99688  0.41916  1.0000
  Fe  Fe462     1.0  0.83801  0.03900  0.43193  1.0000
  S   S921      1.0  0.83413  0.05423  0.41358  1.0000
  S   S922      1.0  0.82928  0.04295  0.45251  1.0000
  Fe  Fe463     1.0  0.83220  0.03737  0.40630  1.0000
  S   S923      1.0  0.81772  0.03622  0.39534  1.0000
  Fe  Fe464     1.0  0.85601  0.04791  0.40560  1.0000
  S   S924      1.0  0.86540  0.06561  0.39466  1.0000
  S   S925      1.0  0.83361  0.02282  0.42564  1.0000
  S   S926      1.0  0.86001  0.03333  0.42439  1.0000
  Fe  Fe465     1.0  0.91799  0.09680  0.41079  1.0000
  S   S927      1.0  0.93558  0.09174  0.42015  1.0000
  S   S928      1.0  0.91274  0.07761  0.41080  1.0000
  Fe  Fe466     1.0  0.91274  0.12627  0.41155  1.0000
  S   S929      1.0  0.92928  0.12310  0.42151  1.0000
  S   S930      1.0  0.89987  0.14686  0.41013  1.0000
  Fe  Fe467     1.0  0.94088  0.11057  0.40677  1.0000
  S   S931      1.0  0.96136  0.11405  0.39624  1.0000
  Fe  Fe468     1.0  0.92254  0.10469  0.43385  1.0000
  S   S932      1.0  0.91949  0.09756  0.45597  1.0000
  S   S933      1.0  0.92457  0.11469  0.39583  1.0000
  S   S934      1.0  0.90481  0.10896  0.42538  1.0000
  Fe  Fe469     1.0  0.93891  0.23054  0.39760  1.0000
  S   S935      1.0  0.94533  0.22184  0.41681  1.0000
  S   S936      1.0  0.94242  0.25088  0.38669  1.0000
  Fe  Fe470     1.0  0.93383  0.20435  0.39651  1.0000
  S   S937      1.0  0.93984  0.19344  0.41573  1.0000
  S   S938      1.0  0.93120  0.19283  0.38324  1.0000
  Fe  Fe471     1.0  0.92822  0.21195  0.42288  1.0000
  H   H4085     1.0  0.86059  0.07358  0.44980  1.0000
  Fe  Fe472     1.0  0.95638  0.20418  0.40813  1.0000
  S   S939      1.0  0.97747  0.19419  0.40859  1.0000
  S   S940      1.0  0.92057  0.22222  0.40419  1.0000
  S   S941      1.0  0.95141  0.21364  0.38827  1.0000
  Fe  Fe473     1.0  0.94699  0.43337  0.32633  1.0000
  S   S942      1.0  0.92782  0.43071  0.34047  1.0000
  S   S943      1.0  0.96455  0.43053  0.33468  1.0000
  Fe  Fe474     1.0  0.93632  0.43812  0.30170  1.0000
  H   H4086     1.0  0.82737  0.38791  0.00345  1.0000
  H   H4087     1.0  0.91008  0.99019  0.47542  1.0000
  Fe  Fe475     1.0  0.92709  0.41832  0.32709  1.0000
  S   S944      1.0  0.92282  0.39771  0.33426  1.0000
  H   H4088     1.0  0.97682  0.36319  0.39823  1.0000
  S   S945      1.0  0.94704  0.41986  0.31386  1.0000
  S   S946      1.0  0.94536  0.30918  0.41450  1.0000
  Fe  Fe476     1.0  0.92808  0.34549  0.40157  1.0000
  S   S947      1.0  0.93486  0.33039  0.38877  1.0000
  S   S948      1.0  0.92033  0.36764  0.39467  1.0000
  Fe  Fe477     1.0  0.92646  0.31667  0.40755  1.0000
  S   S949      1.0  0.91422  0.30191  0.41002  1.0000
  Fe  Fe478     1.0  0.95307  0.32427  0.39722  1.0000
  H   H4089     1.0  0.94536  0.45025  0.34741  1.0000
  S   S950      1.0  0.91831  0.33217  0.41992  1.0000
  S   S951      1.0  0.94690  0.34040  0.40859  1.0000
  C   C3417     1.0  0.93631  0.15579  0.41908  1.0000
  S   S952      1.0  0.88110  0.03449  0.47139  1.0000
  C   C3418     1.0  0.96271  0.46795  0.26479  1.0000
  H   H4090     1.0  0.96267  0.37693  0.25607  1.0000
  H   H4091     1.0  0.96841  0.31982  0.41484  1.0000
  H   H4092     1.0  0.79161  0.02494  0.42976  1.0000
  C   C3419     1.0  0.92413  0.38900  0.35069  1.0000
  C   C3420     1.0  0.92479  0.37524  0.35442  1.0000
  C   C3421     1.0  0.92456  0.36833  0.36776  1.0000
  C   C3422     1.0  0.92329  0.37524  0.37751  1.0000
  C   C3423     1.0  0.92305  0.38890  0.37370  1.0000
  C   C3424     1.0  0.92357  0.39572  0.36034  1.0000
  H   H4093     1.0  0.92523  0.36995  0.34701  1.0000
  H   H4094     1.0  0.92468  0.35781  0.37060  1.0000
  H   H4095     1.0  0.92211  0.39433  0.38116  1.0000
  H   H4096     1.0  0.92290  0.40631  0.35768  1.0000
  H   H4097     1.0  0.81510  0.38530  0.99655  1.0000
  C   C3425     1.0  0.91659  0.04815  0.47188  1.0000
  H   H4098     1.0  0.87346  0.45481  0.00303  1.0000
  H   H4099     1.0  0.91658  0.30722  0.37724  1.0000
  C   C3426     1.0  0.97043  0.44132  0.11443  1.0000
  H   H4100     1.0  0.94335  0.23522  0.46356  1.0000
  H   H4101     1.0  0.90956  0.19168  0.47569  1.0000
  H   H4102     1.0  0.96566  0.44520  0.30738  1.0000
  C   C3427     1.0  0.93558  0.26397  0.39509  1.0000
  C   C3428     1.0  0.94169  0.27478  0.39141  1.0000
  C   C3429     1.0  0.93555  0.28618  0.39662  1.0000
  C   C3430     1.0  0.92306  0.28696  0.40519  1.0000
  C   C3431     1.0  0.91720  0.27593  0.40933  1.0000
  C   C3432     1.0  0.92357  0.26434  0.40448  1.0000
  H   H4103     1.0  0.95100  0.27452  0.38416  1.0000
  H   H4104     1.0  0.94013  0.29465  0.39339  1.0000
  H   H4105     1.0  0.90758  0.27649  0.41604  1.0000
  H   H4106     1.0  0.91886  0.25600  0.40749  1.0000
  C   C3433     1.0  0.95553  0.48294  0.08548  1.0000
  C   C3434     1.0  0.97150  0.36703  0.47160  1.0000
  C   C3435     1.0  0.79885  0.41090  0.98492  1.0000
  C   C3436     1.0  0.78709  0.46428  0.00418  1.0000
  C   C3437     1.0  0.97885  0.11064  0.47237  1.0000
  H   H4107     1.0  0.78819  0.47104  0.05134  1.0000
  C   C3438     1.0  0.82380  0.00024  0.47636  1.0000
  H   H4108     1.0  0.87709  0.09983  0.44030  1.0000
  H   H4109     1.0  0.90011  0.07334  0.45867  1.0000
  C   C3439     1.0  0.91842  0.48192  0.33078  1.0000
  H   H4110     1.0  0.94679  0.25459  0.46588  1.0000
  C   C3440     1.0  0.87333  0.07797  0.45988  1.0000
  C   C3441     1.0  0.79289  0.01721  0.45067  1.0000
  C   C3442     1.0  0.98232  0.40404  0.13254  1.0000
  C   C3443     1.0  0.90222  0.28202  0.37952  1.0000
  H   H4111     1.0  0.92851  0.46949  0.09508  1.0000
  H   H4112     1.0  0.89944  0.47548  0.26240  1.0000
  C   C3444     1.0  0.97608  0.20921  0.42593  1.0000
  H   H4113     1.0  0.96083  0.10230  0.42431  1.0000
  C   C3445     1.0  0.90888  0.15941  0.40295  1.0000
  C   C3446     1.0  0.91912  0.15841  0.39163  1.0000
  C   C3447     1.0  0.92589  0.16875  0.38563  1.0000
  C   C3448     1.0  0.92277  0.17991  0.39118  1.0000
  C   C3449     1.0  0.91282  0.18073  0.40275  1.0000
  C   C3450     1.0  0.90573  0.17059  0.40850  1.0000
  H   H4114     1.0  0.92156  0.14983  0.38728  1.0000
  H   H4115     1.0  0.93350  0.16811  0.37662  1.0000
  H   H4116     1.0  0.91030  0.18937  0.40702  1.0000
  H   H4117     1.0  0.89779  0.17140  0.41723  1.0000
  C   C3451     1.0  0.93758  0.11189  0.45415  1.0000
  C   C3452     1.0  0.92748  0.10560  0.46239  1.0000
  N   N235      1.0  0.95830  0.39824  0.24980  1.0000
  H   H4118     1.0  0.94098  0.11128  0.44381  1.0000
  H   H4119     1.0  0.96609  0.46213  0.08938  1.0000
  C   C3453     1.0  0.87792  0.06910  0.40009  1.0000
  C   C3454     1.0  0.88613  0.05906  0.40749  1.0000
  C   C3455     1.0  0.89673  0.06189  0.41062  1.0000
  C   C3456     1.0  0.89900  0.07485  0.40680  1.0000
  C   C3457     1.0  0.89048  0.08501  0.39984  1.0000
  C   C3458     1.0  0.88011  0.08209  0.39634  1.0000
  H   H4120     1.0  0.88466  0.04900  0.41033  1.0000
  H   H4121     1.0  0.90331  0.05393  0.41590  1.0000
  H   H4122     1.0  0.89215  0.09500  0.39677  1.0000
  H   H4123     1.0  0.87386  0.08992  0.39056  1.0000
  C   C3459     1.0  0.84233  0.04437  0.45834  1.0000
  C   C3460     1.0  0.85363  0.04758  0.44917  1.0000
  C   C3461     1.0  0.86553  0.04473  0.45323  1.0000
  H   H4124     1.0  0.98472  0.13957  0.47385  1.0000
  C   C3462     1.0  0.98420  0.11675  0.40070  1.0000
  C   C3463     1.0  0.85876  0.47802  0.98867  1.0000
  H   H4125     1.0  0.85332  0.05182  0.43882  1.0000
  H   H4126     1.0  0.87455  0.04577  0.44585  1.0000
  C   C3464     1.0  0.86225  0.00456  0.47585  1.0000
  H   H4127     1.0  0.88217  0.08208  0.47405  1.0000
  C   C3465     1.0  0.92507  0.43342  0.25101  1.0000
  C   C3466     1.0  0.93619  0.43900  0.24617  1.0000
  H   H4128     1.0  0.88353  0.39906  0.40098  1.0000
  C   C3467     1.0  0.93624  0.43951  0.26875  1.0000
  C   C3468     1.0  0.92498  0.43415  0.27360  1.0000
  C   C3469     1.0  0.91937  0.43118  0.26472  1.0000
  C   C3470     1.0  0.79759  0.05196  0.40992  1.0000
  H   H4129     1.0  0.89308  0.27891  0.38463  1.0000
  H   H4130     1.0  0.92063  0.43224  0.28418  1.0000
  H   H4131     1.0  0.91072  0.42690  0.26851  1.0000
  C   C3471     1.0  0.92584  0.41726  0.14071  1.0000
  C   C3472     1.0  0.93240  0.41163  0.15126  1.0000
  C   C3473     1.0  0.92906  0.41756  0.16227  1.0000
  C   C3474     1.0  0.91895  0.42899  0.16288  1.0000
  C   C3475     1.0  0.91239  0.43458  0.15233  1.0000
  C   C3476     1.0  0.91593  0.42883  0.14120  1.0000
  H   H4132     1.0  0.94002  0.40263  0.15096  1.0000
  H   H4133     1.0  0.93408  0.41312  0.17042  1.0000
  H   H4134     1.0  0.90445  0.44333  0.15283  1.0000
  H   H4135     1.0  0.91067  0.43305  0.13323  1.0000
  C   C3477     1.0  0.79975  0.03785  0.44627  1.0000
  C   C3478     1.0  0.78798  0.02977  0.46835  1.0000
  C   C3479     1.0  0.94843  0.39903  0.24217  1.0000
  H   H4136     1.0  0.94039  0.27658  0.47042  1.0000
  C   C3480     1.0  0.87564  0.43146  0.04537  1.0000
  C   C3481     1.0  0.86985  0.42320  0.05687  1.0000
  C   C3482     1.0  0.87536  0.41898  0.06827  1.0000
  C   C3483     1.0  0.88656  0.42316  0.06840  1.0000
  C   C3484     1.0  0.89206  0.43178  0.05706  1.0000
  C   C3485     1.0  0.88672  0.43578  0.04559  1.0000
  H   H4137     1.0  0.86138  0.41973  0.05683  1.0000
  H   H4138     1.0  0.87103  0.41229  0.07697  1.0000
  H   H4139     1.0  0.90069  0.43506  0.05698  1.0000
  H   H4140     1.0  0.89136  0.44208  0.03674  1.0000
  H   H4141     1.0  0.94001  0.48325  0.35378  1.0000
  H   H4142     1.0  0.93783  0.40218  0.30117  1.0000
  C   C3486     1.0  0.80264  0.40898  0.02729  1.0000
  H   H4143     1.0  0.96118  0.46237  0.32963  1.0000
  C   C3487     1.0  0.83102  0.46971  0.04037  1.0000
  C   C3488     1.0  0.83983  0.47418  0.04454  1.0000
  H   H4144     1.0  0.79574  0.40833  0.99566  1.0000
  H   H4145     1.0  0.94914  0.25445  0.42207  1.0000
  H   H4146     1.0  0.83243  0.45922  0.04110  1.0000
  H   H4147     1.0  0.84795  0.46708  0.04839  1.0000
  C   C3489     1.0  0.89391  0.48262  0.17766  1.0000
  H   H4148     1.0  0.80955  0.03225  0.44843  1.0000
  H   H4149     1.0  0.96590  0.20850  0.42952  1.0000
  C   C3490     1.0  0.95072  0.15680  0.45204  1.0000
  C   C3491     1.0  0.95237  0.19759  0.45462  1.0000
  C   C3492     1.0  0.98210  0.27514  0.43104  1.0000
  H   H4150     1.0  0.92660  0.48349  0.25247  1.0000
  H   H4151     1.0  0.91357  0.48124  0.29730  1.0000
  C   C3493     1.0  0.96629  0.44268  0.36089  1.0000
  H   H4152     1.0  0.96191  0.45294  0.15465  1.0000
  H   H4153     1.0  0.97396  0.36150  0.36506  1.0000
  C   C3494     1.0  0.97608  0.43910  0.32327  1.0000
  N   N236      1.0  0.91294  0.47959  0.27150  1.0000
  C   C3495     1.0  0.96730  0.43057  0.07650  1.0000
  H   H4154     1.0  0.88703  0.48287  0.34918  1.0000
  H   H4155     1.0  0.97472  0.40770  0.24599  1.0000
  S   S953      1.0  0.90256  0.46458  0.33308  1.0000
  C   C3496     1.0  0.93076  0.28442  0.44108  1.0000
  C   C3497     1.0  0.96582  0.45620  0.35409  1.0000
  H   H4156     1.0  0.85105  0.00058  0.45894  1.0000
  C   C3498     1.0  0.91206  0.15578  0.45289  1.0000
  C   C3499     1.0  0.98353  0.41282  0.20487  1.0000
  C   C3500     1.0  0.96980  0.10598  0.41990  1.0000
  H   H4157     1.0  0.90907  0.45562  0.12073  1.0000
  C   C3501     1.0  0.81084  0.48295  0.06937  1.0000
  H   H4158     1.0  0.93407  0.23348  0.44096  1.0000
  H   H4159     1.0  0.95674  0.23759  0.42788  1.0000
  H   H4160     1.0  0.93269  0.27378  0.35931  1.0000
  C   C3502     1.0  0.90372  0.29380  0.38149  1.0000
  H   H4161     1.0  0.97296  0.13672  0.46657  1.0000
  C   C3503     1.0  0.80107  0.04273  0.40189  1.0000
  H   H4162     1.0  0.92424  0.24396  0.45218  1.0000
  C   C3504     1.0  0.84484  0.98905  0.43748  1.0000
  C   C3505     1.0  0.91628  0.16544  0.47317  1.0000
  H   H4163     1.0  0.80519  0.05521  0.41214  1.0000
  C   C3506     1.0  0.95792  0.46858  0.27823  1.0000
  C   C3507     1.0  0.92694  0.21059  0.46546  1.0000
  H   H4164     1.0  0.96843  0.16903  0.41556  1.0000
  H   H4165     1.0  0.96704  0.35260  0.38134  1.0000
  H   H4166     1.0  0.96503  0.37864  0.39898  1.0000
  H   H4167     1.0  0.97797  0.42419  0.36980  1.0000
  C   C3508     1.0  0.97822  0.42846  0.28187  1.0000
  H   H4168     1.0  0.94297  0.39089  0.24662  1.0000
  C   C3509     1.0  0.91514  0.15208  0.47533  1.0000
  C   C3510     1.0  0.97828  0.38108  0.37364  1.0000
  H   H4169     1.0  0.84298  0.99823  0.44058  1.0000
  H   H4170     1.0  0.93934  0.45473  0.36351  1.0000
  H   H4171     1.0  0.92534  0.34194  0.45008  1.0000
  H   H4172     1.0  0.89604  0.29930  0.38818  1.0000
  C   C3511     1.0  0.96055  0.39986  0.27202  1.0000
  C   C3512     1.0  0.97751  0.46094  0.35159  1.0000
  H   H4173     1.0  0.97198  0.29612  0.43054  1.0000
  C   C3513     1.0  0.95830  0.43824  0.11605  1.0000
  H   H4174     1.0  0.97406  0.47731  0.13864  1.0000
  C   C3514     1.0  0.97141  0.45051  0.12095  1.0000
  H   H4175     1.0  0.98471  0.10049  0.47140  1.0000
  H   H4176     1.0  0.94118  0.45751  0.21433  1.0000
  C   C3515     1.0  0.90349  0.47561  0.10958  1.0000
  C   C3516     1.0  0.91530  0.29832  0.37531  1.0000
  H   H4177     1.0  0.94310  0.35924  0.47166  1.0000
  H   H4178     1.0  0.92069  0.24531  0.35993  1.0000
  C   C3517     1.0  0.92944  0.20674  0.45337  1.0000
  N   N237      1.0  0.91060  0.26181  0.36951  1.0000
  H   H4179     1.0  0.96937  0.43190  0.28895  1.0000
  C   C3518     1.0  0.93364  0.40130  0.28298  1.0000
  H   H4180     1.0  0.97968  0.46677  0.22698  1.0000
  H   H4181     1.0  0.87709  0.41946  0.38837  1.0000
  H   H4182     1.0  0.93116  0.25180  0.36545  1.0000
  S   S954      1.0  0.94338  0.44378  0.27937  1.0000
  C   C3519     1.0  0.98021  0.36200  0.46055  1.0000
  C   C3520     1.0  0.92549  0.29104  0.36719  1.0000
  C   C3521     1.0  0.98249  0.32459  0.39644  1.0000
  H   H4183     1.0  0.91321  0.17522  0.44050  1.0000
  H   H4184     1.0  0.89847  0.25647  0.38932  1.0000
  H   H4185     1.0  0.87132  0.43793  0.08959  1.0000
  C   C3522     1.0  0.93922  0.32528  0.45866  1.0000
  H   H4186     1.0  0.95421  0.13495  0.41116  1.0000
  H   H4187     1.0  0.98367  0.41020  0.17684  1.0000
  C   C3523     1.0  0.93873  0.40049  0.26961  1.0000
  C   C3524     1.0  0.89433  0.41997  0.35133  1.0000
  H   H4188     1.0  0.86713  0.47752  0.06608  1.0000
  H   H4189     1.0  0.91009  0.15218  0.44529  1.0000
  H   H4190     1.0  0.89893  0.39178  0.39135  1.0000
  N   N238      1.0  0.88230  0.39482  0.38272  1.0000
  H   H4191     1.0  0.91965  0.46361  0.28721  1.0000
  H   H4192     1.0  0.94933  0.47366  0.23853  1.0000
  H   H4193     1.0  0.91981  0.48282  0.16700  1.0000
  C   C3525     1.0  0.89094  0.43147  0.35623  1.0000
  H   H4194     1.0  0.91735  0.18353  0.45753  1.0000
  N   N239      1.0  0.83399  0.07742  0.37355  1.0000
  C   C3526     1.0  0.84407  0.08432  0.36376  1.0000
  C   C3527     1.0  0.83083  0.08229  0.38600  1.0000
  C   C3528     1.0  0.84013  0.06300  0.37626  1.0000
  C   C3529     1.0  0.82165  0.07963  0.36898  1.0000
  C   C3530     1.0  0.81939  0.08814  0.35662  1.0000
  C   C3531     1.0  0.81135  0.07325  0.37713  1.0000
  N   N240      1.0  0.96063  0.46707  0.13602  1.0000
  C   C3532     1.0  0.96921  0.41049  0.13641  1.0000
  C   C3533     1.0  0.82063  0.47875  0.03514  1.0000
  H   H4195     1.0  0.85322  0.08225  0.36759  1.0000
  H   H4196     1.0  0.84715  0.08092  0.35421  1.0000
  H   H4197     1.0  0.84043  0.09531  0.36170  1.0000
  H   H4198     1.0  0.82622  0.09310  0.38434  1.0000
  H   H4199     1.0  0.83986  0.08072  0.38986  1.0000
  H   H4200     1.0  0.82385  0.07712  0.39416  1.0000
  H   H4201     1.0  0.84200  0.05883  0.36732  1.0000
  H   H4202     1.0  0.84974  0.06098  0.37918  1.0000
  H   H4203     1.0  0.83384  0.05714  0.38454  1.0000
  H   H4204     1.0  0.82660  0.09346  0.34976  1.0000
  H   H4205     1.0  0.81234  0.06666  0.38667  1.0000
  C   C3534     1.0  0.93748  0.47184  0.09615  1.0000
  C   C3535     1.0  0.91302  0.14740  0.46531  1.0000
  C   C3536     1.0  0.80053  0.99221  0.44342  1.0000
  C   C3537     1.0  0.93930  0.11925  0.47290  1.0000
  H   H4206     1.0  0.80642  0.01021  0.39646  1.0000
  H   H4207     1.0  0.97859  0.19563  0.37522  1.0000
  H   H4208     1.0  0.79803  0.43717  0.04663  1.0000
  C   C3538     1.0  0.95159  0.48069  0.28178  1.0000
  H   H4209     1.0  0.95676  0.46998  0.15608  1.0000
  H   H4210     1.0  0.87159  0.08884  0.43416  1.0000
  H   H4211     1.0  0.89779  0.25575  0.36117  1.0000
  H   H4212     1.0  0.98131  0.46056  0.13683  1.0000
  H   H4213     1.0  0.88810  0.09091  0.42803  1.0000
  H   H4214     1.0  0.95317  0.39816  0.23165  1.0000
  C   C3539     1.0  0.98151  0.39995  0.20736  1.0000
  C   C3540     1.0  0.90349  0.98681  0.47175  1.0000
  C   C3541     1.0  0.93907  0.46818  0.21093  1.0000
  C   C3542     1.0  0.92870  0.05875  0.44581  1.0000
  H   H4215     1.0  0.90980  0.45955  0.27876  1.0000
  H   H4216     1.0  0.87245  0.44572  0.10882  1.0000
  C   C3543     1.0  0.96666  0.17168  0.37085  1.0000
  C   C3544     1.0  0.94726  0.47277  0.07279  1.0000
  H   H4217     1.0  0.98440  0.27006  0.40039  1.0000
  H   H4218     1.0  0.94420  0.46214  0.09907  1.0000
  C   C3545     1.0  0.97885  0.26127  0.45382  1.0000
  H   H4219     1.0  0.93174  0.16646  0.41904  1.0000
  C   C3546     1.0  0.97876  0.10458  0.42777  1.0000
  N   N241      1.0  0.89655  0.39355  0.12622  1.0000
  C   C3547     1.0  0.88764  0.39955  0.11671  1.0000
  C   C3548     1.0  0.91032  0.39299  0.11835  1.0000
  C   C3549     1.0  0.89479  0.37978  0.13245  1.0000
  C   C3550     1.0  0.89401  0.40102  0.13674  1.0000
  C   C3551     1.0  0.88404  0.41287  0.13755  1.0000
  C   C3552     1.0  0.90174  0.39654  0.14656  1.0000
  C   C3553     1.0  0.88208  0.41974  0.14753  1.0000
  C   C3554     1.0  0.89965  0.40345  0.15652  1.0000
  C   C3555     1.0  0.88986  0.41504  0.15700  1.0000
  H   H4220     1.0  0.88874  0.40981  0.11136  1.0000
  H   H4221     1.0  0.88997  0.39391  0.10873  1.0000
  H   H4222     1.0  0.87710  0.39982  0.12180  1.0000
  H   H4223     1.0  0.91220  0.40315  0.11423  1.0000
  H   H4224     1.0  0.91245  0.38819  0.10978  1.0000
  H   H4225     1.0  0.91780  0.38745  0.12440  1.0000
  H   H4226     1.0  0.90204  0.37413  0.13875  1.0000
  H   H4227     1.0  0.88472  0.37980  0.13891  1.0000
  H   H4228     1.0  0.89617  0.37403  0.12479  1.0000
  H   H4229     1.0  0.87776  0.41717  0.13047  1.0000
  H   H4230     1.0  0.90977  0.38788  0.14637  1.0000
  H   H4231     1.0  0.87462  0.42889  0.14783  1.0000
  H   H4232     1.0  0.90599  0.40010  0.16363  1.0000
  H   H4233     1.0  0.88856  0.42055  0.16452  1.0000
  C   C3556     1.0  0.88735  0.38307  0.37653  1.0000
  C   C3557     1.0  0.88821  0.39179  0.39449  1.0000
  H   H4234     1.0  0.89314  0.44069  0.34966  1.0000
  H   H4235     1.0  0.88736  0.38180  0.40098  1.0000
  H   H4236     1.0  0.94827  0.37171  0.38388  1.0000
  C   C3558     1.0  0.95498  0.48164  0.23392  1.0000
  C   C3559     1.0  0.95531  0.40086  0.28533  1.0000
  H   H4237     1.0  0.96320  0.29333  0.45428  1.0000
  H   H4238     1.0  0.89361  0.47213  0.17840  1.0000
  H   H4239     1.0  0.79915  0.42758  0.01300  1.0000
  H   H4240     1.0  0.98148  0.45851  0.29186  1.0000
  C   C3560     1.0  0.94033  0.26048  0.44684  1.0000
  H   H4241     1.0  0.90195  0.47016  0.29029  1.0000
  C   C3561     1.0  0.91375  0.16873  0.45024  1.0000
  C   C3562     1.0  0.80431  0.00047  0.39864  1.0000
  C   C3563     1.0  0.87186  0.01168  0.45251  1.0000
  H   H4242     1.0  0.88267  0.38421  0.36812  1.0000
  H   H4243     1.0  0.79750  0.02508  0.47154  1.0000
  C   C3564     1.0  0.91244  0.27428  0.37139  1.0000
  H   H4244     1.0  0.89470  0.39953  0.35521  1.0000
  C   C3565     1.0  0.93133  0.47618  0.21986  1.0000
  C   C3566     1.0  0.96325  0.16532  0.42556  1.0000
  C   C3567     1.0  0.93784  0.06769  0.47808  1.0000
  C   C3568     1.0  0.79722  0.39827  0.03537  1.0000
  C   C3569     1.0  0.97256  0.11193  0.40630  1.0000
  C   C3570     1.0  0.91471  0.04450  0.46111  1.0000
  H   H4245     1.0  0.86241  0.01890  0.45119  1.0000
  H   H4246     1.0  0.94732  0.06187  0.47318  1.0000
  C   C3571     1.0  0.96555  0.41715  0.14677  1.0000
  H   H4247     1.0  0.79529  0.46636  0.00708  1.0000
  C   C3572     1.0  0.87114  0.45281  0.09958  1.0000
  H   H4248     1.0  0.79578  0.00478  0.47034  1.0000
  C   C3573     1.0  0.78799  0.98750  0.40258  1.0000
  C   C3574     1.0  0.93732  0.20830  0.47189  1.0000
  H   H4249     1.0  0.95538  0.42236  0.14961  1.0000
  H   H4250     1.0  0.98520  0.39918  0.12421  1.0000
  C   C3575     1.0  0.90781  0.25254  0.38264  1.0000
  H   H4251     1.0  0.93898  0.45776  0.13718  1.0000
  C   C3576     1.0  0.98087  0.26907  0.41139  1.0000
  C   C3577     1.0  0.92973  0.33721  0.45865  1.0000
  C   C3578     1.0  0.88007  0.09015  0.43722  1.0000
  H   H4252     1.0  0.91714  0.21581  0.46956  1.0000
  C   C3579     1.0  0.98466  0.40083  0.35747  1.0000
  H   H4253     1.0  0.89147  0.47960  0.20419  1.0000
  C   C3580     1.0  0.95344  0.24754  0.43046  1.0000
  H   H4254     1.0  0.90904  0.47384  0.20354  1.0000
  H   H4255     1.0  0.91589  0.25052  0.38796  1.0000
  C   C3581     1.0  0.95390  0.15733  0.42828  1.0000
  C   C3582     1.0  0.89138  0.99516  0.46976  1.0000
  C   C3583     1.0  0.94177  0.44202  0.25501  1.0000
  C   C3584     1.0  0.79732  0.00385  0.43404  1.0000
  Fe  Fe479     1.0  0.93802  0.32560  0.42559  1.0000
  H   H4256     1.0  0.89810  0.06600  0.43573  1.0000
  H   H4257     1.0  0.86744  0.01068  0.47854  1.0000
  H   H4258     1.0  0.80074  0.03961  0.43535  1.0000
  C   C3585     1.0  0.97352  0.35978  0.37591  1.0000
  C   C3586     1.0  0.94104  0.32499  0.48085  1.0000
  C   C3587     1.0  0.93871  0.27522  0.46140  1.0000
  H   H4259     1.0  0.86504  0.38720  0.39412  1.0000
  C   C3588     1.0  0.95652  0.15973  0.40397  1.0000
  C   C3589     1.0  0.79369  0.01618  0.43752  1.0000
  H   H4260     1.0  0.93381  0.15335  0.41078  1.0000
  H   H4261     1.0  0.93773  0.44157  0.12581  1.0000
  H   H4262     1.0  0.96242  0.25058  0.43057  1.0000
  H   H4263     1.0  0.95750  0.41522  0.08952  1.0000
  C   C3590     1.0  0.87383  0.07952  0.47250  1.0000
  H   H4264     1.0  0.97618  0.40360  0.10063  1.0000
  H   H4265     1.0  0.95274  0.22668  0.45070  1.0000
  H   H4266     1.0  0.97666  0.09976  0.43823  1.0000
  H   H4267     1.0  0.95952  0.23820  0.45440  1.0000
  H   H4268     1.0  0.85235  0.01101  0.47492  1.0000
  N   N242      1.0  0.94393  0.24724  0.44355  1.0000
  C   C3591     1.0  0.95014  0.23645  0.45353  1.0000
  C   C3592     1.0  0.92418  0.27915  0.36528  1.0000
  C   C3593     1.0  0.97493  0.41707  0.15353  1.0000
  H   H4269     1.0  0.86479  0.47875  0.02595  1.0000
  H   H4270     1.0  0.96459  0.47678  0.33210  1.0000
  C   C3594     1.0  0.95599  0.46284  0.15068  1.0000
  C   C3595     1.0  0.93190  0.24369  0.44273  1.0000
  H   H4271     1.0  0.92739  0.25048  0.43444  1.0000
  C   C3596     1.0  0.96759  0.36938  0.39521  1.0000
  H   H4272     1.0  0.91398  0.46270  0.13875  1.0000
  C   C3597     1.0  0.93441  0.27182  0.43818  1.0000
  H   H4273     1.0  0.95758  0.43112  0.11097  1.0000
  H   H4274     1.0  0.93247  0.27104  0.42909  1.0000
  H   H4275     1.0  0.95385  0.46283  0.07523  1.0000
  H   H4276     1.0  0.88541  0.37375  0.38380  1.0000
  H   H4277     1.0  0.86294  0.39905  0.37875  1.0000
  C   C3598     1.0  0.86777  0.39647  0.38735  1.0000
  H   H4278     1.0  0.96224  0.19273  0.45028  1.0000
  H   H4279     1.0  0.97512  0.33263  0.42664  1.0000
  H   H4280     1.0  0.93387  0.47211  0.26574  1.0000
  C   C3599     1.0  0.93296  0.28613  0.45264  1.0000
  H   H4281     1.0  0.86331  0.40450  0.39299  1.0000
  C   C3600     1.0  0.88858  0.06652  0.44323  1.0000
  H   H4282     1.0  0.90698  0.24279  0.38161  1.0000
  H   H4283     1.0  0.88910  0.00495  0.47185  1.0000
  H   H4284     1.0  0.96167  0.40108  0.29146  1.0000
  H   H4285     1.0  0.93314  0.06308  0.43562  1.0000
  C   C3601     1.0  0.89925  0.26485  0.36312  1.0000
  S   S955      1.0  0.91721  0.21120  0.44415  1.0000
  C   C3602     1.0  0.89159  0.40804  0.35974  1.0000
  N   N243      1.0  0.88441  0.07904  0.44806  1.0000
  S   S956      1.0  0.91617  0.43556  0.31371  1.0000
  H   H4286     1.0  0.80307  0.39017  0.04136  1.0000
  H   H4287     1.0  0.97505  0.22123  0.43942  1.0000
  C   C3603     1.0  0.94788  0.15303  0.44187  1.0000
  H   H4288     1.0  0.81818  0.41881  0.99552  1.0000
  C   C3604     1.0  0.87025  0.46630  0.09852  1.0000
  H   H4289     1.0  0.97539  0.29513  0.40902  1.0000
  C   C3605     1.0  0.81441  0.98882  0.40054  1.0000
  H   H4290     1.0  0.86893  0.45388  0.06828  1.0000
  C   C3606     1.0  0.92592  0.34301  0.46983  1.0000
  S   S957      1.0  0.93816  0.45197  0.31304  1.0000
  C   C3607     1.0  0.79957  0.07515  0.37317  1.0000
  C   C3608     1.0  0.87058  0.44839  0.08875  1.0000
  H   H4291     1.0  0.93556  0.07760  0.47137  1.0000
  H   H4292     1.0  0.92409  0.46695  0.25783  1.0000
  H   H4293     1.0  0.94099  0.14661  0.44479  1.0000
  H   H4294     1.0  0.96998  0.27307  0.41345  1.0000
  H   H4295     1.0  0.97633  0.38437  0.25385  1.0000
  H   H4296     1.0  0.90836  0.03767  0.46286  1.0000
  H   H4297     1.0  0.94048  0.44103  0.23561  1.0000
  H   H4298     1.0  0.89822  0.38137  0.37272  1.0000
  H   H4299     1.0  0.88980  0.26912  0.36945  1.0000
  C   C3609     1.0  0.96762  0.38514  0.24988  1.0000
  C   C3610     1.0  0.94477  0.31916  0.46982  1.0000
  C   C3611     1.0  0.82812  0.99645  0.41000  1.0000
  C   C3612     1.0  0.88539  0.40727  0.37348  1.0000
  C   C3613     1.0  0.97400  0.44590  0.31055  1.0000
  C   C3614     1.0  0.94238  0.26255  0.45861  1.0000
  H   H4300     1.0  0.83239  0.99388  0.37809  1.0000
  H   H4301     1.0  0.95201  0.30985  0.46995  1.0000
  H   H4302     1.0  0.94120  0.40873  0.24160  1.0000
  H   H4303     1.0  0.79190  0.07007  0.37961  1.0000
  C   C3615     1.0  0.97718  0.16082  0.37264  1.0000
  C   C3616     1.0  0.96561  0.40890  0.24250  1.0000
  H   H4304     1.0  0.87110  0.46901  0.10717  1.0000
  H   H4305     1.0  0.79952  0.44341  0.98232  1.0000
  H   H4306     1.0  0.98110  0.45249  0.11916  1.0000
  H   H4307     1.0  0.79480  0.45639  0.02828  1.0000
  S   S958      1.0  0.96383  0.20138  0.47222  1.0000
  H   H4308     1.0  0.93467  0.29437  0.36279  1.0000
  H   H4309     1.0  0.95038  0.44633  0.25118  1.0000
  C   C3617     1.0  0.92231  0.25471  0.36101  1.0000
  H   H4310     1.0  0.88211  0.44012  0.37333  1.0000
  H   H4311     1.0  0.98359  0.46374  0.24288  1.0000
  C   C3618     1.0  0.96014  0.45692  0.12934  1.0000
  H   H4312     1.0  0.79773  0.04775  0.44871  1.0000
  C   C3619     1.0  0.96741  0.18408  0.37184  1.0000
  H   H4313     1.0  0.88137  0.06552  0.43813  1.0000
  C   C3620     1.0  0.95522  0.37834  0.37812  1.0000
  C   C3621     1.0  0.91598  0.17346  0.46015  1.0000
  C   C3622     1.0  0.79501  0.41931  0.01937  1.0000
  H   H4314     1.0  0.94409  0.19668  0.43903  1.0000
  C   C3623     1.0  0.86825  0.47091  0.07558  1.0000
  H   H4315     1.0  0.89409  0.09112  0.45365  1.0000
  H   H4316     1.0  0.93390  0.46558  0.34918  1.0000
  H   H4317     1.0  0.91206  0.13719  0.46723  1.0000
  C   C3624     1.0  0.79607  0.00511  0.46008  1.0000
  C   C3625     1.0  0.88241  0.99102  0.46512  1.0000
  C   C3626     1.0  0.88195  0.41922  0.37811  1.0000
  C   C3627     1.0  0.95337  0.35991  0.46862  1.0000
  H   H4318     1.0  0.89927  0.42024  0.34095  1.0000
  C   C3628     1.0  0.86869  0.47580  0.08645  1.0000
  H   H4319     1.0  0.91863  0.35228  0.46981  1.0000
  H   H4320     1.0  0.95907  0.19242  0.37070  1.0000
  C   C3629     1.0  0.97778  0.43450  0.36479  1.0000
  H   H4321     1.0  0.97790  0.47111  0.34656  1.0000
  C   C3630     1.0  0.92500  0.05692  0.46996  1.0000
  H   H4322     1.0  0.96702  0.13595  0.41829  1.0000
  C   C3631     1.0  0.96606  0.16898  0.43585  1.0000
  H   H4323     1.0  0.79762  0.00334  0.42402  1.0000
  Fe  Fe480     1.0  0.91889  0.44814  0.32600  1.0000
  C   C3632     1.0  0.97711  0.42652  0.26994  1.0000
  C   C3633     1.0  0.88474  0.43111  0.36959  1.0000
  H   H4324     1.0  0.83343  0.03850  0.47919  1.0000
  C   C3634     1.0  0.81903  0.39301  0.99834  1.0000
  C   C3635     1.0  0.79128  0.99979  0.39975  1.0000
  C   C3636     1.0  0.94413  0.47399  0.19766  1.0000
  C   C3637     1.0  0.94209  0.19993  0.44818  1.0000
  S   S959      1.0  0.94437  0.31733  0.44522  1.0000
  H   H4325     1.0  0.96195  0.16769  0.45697  1.0000
  H   H4326     1.0  0.82321  0.02078  0.47505  1.0000
  H   H4327     1.0  0.92473  0.26089  0.35076  1.0000
  N   N244      1.0  0.94359  0.48014  0.08360  1.0000
  H   H4328     1.0  0.81930  0.47495  0.07115  1.0000
  C   C3638     1.0  0.80753  0.09000  0.35274  1.0000
  C   C3639     1.0  0.89622  0.08143  0.45074  1.0000
  C   C3640     1.0  0.96169  0.35458  0.45796  1.0000
  H   H4329     1.0  0.80597  0.09652  0.34327  1.0000
  C   C3641     1.0  0.90781  0.46605  0.12031  1.0000
  C   C3642     1.0  0.94348  0.11875  0.45942  1.0000
  H   H4330     1.0  0.90078  0.27216  0.35341  1.0000
  H   H4331     1.0  0.93844  0.47080  0.07087  1.0000
  C   C3643     1.0  0.97433  0.28621  0.43658  1.0000
  H   H4332     1.0  0.95660  0.48267  0.35388  1.0000
  H   H4333     1.0  0.95135  0.12351  0.45311  1.0000
  C   C3644     1.0  0.90110  0.47514  0.19823  1.0000
  H   H4334     1.0  0.95302  0.17073  0.40230  1.0000
  H   H4335     1.0  0.92616  0.29292  0.43433  1.0000
  H   H4336     1.0  0.96751  0.15716  0.40173  1.0000
  S   S960      1.0  0.95321  0.46396  0.18639  1.0000
  C   C3645     1.0  0.86826  0.47016  0.02109  1.0000
  H   H4337     1.0  0.96745  0.27131  0.46956  1.0000
  C   C3646     1.0  0.94268  0.45859  0.35261  1.0000
  H   H4338     1.0  0.90450  0.08181  0.44173  1.0000
  C   C3647     1.0  0.97656  0.32465  0.40984  1.0000
  H   H4339     1.0  0.87687  0.00874  0.44281  1.0000
  H   H4340     1.0  0.97154  0.38322  0.23965  1.0000
  H   H4341     1.0  0.95804  0.43807  0.36301  1.0000
  C   C3648     1.0  0.95614  0.13856  0.41908  1.0000
  N   N245      1.0  0.96874  0.37241  0.38055  1.0000
  H   H4342     1.0  0.97164  0.42229  0.16154  1.0000
  H   H4343     1.0  0.95785  0.34959  0.45283  1.0000
  H   H4344     1.0  0.95988  0.36358  0.40079  1.0000
  H   H4345     1.0  0.95244  0.47840  0.06328  1.0000
  H   H4346     1.0  0.95777  0.17048  0.36892  1.0000
  H   H4347     1.0  0.81147  0.39796  0.00588  1.0000
  N   N246      1.0  0.95389  0.46518  0.34970  1.0000
  C   C3649     1.0  0.94921  0.47645  0.35653  1.0000
  C   C3650     1.0  0.97522  0.46642  0.23778  1.0000
  C   C3651     1.0  0.97688  0.41263  0.09302  1.0000
  C   C3652     1.0  0.96629  0.41920  0.08674  1.0000
  N   N247      1.0  0.87196  0.47414  0.00628  1.0000
  H   H4348     1.0  0.92757  0.47165  0.23014  1.0000
  H   H4349     1.0  0.95356  0.15660  0.39634  1.0000
  N   N248      1.0  0.95082  0.15304  0.41773  1.0000
  H   H4350     1.0  0.98100  0.35125  0.44567  1.0000
  S   S961      1.0  0.96934  0.39707  0.20128  1.0000
  C   C3653     1.0  0.79986  0.99285  0.45639  1.0000
  H   H4351     1.0  0.97645  0.15111  0.37212  1.0000
  H   H4352     1.0  0.79048  0.45424  0.00186  1.0000
  H   H4353     1.0  0.97953  0.44446  0.06510  1.0000
  C   C3654     1.0  0.98123  0.21643  0.43150  1.0000
  C   C3655     1.0  0.95241  0.39967  0.26374  1.0000
  H   H4354     1.0  0.96586  0.39653  0.36115  1.0000
  H   H4355     1.0  0.93170  0.40070  0.26406  1.0000
  C   C3656     1.0  0.95013  0.20218  0.46617  1.0000
  H   H4356     1.0  0.91163  0.07828  0.47961  1.0000
  H   H4357     1.0  0.86508  0.99090  0.44998  1.0000
  C   C3657     1.0  0.94798  0.45336  0.13093  1.0000
  C   C3658     1.0  0.98400  0.26260  0.44009  1.0000
  H   H4358     1.0  0.98349  0.30148  0.45994  1.0000
  H   H4359     1.0  0.83827  0.99731  0.40961  1.0000
  C   C3659     1.0  0.96918  0.28476  0.45032  1.0000
  C   C3660     1.0  0.94713  0.44414  0.12440  1.0000
  C   C3661     1.0  0.84230  0.04053  0.47195  1.0000
  H   H4360     1.0  0.93130  0.14966  0.42826  1.0000
  H   H4361     1.0  0.95161  0.13270  0.42879  1.0000
  H   H4362     1.0  0.94787  0.48111  0.29221  1.0000
  H   H4363     1.0  0.82384  0.00177  0.46589  1.0000
  H   H4364     1.0  0.97312  0.17522  0.43354  1.0000
  S   S962      1.0  0.97447  0.31994  0.38689  1.0000
  H   H4365     1.0  0.95105  0.38800  0.38124  1.0000
  H   H4366     1.0  0.96892  0.40901  0.23167  1.0000
  C   C3662     1.0  0.79766  0.08352  0.36099  1.0000
  C   C3663     1.0  0.97878  0.18580  0.37436  1.0000
  C   C3664     1.0  0.95715  0.47055  0.33508  1.0000
  H   H4367     1.0  0.82439  0.99070  0.42014  1.0000
  H   H4368     1.0  0.86034  0.46445  0.02433  1.0000
  C   C3665     1.0  0.96625  0.47233  0.08870  1.0000
  H   H4369     1.0  0.83487  0.40958  0.99442  1.0000
  H   H4370     1.0  0.96188  0.41044  0.13127  1.0000
  C   C3666     1.0  0.97872  0.43565  0.07299  1.0000
  H   H4371     1.0  0.82196  0.00674  0.40892  1.0000
  H   H4372     1.0  0.84360  0.99832  0.38493  1.0000
  C   C3667     1.0  0.86921  0.45740  0.07675  1.0000
  C   C3668     1.0  0.97730  0.47462  0.09130  1.0000
  H   H4373     1.0  0.91781  0.46682  0.17708  1.0000
  H   H4374     1.0  0.94543  0.46217  0.15361  1.0000
  C   C3669     1.0  0.91056  0.47005  0.13048  1.0000
  H   H4375     1.0  0.90055  0.46493  0.19823  1.0000
  H   H4376     1.0  0.97769  0.47378  0.12264  1.0000
  H   H4377     1.0  0.79374  0.03193  0.39236  1.0000
  H   H4378     1.0  0.94832  0.47692  0.33133  1.0000
  H   H4379     1.0  0.98280  0.25821  0.41592  1.0000
  C   C3670     1.0  0.97402  0.46967  0.13344  1.0000
  C   C3671     1.0  0.85598  0.98563  0.42762  1.0000
  H   H4380     1.0  0.88984  0.05767  0.45158  1.0000
  N   N249      1.0  0.86952  0.99996  0.46337  1.0000
  H   H4381     1.0  0.98634  0.12140  0.39019  1.0000
  H   H4382     1.0  0.95928  0.41887  0.24346  1.0000
  C   C3672     1.0  0.97492  0.35559  0.45396  1.0000
  H   H4383     1.0  0.87669  0.46371  0.02552  1.0000
  H   H4384     1.0  0.97856  0.42084  0.19806  1.0000
  H   H4385     1.0  0.93334  0.18031  0.47043  1.0000
  H   H4386     1.0  0.95497  0.37984  0.36746  1.0000
  H   H4387     1.0  0.80142  0.47054  0.06480  1.0000
  H   H4388     1.0  0.98049  0.25157  0.46050  1.0000
  H   H4389     1.0  0.96746  0.42835  0.26778  1.0000
  C   C3673     1.0  0.92371  0.10566  0.47596  1.0000
  C   C3674     1.0  0.86168  0.07487  0.45907  1.0000
  H   H4390     1.0  0.92317  0.40200  0.28725  1.0000
  C   C3675     1.0  0.96141  0.47960  0.25442  1.0000
  H   H4391     1.0  0.78849  0.08498  0.35796  1.0000
  C   C3676     1.0  0.86074  0.99366  0.45985  1.0000
  H   H4392     1.0  0.94589  0.15340  0.46228  1.0000
  C   C3677     1.0  0.93077  0.06237  0.45652  1.0000
  H   H4393     1.0  0.87817  0.01716  0.45451  1.0000
  C   C3678     1.0  0.98415  0.20272  0.41592  1.0000
  C   C3679     1.0  0.90625  0.47817  0.33645  1.0000
  C   C3680     1.0  0.83307  0.99799  0.38628  1.0000
  H   H4394     1.0  0.88788  0.45654  0.00674  1.0000
  H   H4395     1.0  0.91929  0.04697  0.43973  1.0000
  H   H4396     1.0  0.98222  0.40987  0.35008  1.0000
  C   C3681     1.0  0.92491  0.47538  0.26145  1.0000
  C   C3682     1.0  0.87980  0.46198  0.00137  1.0000
  H   H4397     1.0  0.94716  0.47284  0.36757  1.0000
  H   H4398     1.0  0.88465  0.46428  0.99062  1.0000
  H   H4399     1.0  0.93678  0.06962  0.45397  1.0000
  C   C3683     1.0  0.94189  0.40150  0.29082  1.0000
  H   H4400     1.0  0.82753  0.00854  0.38485  1.0000
  N   N250      1.0  0.82806  0.98988  0.39954  1.0000
  H   H4401     1.0  0.92592  0.47643  0.32405  1.0000
  C   C3684     1.0  0.82668  0.41341  0.98898  1.0000
  C   C3685     1.0  0.97530  0.39303  0.36397  1.0000
  H   H4402     1.0  0.93021  0.29595  0.45478  1.0000
  C   C3686     1.0  0.92082  0.04973  0.44810  1.0000
  H   H4403     1.0  0.96989  0.45818  0.24129  1.0000
  C   C3687     1.0  0.85141  0.07291  0.47027  1.0000
  C   C3688     1.0  0.97152  0.27235  0.45893  1.0000
  C   C3689     1.0  0.98044  0.33181  0.41658  1.0000
  S   S963      1.0  0.94591  0.12851  0.47945  1.0000
  C   C3690     1.0  0.85400  0.03867  0.47615  1.0000
  N   N251      1.0  0.96634  0.47932  0.24008  1.0000
  C   C3691     1.0  0.86009  0.48049  0.00057  1.0000
  C   C3692     1.0  0.91098  0.46777  0.28247  1.0000
  H   H4404     1.0  0.97400  0.11477  0.46370  1.0000
  H   H4405     1.0  0.88976  0.47936  0.00636  1.0000
  C   C3693     1.0  0.95828  0.36600  0.47549  1.0000
  C   C3694     1.0  0.95190  0.47985  0.13113  1.0000
  N   N252      1.0  0.78933  0.03043  0.45399  1.0000
  H   H4406     1.0  0.98536  0.46638  0.09378  1.0000
  C   C3695     1.0  0.97883  0.13235  0.47443  1.0000
  C   C3696     1.0  0.98597  0.29016  0.40865  1.0000
  N   N253      1.0  0.82311  0.40256  0.98570  1.0000
  H   H4407     1.0  0.98361  0.35471  0.37745  1.0000
  C   C3697     1.0  0.91717  0.47726  0.17747  1.0000
  C   C3698     1.0  0.79115  0.03875  0.39889  1.0000
  H   H4408     1.0  0.95514  0.48327  0.12012  1.0000
  C   C3699     1.0  0.78917  0.43971  0.04276  1.0000
  H   H4409     1.0  0.94143  0.47913  0.13333  1.0000
  H   H4410     1.0  0.96730  0.45818  0.26282  1.0000
  C   C3700     1.0  0.80042  0.48056  0.06567  1.0000
  H   H4411     1.0  0.95899  0.45955  0.28592  1.0000
  H   H4412     1.0  0.97915  0.43650  0.10810  1.0000
  C   C3701     1.0  0.98293  0.45342  0.30179  1.0000
  H   H4413     1.0  0.84272  0.38977  0.98379  1.0000
  H   H4414     1.0  0.97471  0.37157  0.47760  1.0000
  H   H4415     1.0  0.86618  0.47120  0.98327  1.0000
  H   H4416     1.0  0.92492  0.47713  0.18252  1.0000
  H   H4417     1.0  0.95822  0.48192  0.22301  1.0000
  H   H4418     1.0  0.93449  0.47699  0.10458  1.0000
  H   H4419     1.0  0.93892  0.16428  0.48039  1.0000
  H   H4420     1.0  0.85867  0.98464  0.46758  1.0000
  C   C3702     1.0  0.90923  0.48357  0.12972  1.0000
  C   C3703     1.0  0.93120  0.17365  0.48043  1.0000
  H   H4421     1.0  0.80244  0.98373  0.46361  1.0000
  C   C3704     1.0  0.93172  0.33698  0.48089  1.0000
  N   N254      1.0  0.90386  0.48334  0.18445  1.0000
  C   C3705     1.0  0.92964  0.11244  0.48121  1.0000
  H   H4422     1.0  0.93547  0.21163  0.48098  1.0000
  H   H4423     1.0  0.97061  0.10986  0.48134  1.0000
  H   H4424     1.0  0.98276  0.28544  0.48131  1.0000
  H   H4425     1.0  0.98241  0.26271  0.49023  1.0000
  S   S964      1.0  0.82722  0.43554  0.92426  1.0000
  Fe  Fe481     1.0  0.84924  0.42489  0.89230  1.0000
  S   S965      1.0  0.82936  0.43900  0.89261  1.0000
  S   S966      1.0  0.86079  0.42269  0.87156  1.0000
  Fe  Fe482     1.0  0.83599  0.44813  0.90520  1.0000
  S   S967      1.0  0.83292  0.47031  0.90028  1.0000
  Fe  Fe483     1.0  0.82216  0.42509  0.91163  1.0000
  S   S968      1.0  0.80125  0.42264  0.92145  1.0000
  S   S969      1.0  0.85628  0.43511  0.90370  1.0000
  S   S970      1.0  0.84147  0.40994  0.91039  1.0000
  H   H4426     1.0  0.86163  0.40782  0.96570  1.0000
  C   C3706     1.0  0.93269  0.26716  0.53528  1.0000
  Fe  Fe484     1.0  0.94233  0.41921  0.80430  1.0000
  S   S971      1.0  0.94909  0.40434  0.79122  1.0000
  Fe  Fe485     1.0  0.93280  0.42208  0.83308  1.0000
  S   S972      1.0  0.92332  0.41329  0.85431  1.0000
  S   S973      1.0  0.92236  0.42717  0.81627  1.0000
  C   C3707     1.0  0.82399  0.98755  0.48468  1.0000
  C   C3708     1.0  0.83511  0.39515  0.97780  1.0000
  C   C3709     1.0  0.82956  0.01817  0.53126  1.0000
  C   C3710     1.0  0.90054  0.48364  0.69231  1.0000
  H   H4427     1.0  0.96901  0.44348  0.56693  1.0000
  Fe  Fe486     1.0  0.87847  0.00668  0.51870  1.0000
  S   S974      1.0  0.87200  0.02138  0.53191  1.0000
  S   S975      1.0  0.79702  0.00455  0.53521  1.0000
  Fe  Fe487     1.0  0.87813  0.02848  0.49361  1.0000
  S   S976      1.0  0.87184  0.04489  0.50454  1.0000
  H   H4428     1.0  0.97465  0.40823  0.77571  1.0000
  Fe  Fe488     1.0  0.88666  0.03243  0.51664  1.0000
  S   S977      1.0  0.90250  0.03917  0.52171  1.0000
  H   H4429     1.0  0.82289  0.99552  0.51379  1.0000
  S   S978      1.0  0.89420  0.01678  0.50441  1.0000
  S   S979      1.0  0.86315  0.01685  0.50667  1.0000
  Fe  Fe489     1.0  0.92243  0.10575  0.52358  1.0000
  S   S980      1.0  0.94362  0.10162  0.51222  1.0000
  S   S981      1.0  0.90536  0.09591  0.52641  1.0000
  Fe  Fe490     1.0  0.92427  0.13287  0.52660  1.0000
  S   S982      1.0  0.94513  0.13133  0.51504  1.0000
  S   S983      1.0  0.91186  0.14992  0.53594  1.0000
  Fe  Fe491     1.0  0.93892  0.12294  0.50153  1.0000
  N   N255      1.0  0.91457  0.30348  0.51101  1.0000
  Fe  Fe492     1.0  0.94830  0.11027  0.52683  1.0000
  S   S984      1.0  0.96628  0.10179  0.53602  1.0000
  S   S985      1.0  0.91759  0.12672  0.51178  1.0000
  S   S986      1.0  0.92753  0.11228  0.53945  1.0000
  Fe  Fe493     1.0  0.94385  0.21099  0.51728  1.0000
  S   S987      1.0  0.96149  0.19673  0.50881  1.0000
  S   S988      1.0  0.92711  0.20369  0.53282  1.0000
  Fe  Fe494     1.0  0.95472  0.23535  0.50075  1.0000
  S   S989      1.0  0.97313  0.22289  0.49062  1.0000
  S   S990      1.0  0.95152  0.25774  0.49379  1.0000
  Fe  Fe495     1.0  0.95970  0.21094  0.48941  1.0000
  H   H4430     1.0  0.98100  0.42150  0.60223  1.0000
  Fe  Fe496     1.0  0.97314  0.20984  0.51100  1.0000
  C   C3711     1.0  0.95468  0.46011  0.84854  1.0000
  S   S991      1.0  0.94114  0.22454  0.49758  1.0000
  S   S992      1.0  0.95559  0.22307  0.52144  1.0000
  C   C3712     1.0  0.95618  0.45542  0.64850  1.0000
  C   C3713     1.0  0.97462  0.45618  0.76559  1.0000
  C   C3714     1.0  0.93036  0.43548  0.62660  1.0000
  C   C3715     1.0  0.79199  0.42111  0.96401  1.0000
  Fe  Fe497     1.0  0.95987  0.31349  0.52137  1.0000
  S   S993      1.0  0.96237  0.32540  0.50042  1.0000
  S   S994      1.0  0.96665  0.29106  0.52561  1.0000
  Fe  Fe498     1.0  0.94905  0.33846  0.53333  1.0000
  S   S995      1.0  0.95034  0.35234  0.51308  1.0000
  S   S996      1.0  0.94265  0.34380  0.55370  1.0000
  Fe  Fe499     1.0  0.94246  0.33779  0.50752  1.0000
  S   S997      1.0  0.92732  0.34445  0.49468  1.0000
  Fe  Fe500     1.0  0.96995  0.33866  0.50773  1.0000
  H   H4431     1.0  0.91602  0.10069  0.48241  1.0000
  S   S998      1.0  0.93931  0.32495  0.52827  1.0000
  S   S999      1.0  0.96938  0.32574  0.52821  1.0000
  Fe  Fe501     1.0  0.94740  0.40301  0.58424  1.0000
  S   S1000     1.0  0.96127  0.41692  0.57844  1.0000
  S   S1001     1.0  0.94629  0.39765  0.56544  1.0000
  Fe  Fe502     1.0  0.94260  0.40325  0.61393  1.0000
  S   S1002     1.0  0.95671  0.41625  0.61017  1.0000
  S   S1003     1.0  0.93077  0.40007  0.63519  1.0000
  Fe  Fe503     1.0  0.94711  0.42821  0.59331  1.0000
  S   S1004     1.0  0.93969  0.45048  0.59114  1.0000
  Fe  Fe504     1.0  0.96952  0.40385  0.59575  1.0000
  C   C3716     1.0  0.81241  0.40848  0.97824  1.0000
  S   S1005     1.0  0.93223  0.41576  0.59754  1.0000
  S   S1006     1.0  0.95647  0.38933  0.60111  1.0000
  H   H4432     1.0  0.90619  0.15916  0.50019  1.0000
  H   H4433     1.0  0.91599  0.36692  0.82829  1.0000
  H   H4434     1.0  0.91055  0.46987  0.63088  1.0000
  S   S1007     1.0  0.93233  0.41693  0.70270  1.0000
  H   H4435     1.0  0.98389  0.41147  0.80452  1.0000
  Fe  Fe505     1.0  0.93798  0.41162  0.72266  1.0000
  S   S1008     1.0  0.92452  0.40711  0.74294  1.0000
  H   H4436     1.0  0.78938  0.43896  0.86940  1.0000
  H   H4437     1.0  0.98050  0.40062  0.79646  1.0000
  H   H4438     1.0  0.91634  0.16666  0.50508  1.0000
  H   H4439     1.0  0.93111  0.43052  0.61851  1.0000
  H   H4440     1.0  0.85430  0.46104  0.92210  1.0000
  H   H4441     1.0  0.93311  0.36612  0.82724  1.0000
  H   H4442     1.0  0.88808  0.48074  0.89369  1.0000
  H   H4443     1.0  0.90823  0.44209  0.88691  1.0000
  C   C3717     1.0  0.95361  0.43110  0.75135  1.0000
  C   C3718     1.0  0.92602  0.46310  0.70547  1.0000
  H   H4444     1.0  0.91637  0.31301  0.49006  1.0000
  H   H4445     1.0  0.85145  0.47319  0.93164  1.0000
  C   C3719     1.0  0.91564  0.46350  0.72864  1.0000
  C   C3720     1.0  0.91776  0.45822  0.71745  1.0000
  H   H4446     1.0  0.92109  0.44151  0.67356  1.0000
  H   H4447     1.0  0.82985  0.42085  0.97983  1.0000
  H   H4448     1.0  0.90932  0.45965  0.73793  1.0000
  H   H4449     1.0  0.91309  0.45029  0.71813  1.0000
  C   C3721     1.0  0.94825  0.45967  0.59573  1.0000
  H   H4450     1.0  0.84448  0.07232  0.49129  1.0000
  C   C3722     1.0  0.93327  0.27936  0.53695  1.0000
  C   C3723     1.0  0.82212  0.47470  0.93840  1.0000
  C   C3724     1.0  0.96767  0.46178  0.60141  1.0000
  C   C3725     1.0  0.96069  0.45397  0.59869  1.0000
  C   C3726     1.0  0.96191  0.45183  0.63600  1.0000
  C   C3727     1.0  0.79886  0.45482  0.94946  1.0000
  H   H4451     1.0  0.93877  0.04107  0.48778  1.0000
  H   H4452     1.0  0.96515  0.44368  0.59836  1.0000
  C   C3728     1.0  0.93954  0.39879  0.64730  1.0000
  C   C3729     1.0  0.95331  0.39457  0.64481  1.0000
  C   C3730     1.0  0.96014  0.39359  0.65457  1.0000
  C   C3731     1.0  0.95332  0.39728  0.66669  1.0000
  C   C3732     1.0  0.93957  0.40165  0.66914  1.0000
  C   C3733     1.0  0.93268  0.40219  0.65955  1.0000
  H   H4453     1.0  0.95867  0.39179  0.63546  1.0000
  C   C3734     1.0  0.94902  0.47129  0.66348  1.0000
  H   H4454     1.0  0.93421  0.40433  0.67853  1.0000
  H   H4455     1.0  0.92202  0.40522  0.66165  1.0000
  C   C3735     1.0  0.86862  0.47890  0.86643  1.0000
  H   H4456     1.0  0.91825  0.29540  0.49352  1.0000
  H   H4457     1.0  0.92629  0.25719  0.52423  1.0000
  H   H4458     1.0  0.93797  0.46131  0.75811  1.0000
  H   H4459     1.0  0.91269  0.44637  0.61143  1.0000
  H   H4460     1.0  0.86412  0.07859  0.49321  1.0000
  C   C3736     1.0  0.89539  0.48297  0.70589  1.0000
  H   H4461     1.0  0.79727  0.43864  0.88191  1.0000
  C   C3737     1.0  0.96846  0.17119  0.53647  1.0000
  H   H4462     1.0  0.96948  0.47246  0.82061  1.0000
  C   C3738     1.0  0.94347  0.35891  0.55682  1.0000
  C   C3739     1.0  0.94103  0.36018  0.57009  1.0000
  C   C3740     1.0  0.94183  0.37194  0.57297  1.0000
  C   C3741     1.0  0.94487  0.38265  0.56257  1.0000
  C   C3742     1.0  0.94719  0.38142  0.54931  1.0000
  C   C3743     1.0  0.94664  0.36958  0.54643  1.0000
  H   H4463     1.0  0.93856  0.35198  0.57819  1.0000
  H   H4464     1.0  0.93997  0.37275  0.58322  1.0000
  H   H4465     1.0  0.94952  0.38965  0.54118  1.0000
  H   H4466     1.0  0.94854  0.36876  0.53618  1.0000
  C   C3744     1.0  0.90017  0.44834  0.89254  1.0000
  H   H4467     1.0  0.90802  0.42774  0.62840  1.0000
  C   C3745     1.0  0.86346  0.07759  0.48364  1.0000
  H   H4468     1.0  0.87945  0.98859  0.50061  1.0000
  H   H4469     1.0  0.79528  0.47501  0.92728  1.0000
  H   H4470     1.0  0.91004  0.47991  0.64873  1.0000
  H   H4471     1.0  0.88972  0.47860  0.85967  1.0000
  H   H4472     1.0  0.97690  0.35541  0.51847  1.0000
  C   C3746     1.0  0.95602  0.26680  0.50261  1.0000
  C   C3747     1.0  0.95417  0.28065  0.49822  1.0000
  C   C3748     1.0  0.95732  0.28821  0.50523  1.0000
  C   C3749     1.0  0.96260  0.28192  0.51653  1.0000
  C   C3750     1.0  0.96497  0.26800  0.52058  1.0000
  C   C3751     1.0  0.96161  0.26046  0.51371  1.0000
  H   H4473     1.0  0.95022  0.28554  0.48941  1.0000
  H   H4474     1.0  0.95567  0.29889  0.50191  1.0000
  H   H4475     1.0  0.96918  0.26306  0.52924  1.0000
  H   H4476     1.0  0.96326  0.24977  0.51707  1.0000
  C   C3752     1.0  0.81524  0.41310  0.96412  1.0000
  C   C3753     1.0  0.94757  0.47883  0.64056  1.0000
  H   H4477     1.0  0.88083  0.47327  0.92792  1.0000
  C   C3754     1.0  0.80034  0.48146  0.89043  1.0000
  H   H4478     1.0  0.91589  0.27762  0.51062  1.0000
  C   C3755     1.0  0.96572  0.45118  0.84333  1.0000
  H   H4479     1.0  0.97968  0.22585  0.52314  1.0000
  C   C3756     1.0  0.97204  0.48117  0.79928  1.0000
  C   C3757     1.0  0.97641  0.47509  0.81137  1.0000
  H   H4480     1.0  0.97192  0.13789  0.54287  1.0000
  H   H4481     1.0  0.85099  0.08183  0.55389  1.0000
  Fe  Fe506     1.0  0.96390  0.42056  0.71088  1.0000
  C   C3758     1.0  0.96207  0.47520  0.60173  1.0000
  C   C3759     1.0  0.81328  0.03709  0.52307  1.0000
  C   C3760     1.0  0.82315  0.00906  0.49498  1.0000
  S   S1009     1.0  0.94373  0.43076  0.71970  1.0000
  C   C3761     1.0  0.95590  0.46781  0.85646  1.0000
  H   H4482     1.0  0.84023  0.40179  0.96918  1.0000
  C   C3762     1.0  0.98567  0.20186  0.55431  1.0000
  C   C3763     1.0  0.97857  0.37210  0.57575  1.0000
  C   C3764     1.0  0.97875  0.11092  0.53175  1.0000
  H   H4483     1.0  0.94842  0.42545  0.66587  1.0000
  H   H4484     1.0  0.91138  0.32492  0.50700  1.0000
  H   H4485     1.0  0.82523  0.41237  0.95820  1.0000
  H   H4486     1.0  0.93860  0.27966  0.54404  1.0000
  C   C3765     1.0  0.97848  0.12258  0.52176  1.0000
  C   C3766     1.0  0.91686  0.48002  0.84387  1.0000
  C   C3767     1.0  0.98415  0.40615  0.75602  1.0000
  C   C3768     1.0  0.98325  0.41031  0.79471  1.0000
  H   H4487     1.0  0.97103  0.12579  0.51599  1.0000
  C   C3769     1.0  0.91666  0.16480  0.53416  1.0000
  C   C3770     1.0  0.92816  0.16810  0.52525  1.0000
  C   C3771     1.0  0.93142  0.18019  0.52443  1.0000
  C   C3772     1.0  0.92334  0.18878  0.53273  1.0000
  C   C3773     1.0  0.91197  0.18533  0.54162  1.0000
  C   C3774     1.0  0.90860  0.17349  0.54224  1.0000
  H   H4488     1.0  0.93449  0.16141  0.51901  1.0000
  H   H4489     1.0  0.94024  0.18275  0.51756  1.0000
  H   H4490     1.0  0.90568  0.19189  0.54804  1.0000
  H   H4491     1.0  0.89971  0.17102  0.54913  1.0000
  C   C3775     1.0  0.85369  0.42293  0.95013  1.0000
  C   C3776     1.0  0.79653  0.46006  0.89126  1.0000
  H   H4492     1.0  0.86074  0.99604  0.48445  1.0000
  N   N256      1.0  0.95540  0.46898  0.64985  1.0000
  H   H4493     1.0  0.88902  0.45679  0.86834  1.0000
  C   C3777     1.0  0.90362  0.05534  0.52160  1.0000
  C   C3778     1.0  0.91485  0.05689  0.52467  1.0000
  C   C3779     1.0  0.91594  0.06944  0.52533  1.0000
  C   C3780     1.0  0.90562  0.08051  0.52326  1.0000
  C   C3781     1.0  0.89451  0.07901  0.51990  1.0000
  C   C3782     1.0  0.89360  0.06653  0.51885  1.0000
  H   H4494     1.0  0.92265  0.04828  0.52684  1.0000
  H   H4495     1.0  0.92445  0.07043  0.52810  1.0000
  H   H4496     1.0  0.88645  0.08753  0.51836  1.0000
  H   H4497     1.0  0.88504  0.06556  0.51621  1.0000
  H   H4498     1.0  0.93857  0.47031  0.66636  1.0000
  H   H4499     1.0  0.78786  0.41058  0.88681  1.0000
  H   H4500     1.0  0.92686  0.31619  0.51105  1.0000
  C   C3783     1.0  0.80455  0.02873  0.52518  1.0000
  H   H4501     1.0  0.88511  0.39101  0.86503  1.0000
  H   H4502     1.0  0.93949  0.06976  0.48705  1.0000
  H   H4503     1.0  0.93946  0.44516  0.76953  1.0000
  C   C3784     1.0  0.94199  0.40570  0.77781  1.0000
  C   C3785     1.0  0.94923  0.39854  0.76798  1.0000
  C   C3786     1.0  0.94409  0.39938  0.75703  1.0000
  C   C3787     1.0  0.93140  0.40690  0.75613  1.0000
  C   C3788     1.0  0.92404  0.41396  0.76607  1.0000
  C   C3789     1.0  0.92943  0.41357  0.77677  1.0000
  H   H4504     1.0  0.95888  0.39229  0.76882  1.0000
  H   H4505     1.0  0.94978  0.39383  0.74948  1.0000
  H   H4506     1.0  0.91421  0.41980  0.76540  1.0000
  H   H4507     1.0  0.92143  0.36661  0.84277  1.0000
  H   H4508     1.0  0.98596  0.47878  0.72827  1.0000
  C   C3790     1.0  0.92030  0.30349  0.49667  1.0000
  C   C3791     1.0  0.91282  0.46422  0.83400  1.0000
  C   C3792     1.0  0.91485  0.47278  0.82143  1.0000
  H   H4509     1.0  0.84640  0.48170  0.97473  1.0000
  H   H4510     1.0  0.89804  0.29579  0.51116  1.0000
  C   C3793     1.0  0.82067  0.00994  0.53383  1.0000
  H   H4511     1.0  0.91094  0.45456  0.83500  1.0000
  H   H4512     1.0  0.96186  0.42690  0.74375  1.0000
  C   C3794     1.0  0.87807  0.42118  0.86732  1.0000
  C   C3795     1.0  0.88586  0.41509  0.87677  1.0000
  C   C3796     1.0  0.89973  0.41292  0.87273  1.0000
  C   C3797     1.0  0.90587  0.41708  0.85930  1.0000
  C   C3798     1.0  0.89800  0.42378  0.85003  1.0000
  C   C3799     1.0  0.88418  0.42570  0.85400  1.0000
  H   H4513     1.0  0.88123  0.41156  0.88708  1.0000
  H   H4514     1.0  0.90574  0.40777  0.87999  1.0000
  H   H4515     1.0  0.90253  0.42715  0.83972  1.0000
  H   H4516     1.0  0.87823  0.43043  0.84662  1.0000
  C   C3800     1.0  0.97803  0.44989  0.84601  1.0000
  C   C3801     1.0  0.91872  0.44755  0.66417  1.0000
  C   C3802     1.0  0.79413  0.41611  0.90160  1.0000
  C   C3803     1.0  0.79000  0.42143  0.91299  1.0000
  C   C3804     1.0  0.97934  0.34224  0.55587  1.0000
  H   H4517     1.0  0.83922  0.06404  0.56137  1.0000
  H   H4518     1.0  0.89188  0.43196  0.90542  1.0000
  H   H4519     1.0  0.80457  0.41273  0.89763  1.0000
  H   H4520     1.0  0.93297  0.47755  0.59382  1.0000
  C   C3805     1.0  0.87444  0.48047  0.92133  1.0000
  H   H4521     1.0  0.89947  0.40142  0.81571  1.0000
  H   H4522     1.0  0.85243  0.46069  0.87826  1.0000
  C   C3806     1.0  0.88371  0.40341  0.83250  1.0000
  H   H4523     1.0  0.97536  0.40488  0.75398  1.0000
  C   C3807     1.0  0.82632  0.46907  0.92718  1.0000
  H   H4524     1.0  0.91574  0.07268  0.49567  1.0000
  H   H4525     1.0  0.98610  0.44268  0.84176  1.0000
  H   H4526     1.0  0.94685  0.44726  0.66914  1.0000
  H   H4527     1.0  0.82956  0.45849  0.92848  1.0000
  C   C3808     1.0  0.95134  0.44551  0.65925  1.0000
  H   H4528     1.0  0.97525  0.20616  0.55466  1.0000
  C   C3809     1.0  0.82333  0.99644  0.50336  1.0000
  S   S1010     1.0  0.94805  0.43890  0.79718  1.0000
  H   H4529     1.0  0.83915  0.01402  0.53373  1.0000
  S   S1011     1.0  0.93876  0.44154  0.82839  1.0000
  H   H4530     1.0  0.95884  0.46511  0.79603  1.0000
  H   H4531     1.0  0.98370  0.09796  0.49513  1.0000
  H   H4532     1.0  0.92730  0.13758  0.56962  1.0000
  C   C3810     1.0  0.88283  0.07755  0.55499  1.0000
  H   H4533     1.0  0.96599  0.45881  0.62750  1.0000
  H   H4534     1.0  0.90183  0.45736  0.62174  1.0000
  C   C3811     1.0  0.94941  0.48078  0.59927  1.0000
  S   S1012     1.0  0.97993  0.42272  0.71900  1.0000
  H   H4535     1.0  0.80580  0.45607  0.93998  1.0000
  C   C3812     1.0  0.91603  0.44915  0.64167  1.0000
  H   H4536     1.0  0.90104  0.47541  0.68811  1.0000
  H   H4537     1.0  0.95410  0.46601  0.81320  1.0000
  H   H4538     1.0  0.89774  0.43727  0.64050  1.0000
  H   H4539     1.0  0.97744  0.45736  0.60331  1.0000
  H   H4540     1.0  0.80753  0.42245  0.94640  1.0000
  C   C3813     1.0  0.86040  0.48349  0.90625  1.0000
  H   H4541     1.0  0.98006  0.41705  0.83211  1.0000
  C   C3814     1.0  0.93021  0.04843  0.49199  1.0000
  H   H4542     1.0  0.96473  0.44511  0.83724  1.0000
  N   N257      1.0  0.94616  0.14081  0.55699  1.0000
  C   C3815     1.0  0.94485  0.13445  0.54696  1.0000
  C   C3816     1.0  0.95330  0.13051  0.56660  1.0000
  C   C3817     1.0  0.84979  0.44053  0.96667  1.0000
  C   C3818     1.0  0.95365  0.15138  0.55015  1.0000
  C   C3819     1.0  0.94797  0.16511  0.54978  1.0000
  C   C3820     1.0  0.96701  0.14808  0.54326  1.0000
  H   H4543     1.0  0.94511  0.46100  0.84656  1.0000
  C   C3821     1.0  0.91253  0.46916  0.65019  1.0000
  C   C3822     1.0  0.80197  0.46786  0.89582  1.0000
  H   H4544     1.0  0.93970  0.14189  0.53944  1.0000
  H   H4545     1.0  0.95457  0.12962  0.54149  1.0000
  H   H4546     1.0  0.93909  0.12656  0.55163  1.0000
  H   H4547     1.0  0.96288  0.12494  0.56156  1.0000
  H   H4548     1.0  0.94753  0.12283  0.57245  1.0000
  H   H4549     1.0  0.95538  0.13503  0.57375  1.0000
  C   C3823     1.0  0.92638  0.26673  0.52577  1.0000
  H   H4550     1.0  0.93269  0.05080  0.50036  1.0000
  H   H4551     1.0  0.94725  0.47465  0.86063  1.0000
  H   H4552     1.0  0.93777  0.16871  0.55433  1.0000
  C   C3824     1.0  0.80398  0.44958  0.96095  1.0000
  H   H4553     1.0  0.97169  0.13150  0.48427  1.0000
  C   C3825     1.0  0.85939  0.46628  0.92607  1.0000
  H   H4554     1.0  0.90821  0.18765  0.49320  1.0000
  C   C3826     1.0  0.85692  0.46163  0.86741  1.0000
  H   H4555     1.0  0.91294  0.46085  0.85477  1.0000
  C   C3827     1.0  0.79358  0.44525  0.87311  1.0000
  H   H4556     1.0  0.81031  0.04764  0.51911  1.0000
  H   H4557     1.0  0.94515  0.32000  0.48947  1.0000
  H   H4558     1.0  0.95072  0.18524  0.54272  1.0000
  H   H4559     1.0  0.91180  0.31681  0.52391  1.0000
  H   H4560     1.0  0.79770  0.44964  0.89612  1.0000
  C   C3828     1.0  0.89895  0.46207  0.88932  1.0000
  C   C3829     1.0  0.97821  0.35433  0.55902  1.0000
  H   H4561     1.0  0.94288  0.45148  0.73352  1.0000
  C   C3830     1.0  0.91283  0.46323  0.63999  1.0000
  H   H4562     1.0  0.89194  0.47419  0.71212  1.0000
  C   C3831     1.0  0.91391  0.46779  0.84519  1.0000
  H   H4563     1.0  0.88945  0.08313  0.55576  1.0000
  H   H4564     1.0  0.98645  0.40439  0.67762  1.0000
  H   H4565     1.0  0.93747  0.25800  0.54113  1.0000
  H   H4566     1.0  0.95397  0.45818  0.76925  1.0000
  H   H4567     1.0  0.97364  0.47200  0.63568  1.0000
  H   H4568     1.0  0.96879  0.48114  0.64847  1.0000
  C   C3832     1.0  0.89095  0.44266  0.90298  1.0000
  H   H4569     1.0  0.84973  0.46874  0.86165  1.0000
  S   S1013     1.0  0.97589  0.43994  0.80977  1.0000
  H   H4570     1.0  0.92198  0.43078  0.65591  1.0000
  H   H4571     1.0  0.80226  0.44804  0.86536  1.0000
  H   H4572     1.0  0.85791  0.42336  0.98045  1.0000
  H   H4573     1.0  0.94247  0.47363  0.80276  1.0000
  H   H4574     1.0  0.91171  0.42423  0.64423  1.0000
  C   C3833     1.0  0.95535  0.17480  0.54307  1.0000
  Fe  Fe507     1.0  0.93987  0.43521  0.69937  1.0000
  C   C3834     1.0  0.82578  0.03183  0.52617  1.0000
  C   C3835     1.0  0.90811  0.43259  0.63632  1.0000
  H   H4575     1.0  0.93716  0.44248  0.62263  1.0000
  C   C3836     1.0  0.86586  0.06335  0.55163  1.0000
  H   H4576     1.0  0.89817  0.06016  0.55253  1.0000
  C   C3837     1.0  0.82342  0.01095  0.48149  1.0000
  C   C3838     1.0  0.88857  0.47015  0.89656  1.0000
  H   H4577     1.0  0.97076  0.39010  0.65264  1.0000
  H   H4578     1.0  0.98388  0.40734  0.65702  1.0000
  C   C3839     1.0  0.82386  0.98525  0.49849  1.0000
  H   H4579     1.0  0.85190  0.03707  0.55592  1.0000
  C   C3840     1.0  0.96890  0.47150  0.64644  1.0000
  C   C3841     1.0  0.95750  0.42983  0.64498  1.0000
  S   S1014     1.0  0.85540  0.41180  0.94013  1.0000
  H   H4580     1.0  0.84599  0.44016  0.93626  1.0000
  H   H4581     1.0  0.84140  0.07247  0.54388  1.0000
  H   H4582     1.0  0.92377  0.41914  0.78430  1.0000
  H   H4583     1.0  0.97054  0.33940  0.55560  1.0000
  H   H4584     1.0  0.90614  0.46648  0.88119  1.0000
  C   C3842     1.0  0.78883  0.41703  0.97785  1.0000
  H   H4585     1.0  0.94456  0.42916  0.74992  1.0000
  C   C3843     1.0  0.91460  0.06924  0.48724  1.0000
  H   H4586     1.0  0.93946  0.47607  0.69579  1.0000
  H   H4587     1.0  0.82264  0.01742  0.49906  1.0000
  S   S1015     1.0  0.96241  0.39653  0.67835  1.0000
  H   H4588     1.0  0.95110  0.46333  0.73468  1.0000
  S   S1016     1.0  0.96078  0.42693  0.69005  1.0000
  H   H4589     1.0  0.86897  0.47385  0.84312  1.0000
  N   N258      1.0  0.86973  0.46576  0.86378  1.0000
  C   C3844     1.0  0.92753  0.29122  0.52913  1.0000
  H   H4590     1.0  0.92182  0.04341  0.49678  1.0000
  H   H4591     1.0  0.87614  0.45630  0.84700  1.0000
  C   C3845     1.0  0.85515  0.42700  0.97089  1.0000
  H   H4592     1.0  0.96830  0.37226  0.57553  1.0000
  H   H4593     1.0  0.87922  0.44529  0.87046  1.0000
  H   H4594     1.0  0.97406  0.17877  0.53112  1.0000
  H   H4595     1.0  0.95230  0.47879  0.62992  1.0000
  C   C3846     1.0  0.88774  0.06460  0.55317  1.0000
  H   H4596     1.0  0.88399  0.04790  0.54920  1.0000
  C   C3847     1.0  0.92093  0.29115  0.51937  1.0000
  S   S1017     1.0  0.83640  0.04241  0.52425  1.0000
  H   H4597     1.0  0.97852  0.43760  0.73812  1.0000
  N   N259      1.0  0.86850  0.47347  0.91517  1.0000
  H   H4598     1.0  0.92389  0.15274  0.49764  1.0000
  C   C3848     1.0  0.95211  0.43289  0.65748  1.0000
  C   C3849     1.0  0.87947  0.40048  0.84634  1.0000
  C   C3850     1.0  0.87911  0.46470  0.90739  1.0000
  H   H4599     1.0  0.92637  0.15286  0.55768  1.0000
  C   C3851     1.0  0.88058  0.45065  0.91035  1.0000
  S   S1018     1.0  0.91687  0.46686  0.80715  1.0000
  H   H4600     1.0  0.96845  0.36053  0.56103  1.0000
  C   C3852     1.0  0.97623  0.45982  0.56788  1.0000
  C   C3853     1.0  0.80513  0.41909  0.95717  1.0000
  C   C3854     1.0  0.91548  0.46134  0.66223  1.0000
  H   H4601     1.0  0.93120  0.30223  0.49446  1.0000
  C   C3855     1.0  0.93040  0.47816  0.71600  1.0000
  H   H4602     1.0  0.81459  0.44692  0.96012  1.0000
  C   C3856     1.0  0.95309  0.47175  0.80299  1.0000
  S   S1019     1.0  0.88106  0.98479  0.52807  1.0000
  C   C3857     1.0  0.97697  0.44643  0.56889  1.0000
  H   H4603     1.0  0.83265  0.38775  0.97394  1.0000
  C   C3858     1.0  0.85235  0.07414  0.48256  1.0000
  H   H4604     1.0  0.87388  0.44553  0.91837  1.0000
  S   S1020     1.0  0.84737  0.45193  0.97654  1.0000
  C   C3859     1.0  0.96238  0.43928  0.63425  1.0000
  C   C3860     1.0  0.78808  0.47956  0.87552  1.0000
  C   C3861     1.0  0.92055  0.27852  0.51794  1.0000
  H   H4605     1.0  0.89501  0.31350  0.50791  1.0000
  C   C3862     1.0  0.94259  0.47307  0.59613  1.0000
  C   C3863     1.0  0.95175  0.45252  0.73614  1.0000
  C   C3864     1.0  0.86111  0.07654  0.55373  1.0000
  S   S1021     1.0  0.92001  0.47933  0.74215  1.0000
  H   H4606     1.0  0.93117  0.44890  0.75619  1.0000
  H   H4607     1.0  0.87252  0.04941  0.53247  1.0000
  C   C3865     1.0  0.93978  0.45042  0.75892  1.0000
  C   C3866     1.0  0.80814  0.01517  0.53085  1.0000
  N   N260      1.0  0.85752  0.05609  0.54879  1.0000
  N   N261      1.0  0.91659  0.44249  0.63109  1.0000
  H   H4608     1.0  0.86871  0.03610  0.55513  1.0000
  C   C3867     1.0  0.87946  0.05762  0.55138  1.0000
  H   H4609     1.0  0.92865  0.30025  0.53080  1.0000
  H   H4610     1.0  0.86934  0.40439  0.85101  1.0000
  N   N262      1.0  0.95249  0.44546  0.75006  1.0000
  H   H4611     1.0  0.96851  0.47281  0.86546  1.0000
  H   H4612     1.0  0.93247  0.17853  0.48776  1.0000
  H   H4613     1.0  0.92654  0.11249  0.49167  1.0000
  C   C3868     1.0  0.90019  0.30416  0.51377  1.0000
  C   C3869     1.0  0.96816  0.46665  0.85917  1.0000
  C   C3870     1.0  0.84660  0.44522  0.95414  1.0000
  C   C3871     1.0  0.86954  0.08348  0.55534  1.0000
  N   N263      1.0  0.92015  0.38534  0.82829  1.0000
  C   C3872     1.0  0.92361  0.38951  0.81349  1.0000
  C   C3873     1.0  0.92912  0.38975  0.83359  1.0000
  H   H4614     1.0  0.91769  0.38603  0.80869  1.0000
  H   H4615     1.0  0.93416  0.38531  0.80930  1.0000
  H   H4616     1.0  0.92223  0.40051  0.81010  1.0000
  H   H4617     1.0  0.92854  0.38558  0.84444  1.0000
  H   H4618     1.0  0.93967  0.38684  0.82849  1.0000
  H   H4619     1.0  0.92658  0.40073  0.83226  1.0000
  H   H4620     1.0  0.90810  0.38244  0.85494  1.0000
  H   H4621     1.0  0.86468  0.45895  0.93358  1.0000
  H   H4622     1.0  0.91535  0.46593  0.67007  1.0000
  H   H4623     1.0  0.84261  0.45569  0.95088  1.0000
  Fe  Fe508     1.0  0.95705  0.43273  0.81504  1.0000
  C   C3874     1.0  0.86211  0.05507  0.53465  1.0000
  C   C3875     1.0  0.85866  0.04246  0.55739  1.0000
  H   H4624     1.0  0.98170  0.36349  0.58370  1.0000
  C   C3876     1.0  0.84324  0.06267  0.55094  1.0000
  H   H4625     1.0  0.85812  0.45171  0.86530  1.0000
  H   H4626     1.0  0.93413  0.42754  0.63472  1.0000
  C   C3877     1.0  0.91624  0.31581  0.51342  1.0000
  Fe  Fe509     1.0  0.95368  0.40799  0.69479  1.0000
  H   H4627     1.0  0.89562  0.30382  0.52455  1.0000
  H   H4628     1.0  0.82349  0.99948  0.53829  1.0000
  C   C3878     1.0  0.87869  0.45541  0.87158  1.0000
  S   S1022     1.0  0.92941  0.45586  0.69182  1.0000
  H   H4629     1.0  0.85392  0.03574  0.48663  1.0000
  C   C3879     1.0  0.90621  0.39081  0.83426  1.0000
  C   C3880     1.0  0.90156  0.38812  0.84835  1.0000
  C   C3881     1.0  0.91911  0.44151  0.65403  1.0000
  C   C3882     1.0  0.97962  0.45758  0.85409  1.0000
  H   H4630     1.0  0.91877  0.45890  0.61403  1.0000
  H   H4631     1.0  0.93757  0.47686  0.64244  1.0000
  C   C3883     1.0  0.93262  0.14577  0.56447  1.0000
  C   C3884     1.0  0.92278  0.37061  0.83182  1.0000
  H   H4632     1.0  0.98248  0.43883  0.69169  1.0000
  C   C3885     1.0  0.91221  0.45176  0.61914  1.0000
  H   H4633     1.0  0.96044  0.44859  0.72871  1.0000
  H   H4634     1.0  0.87677  0.40951  0.82641  1.0000
  S   S1023     1.0  0.95867  0.40080  0.71514  1.0000
  H   H4635     1.0  0.82195  0.46844  0.94829  1.0000
  Fe  Fe510     1.0  0.92927  0.44621  0.81104  1.0000
  C   C3886     1.0  0.89687  0.39868  0.82647  1.0000
  H   H4636     1.0  0.98085  0.39227  0.55451  1.0000
  H   H4637     1.0  0.80749  0.46338  0.90360  1.0000
  C   C3887     1.0  0.96422  0.44745  0.75319  1.0000
  H   H4638     1.0  0.97537  0.46354  0.65243  1.0000
  H   H4639     1.0  0.85596  0.04992  0.53193  1.0000
  H   H4640     1.0  0.83725  0.05668  0.54910  1.0000
  C   C3888     1.0  0.90789  0.18365  0.48477  1.0000
  C   C3889     1.0  0.88839  0.39290  0.85424  1.0000
  H   H4641     1.0  0.86586  0.09365  0.55657  1.0000
  H   H4642     1.0  0.86159  0.06508  0.52784  1.0000
  C   C3890     1.0  0.85727  0.41824  0.96253  1.0000
  C   C3891     1.0  0.97425  0.15785  0.53650  1.0000
  H   H4643     1.0  0.93284  0.15075  0.57221  1.0000
  H   H4644     1.0  0.95523  0.42531  0.76137  1.0000
  H   H4645     1.0  0.85620  0.47863  0.90099  1.0000
  Fe  Fe511     1.0  0.85783  0.03244  0.51853  1.0000
  Fe  Fe512     1.0  0.84691  0.42151  0.92184  1.0000
  H   H4646     1.0  0.97496  0.41845  0.79162  1.0000
  H   H4647     1.0  0.96652  0.43686  0.62453  1.0000
  C   C3892     1.0  0.96331  0.45417  0.76323  1.0000
  H   H4648     1.0  0.95437  0.46432  0.67111  1.0000
  H   H4649     1.0  0.87521  0.45539  0.88241  1.0000
  C   C3893     1.0  0.84846  0.43646  0.94591  1.0000
  C   C3894     1.0  0.82687  0.47720  0.91440  1.0000
  C   C3895     1.0  0.87528  0.46601  0.84938  1.0000
  H   H4650     1.0  0.88538  0.46802  0.84601  1.0000
  S   S1024     1.0  0.95242  0.41251  0.82155  1.0000
  H   H4651     1.0  0.85622  0.04276  0.56813  1.0000
  H   H4652     1.0  0.95790  0.42012  0.64358  1.0000
  N   N264      1.0  0.91779  0.17098  0.48376  1.0000
  H   H4653     1.0  0.94869  0.48154  0.66419  1.0000
  H   H4654     1.0  0.90625  0.06406  0.49113  1.0000
  H   H4655     1.0  0.96761  0.46715  0.56523  1.0000
  C   C3896     1.0  0.91596  0.16196  0.49720  1.0000
  H   H4656     1.0  0.98473  0.47425  0.57020  1.0000
  C   C3897     1.0  0.93247  0.47293  0.70479  1.0000
  C   C3898     1.0  0.92200  0.47345  0.72790  1.0000
  C   C3899     1.0  0.79549  0.44768  0.97347  1.0000
  H   H4657     1.0  0.98478  0.18463  0.54908  1.0000
  C   C3900     1.0  0.78957  0.46564  0.88080  1.0000
  H   H4658     1.0  0.97267  0.38155  0.55150  1.0000
  H   H4659     1.0  0.98436  0.15505  0.53109  1.0000
  H   H4660     1.0  0.97791  0.38134  0.57891  1.0000
  H   H4661     1.0  0.79615  0.45222  0.92570  1.0000
  C   C3901     1.0  0.98393  0.40807  0.76850  1.0000
  H   H4662     1.0  0.98638  0.36586  0.53043  1.0000
  H   H4663     1.0  0.98341  0.45816  0.87802  1.0000
  H   H4664     1.0  0.97373  0.46155  0.77309  1.0000
  C   C3902     1.0  0.97709  0.44281  0.74586  1.0000
  H   H4665     1.0  0.89769  0.18225  0.48636  1.0000
  H   H4666     1.0  0.79487  0.03286  0.52293  1.0000
  H   H4667     1.0  0.91585  0.14500  0.48466  1.0000
  C   C3903     1.0  0.98244  0.38234  0.55228  1.0000
  H   H4668     1.0  0.95181  0.36980  0.48400  1.0000
  C   C3904     1.0  0.98617  0.46375  0.57085  1.0000
  C   C3905     1.0  0.98686  0.35698  0.51454  1.0000
  N   N265      1.0  0.92696  0.06053  0.48154  1.0000
  H   H4669     1.0  0.91129  0.04412  0.48173  1.0000
  Fe  Fe513     1.0  0.82050  0.93155  0.41795  1.0000
  S   S1025     1.0  0.83770  0.94058  0.41566  1.0000
  S   S1026     1.0  0.80896  0.93921  0.40170  1.0000
  Fe  Fe514     1.0  0.82437  0.91358  0.44426  1.0000
  S   S1027     1.0  0.84138  0.92141  0.44458  1.0000
  S   S1028     1.0  0.81872  0.89686  0.46099  1.0000
  Fe  Fe515     1.0  0.84848  0.91966  0.42323  1.0000
  S   S1029     1.0  0.87068  0.91238  0.41645  1.0000
  S   S1030     1.0  0.81144  0.93374  0.43896  1.0000
  S   S1031     1.0  0.83210  0.91054  0.42334  1.0000
  H   H4670     1.0  0.91387  0.59126  0.36060  1.0000
  S   S1032     1.0  0.91859  0.83126  0.44466  1.0000
  S   S1033     1.0  0.90006  0.85166  0.41811  1.0000
  H   H4671     1.0  0.90585  0.58972  0.38486  1.0000
  Fe  Fe516     1.0  0.82933  0.94137  0.43714  1.0000
  H   H4672     1.0  0.85170  0.95546  0.42718  1.0000
  C   C3906     1.0  0.79221  0.52970  0.03367  1.0000
  H   H4673     1.0  0.98555  0.48741  0.37439  1.0000
  H   H4674     1.0  0.89649  0.57066  0.39916  1.0000
  H   H4675     1.0  0.91348  0.57392  0.35052  1.0000
  H   H4676     1.0  0.89876  0.49651  0.10061  1.0000
  H   H4677     1.0  0.96583  0.66368  0.39265  1.0000
  H   H4678     1.0  0.89226  0.48802  0.27215  1.0000
  C   C3907     1.0  0.96497  0.52877  0.16050  1.0000
  C   C3908     1.0  0.81566  0.56430  0.01847  1.0000
  C   C3909     1.0  0.94106  0.69305  0.47251  1.0000
  H   H4679     1.0  0.86173  0.51111  0.99464  1.0000
  C   C3910     1.0  0.97482  0.74042  0.44589  1.0000
  H   H4680     1.0  0.93808  0.77871  0.40528  1.0000
  C   C3911     1.0  0.84963  0.48983  0.00659  1.0000
  Fe  Fe517     1.0  0.85252  0.53408  0.05810  1.0000
  S   S1034     1.0  0.86405  0.52501  0.04055  1.0000
  S   S1035     1.0  0.85991  0.53331  0.07637  1.0000
  H   H4681     1.0  0.86620  0.56034  0.10396  1.0000
  Fe  Fe518     1.0  0.84723  0.51489  0.04517  1.0000
  H   H4682     1.0  0.91411  0.63168  0.45661  1.0000
  Fe  Fe519     1.0  0.85118  0.54184  0.02874  1.0000
  S   S1036     1.0  0.85654  0.55285  0.00738  1.0000
  H   H4683     1.0  0.89523  0.55301  0.38959  1.0000
  H   H4684     1.0  0.92072  0.53774  0.37149  1.0000
  Fe  Fe520     1.0  0.92287  0.52524  0.10268  1.0000
  S   S1037     1.0  0.93472  0.50561  0.11127  1.0000
  S   S1038     1.0  0.91834  0.52800  0.08244  1.0000
  Fe  Fe521     1.0  0.92131  0.53620  0.12642  1.0000
  S   S1039     1.0  0.93248  0.51726  0.13731  1.0000
  S   S1040     1.0  0.91268  0.55538  0.13314  1.0000
  Fe  Fe522     1.0  0.94601  0.51679  0.11720  1.0000
  S   S1041     1.0  0.96772  0.50793  0.11625  1.0000
  Fe  Fe523     1.0  0.92041  0.50761  0.13054  1.0000
  C   C3912     1.0  0.97019  0.82601  0.47028  1.0000
  S   S1042     1.0  0.93569  0.53646  0.10658  1.0000
  S   S1043     1.0  0.90769  0.52661  0.12175  1.0000
  H   H4685     1.0  0.92163  0.67020  0.43631  1.0000
  Fe  Fe524     1.0  0.92740  0.54676  0.20318  1.0000
  S   S1044     1.0  0.93913  0.52672  0.20007  1.0000
  S   S1045     1.0  0.92064  0.56320  0.18663  1.0000
  Fe  Fe525     1.0  0.92933  0.54066  0.23224  1.0000
  S   S1046     1.0  0.94111  0.52004  0.23145  1.0000
  S   S1047     1.0  0.92346  0.54852  0.25106  1.0000
  Fe  Fe526     1.0  0.95213  0.52938  0.21154  1.0000
  S   S1048     1.0  0.97408  0.52473  0.20405  1.0000
  Fe  Fe527     1.0  0.92693  0.51921  0.22022  1.0000
  S   S1049     1.0  0.91988  0.50010  0.22684  1.0000
  S   S1050     1.0  0.94151  0.55016  0.21312  1.0000
  S   S1051     1.0  0.91403  0.53916  0.22251  1.0000
  S   S1052     1.0  0.80391  0.54618  0.05684  1.0000
  C   C3913     1.0  0.90298  0.52039  0.17142  1.0000
  Fe  Fe528     1.0  0.95563  0.59530  0.41951  1.0000
  S   S1053     1.0  0.93498  0.60205  0.41640  1.0000
  S   S1054     1.0  0.96056  0.58487  0.43946  1.0000
  Fe  Fe529     1.0  0.96718  0.60559  0.39025  1.0000
  S   S1055     1.0  0.94742  0.61339  0.38476  1.0000
  H   H4686     1.0  0.96024  0.75515  0.47250  1.0000
  Fe  Fe530     1.0  0.94150  0.62077  0.40390  1.0000
  S   S1056     1.0  0.92895  0.64062  0.40788  1.0000
  Fe  Fe531     1.0  0.94305  0.59390  0.39773  1.0000
  S   S1057     1.0  0.93414  0.57878  0.39392  1.0000
  S   S1058     1.0  0.96172  0.61435  0.40827  1.0000
  S   S1059     1.0  0.96333  0.58573  0.40193  1.0000
  Fe  Fe532     1.0  0.95377  0.52677  0.31331  1.0000
  S   S1060     1.0  0.95081  0.50775  0.32793  1.0000
  S   S1061     1.0  0.96097  0.52514  0.29184  1.0000
  Fe  Fe533     1.0  0.94702  0.54233  0.33516  1.0000
  S   S1062     1.0  0.94311  0.52460  0.35150  1.0000
  S   S1063     1.0  0.94567  0.56286  0.33815  1.0000
  Fe  Fe534     1.0  0.96142  0.51346  0.33987  1.0000
  H   H4687     1.0  0.78991  0.92022  0.44084  1.0000
  Fe  Fe535     1.0  0.93281  0.52042  0.33805  1.0000
  S   S1064     1.0  0.91340  0.51407  0.34655  1.0000
  S   S1065     1.0  0.96623  0.53138  0.32435  1.0000
  S   S1066     1.0  0.93492  0.53928  0.32260  1.0000
  H   H4688     1.0  0.87949  0.88896  0.44523  1.0000
  C   C3914     1.0  0.92804  0.72751  0.47497  1.0000
  C   C3915     1.0  0.90222  0.52441  0.18296  1.0000
  H   H4689     1.0  0.85531  0.55914  0.08753  1.0000
  C   C3916     1.0  0.97800  0.57027  0.25962  1.0000
  H   H4690     1.0  0.85967  0.49099  0.10583  1.0000
  H   H4691     1.0  0.90161  0.53476  0.18257  1.0000
  S   S1067     1.0  0.92862  0.69692  0.46345  1.0000
  H   H4692     1.0  0.91161  0.52906  0.36644  1.0000
  C   C3917     1.0  0.91619  0.64338  0.46902  1.0000
  H   H4693     1.0  0.82833  0.49737  0.98604  1.0000
  H   H4694     1.0  0.98596  0.64996  0.47510  1.0000
  C   C3918     1.0  0.90462  0.55745  0.09720  1.0000
  C   C3919     1.0  0.91098  0.50029  0.34227  1.0000
  H   H4695     1.0  0.88384  0.48788  0.18202  1.0000
  C   C3920     1.0  0.92866  0.49001  0.21550  1.0000
  H   H4696     1.0  0.91000  0.55703  0.10486  1.0000
  H   H4697     1.0  0.88287  0.58710  0.09818  1.0000
  H   H4698     1.0  0.97053  0.57263  0.34116  1.0000
  C   C3921     1.0  0.97217  0.54710  0.37406  1.0000
  H   H4699     1.0  0.80330  0.53486  0.98625  1.0000
  C   C3922     1.0  0.96358  0.76328  0.43900  1.0000
  H   H4700     1.0  0.90839  0.74764  0.46847  1.0000
  H   H4701     1.0  0.95160  0.57778  0.27102  1.0000
  S   S1068     1.0  0.93688  0.85105  0.42264  1.0000
  C   C3923     1.0  0.78903  0.93825  0.39150  1.0000
  H   H4702     1.0  0.96642  0.55421  0.40450  1.0000
  S   S1069     1.0  0.85078  0.49298  0.04696  1.0000
  C   C3924     1.0  0.79766  0.97586  0.40441  1.0000
  H   H4703     1.0  0.78726  0.49419  0.03784  1.0000
  H   H4704     1.0  0.79644  0.93830  0.38226  1.0000
  H   H4705     1.0  0.90502  0.53477  0.38150  1.0000
  C   C3925     1.0  0.88473  0.91312  0.44184  1.0000
  C   C3926     1.0  0.93839  0.57412  0.37840  1.0000
  C   C3927     1.0  0.94214  0.58297  0.36641  1.0000
  C   C3928     1.0  0.94434  0.57936  0.35417  1.0000
  C   C3929     1.0  0.94335  0.56670  0.35380  1.0000
  C   C3930     1.0  0.94009  0.55767  0.36582  1.0000
  C   C3931     1.0  0.93736  0.56146  0.37805  1.0000
  H   H4706     1.0  0.94277  0.59281  0.36656  1.0000
  H   H4707     1.0  0.94668  0.58648  0.34492  1.0000
  H   H4708     1.0  0.93936  0.54790  0.36566  1.0000
  H   H4709     1.0  0.93431  0.55463  0.38729  1.0000
  C   C3932     1.0  0.93661  0.65384  0.40582  1.0000
  C   C3933     1.0  0.95001  0.65312  0.39983  1.0000
  C   C3934     1.0  0.95563  0.66407  0.39781  1.0000
  C   C3935     1.0  0.94800  0.67565  0.40213  1.0000
  C   C3936     1.0  0.93470  0.67623  0.40844  1.0000
  C   C3937     1.0  0.92899  0.66546  0.41005  1.0000
  H   H4710     1.0  0.95592  0.64433  0.39633  1.0000
  H   H4711     1.0  0.91604  0.50430  0.25633  1.0000
  H   H4712     1.0  0.92868  0.68521  0.41153  1.0000
  H   H4713     1.0  0.91855  0.66621  0.41439  1.0000
  H   H4714     1.0  0.81028  0.52840  0.03897  1.0000
  C   C3938     1.0  0.80009  0.50611  0.06747  1.0000
  C   C3939     1.0  0.92977  0.76895  0.44388  1.0000
  H   H4715     1.0  0.86930  0.88856  0.46169  1.0000
  C   C3940     1.0  0.95401  0.69408  0.46584  1.0000
  H   H4716     1.0  0.86456  0.90117  0.44771  1.0000
  H   H4717     1.0  0.96050  0.77159  0.43119  1.0000
  C   C3941     1.0  0.81854  0.55706  0.00864  1.0000
  H   H4718     1.0  0.95655  0.69713  0.45521  1.0000
  H   H4719     1.0  0.88332  0.55172  0.11573  1.0000
  C   C3942     1.0  0.95777  0.54789  0.17086  1.0000
  C   C3943     1.0  0.94651  0.61772  0.45482  1.0000
  C   C3944     1.0  0.94930  0.60882  0.44651  1.0000
  C   C3945     1.0  0.95609  0.59573  0.45035  1.0000
  C   C3946     1.0  0.95976  0.59149  0.46272  1.0000
  H   H4720     1.0  0.86657  0.50483  0.09574  1.0000
  H   H4721     1.0  0.94148  0.62788  0.45166  1.0000
  H   H4722     1.0  0.94627  0.61214  0.43709  1.0000
  C   C3947     1.0  0.95688  0.60042  0.47109  1.0000
  H   H4723     1.0  0.98522  0.58903  0.41346  1.0000
  C   C3948     1.0  0.93331  0.54111  0.26293  1.0000
  C   C3949     1.0  0.94487  0.53147  0.26030  1.0000
  C   C3950     1.0  0.95296  0.52615  0.26959  1.0000
  C   C3951     1.0  0.94951  0.53041  0.28158  1.0000
  C   C3952     1.0  0.93772  0.53971  0.28446  1.0000
  C   C3953     1.0  0.92966  0.54509  0.27511  1.0000
  H   H4724     1.0  0.94781  0.52844  0.25094  1.0000
  H   H4725     1.0  0.96208  0.51896  0.26734  1.0000
  H   H4726     1.0  0.93505  0.54314  0.29364  1.0000
  H   H4727     1.0  0.92068  0.55251  0.27722  1.0000
  H   H4728     1.0  0.97940  0.80797  0.44157  1.0000
  C   C3954     1.0  0.89270  0.58010  0.09700  1.0000
  H   H4729     1.0  0.93660  0.79501  0.41837  1.0000
  H   H4730     1.0  0.91977  0.82839  0.47447  1.0000
  C   C3955     1.0  0.93333  0.49575  0.20214  1.0000
  S   S1070     1.0  0.94812  0.62563  0.47619  1.0000
  C   C3956     1.0  0.92722  0.81355  0.38070  1.0000
  C   C3957     1.0  0.79407  0.54106  0.04946  1.0000
  H   H4731     1.0  0.93046  0.50630  0.19848  1.0000
  H   H4732     1.0  0.97270  0.54721  0.26094  1.0000
  C   C3958     1.0  0.91537  0.55681  0.14811  1.0000
  C   C3959     1.0  0.92111  0.54588  0.15703  1.0000
  C   C3960     1.0  0.92268  0.54755  0.16907  1.0000
  C   C3961     1.0  0.91872  0.56021  0.17201  1.0000
  C   C3962     1.0  0.91319  0.57106  0.16297  1.0000
  C   C3963     1.0  0.91144  0.56936  0.15114  1.0000
  H   H4733     1.0  0.92423  0.53615  0.15475  1.0000
  H   H4734     1.0  0.92692  0.53909  0.17602  1.0000
  H   H4735     1.0  0.91013  0.58086  0.16517  1.0000
  H   H4736     1.0  0.90701  0.57785  0.14431  1.0000
  H   H4737     1.0  0.98585  0.52095  0.34107  1.0000
  C   C3964     1.0  0.80264  0.56840  0.02501  1.0000
  C   C3965     1.0  0.86481  0.56194  0.08428  1.0000
  H   H4738     1.0  0.95515  0.54970  0.39782  1.0000
  H   H4739     1.0  0.90381  0.50346  0.11829  1.0000
  C   C3966     1.0  0.83608  0.98052  0.44345  1.0000
  C   C3967     1.0  0.90218  0.52882  0.08088  1.0000
  C   C3968     1.0  0.89170  0.52781  0.09204  1.0000
  C   C3969     1.0  0.87890  0.52899  0.09045  1.0000
  C   C3970     1.0  0.87641  0.53111  0.07773  1.0000
  C   C3971     1.0  0.88693  0.53182  0.06658  1.0000
  C   C3972     1.0  0.89975  0.53073  0.06816  1.0000
  H   H4740     1.0  0.89341  0.52620  0.10189  1.0000
  H   H4741     1.0  0.87083  0.52842  0.09914  1.0000
  H   H4742     1.0  0.88514  0.53349  0.05672  1.0000
  H   H4743     1.0  0.90779  0.53151  0.05946  1.0000
  N   N266      1.0  0.96643  0.56850  0.25600  1.0000
  H   H4744     1.0  0.82416  0.52624  0.99182  1.0000
  C   C3973     1.0  0.97408  0.52829  0.22828  1.0000
  H   H4745     1.0  0.97390  0.52275  0.17783  1.0000
  C   C3974     1.0  0.97722  0.84436  0.41825  1.0000
  S   S1071     1.0  0.98271  0.70562  0.43661  1.0000
  C   C3975     1.0  0.98384  0.63434  0.42071  1.0000
  H   H4746     1.0  0.96505  0.52479  0.23189  1.0000
  C   C3976     1.0  0.88967  0.56815  0.07569  1.0000
  H   H4747     1.0  0.90470  0.78909  0.42603  1.0000
  H   H4748     1.0  0.89158  0.79346  0.41704  1.0000
  C   C3977     1.0  0.85944  0.52181  0.99162  1.0000
  H   H4749     1.0  0.97895  0.67313  0.40390  1.0000
  H   H4750     1.0  0.96785  0.79911  0.46409  1.0000
  C   C3978     1.0  0.82163  0.53283  0.99898  1.0000
  C   C3979     1.0  0.88458  0.56213  0.11341  1.0000
  C   C3980     1.0  0.83846  0.48776  0.04329  1.0000
  H   H4751     1.0  0.96355  0.53578  0.11725  1.0000
  H   H4752     1.0  0.96498  0.58134  0.46574  1.0000
  C   C3981     1.0  0.91581  0.50099  0.29338  1.0000
  H   H4753     1.0  0.89122  0.91895  0.44298  1.0000
  H   H4754     1.0  0.92154  0.55188  0.34776  1.0000
  H   H4755     1.0  0.91101  0.54283  0.34546  1.0000
  H   H4756     1.0  0.98005  0.56902  0.42392  1.0000
  H   H4757     1.0  0.80047  0.57361  0.03297  1.0000
  C   C3982     1.0  0.90195  0.48909  0.10898  1.0000
  C   C3983     1.0  0.87310  0.89531  0.45223  1.0000
  C   C3984     1.0  0.90376  0.50705  0.17191  1.0000
  H   H4758     1.0  0.90303  0.52766  0.16203  1.0000
  C   C3985     1.0  0.92105  0.82460  0.38628  1.0000
  H   H4759     1.0  0.90457  0.82394  0.42511  1.0000
  H   H4760     1.0  0.96220  0.54952  0.13788  1.0000
  C   C3986     1.0  0.91346  0.88009  0.45696  1.0000
  H   H4761     1.0  0.95633  0.58893  0.25539  1.0000
  H   H4762     1.0  0.83033  0.50254  0.00648  1.0000
  C   C3987     1.0  0.98471  0.50367  0.35720  1.0000
  N   N267      1.0  0.97550  0.54635  0.38683  1.0000
  S   S1072     1.0  0.93363  0.75230  0.41283  1.0000
  H   H4763     1.0  0.80023  0.49318  0.00376  1.0000
  S   S1073     1.0  0.95946  0.71946  0.40895  1.0000
  H   H4764     1.0  0.79509  0.96629  0.40645  1.0000
  H   H4765     1.0  0.86582  0.56331  0.06361  1.0000
  H   H4766     1.0  0.89518  0.74132  0.48088  1.0000
  C   C3988     1.0  0.87860  0.89535  0.41751  1.0000
  C   C3989     1.0  0.89245  0.89161  0.41553  1.0000
  C   C3990     1.0  0.89911  0.87819  0.41630  1.0000
  C   C3991     1.0  0.89199  0.86841  0.41861  1.0000
  C   C3992     1.0  0.87814  0.87214  0.42062  1.0000
  C   C3993     1.0  0.87145  0.88551  0.42028  1.0000
  H   H4767     1.0  0.89811  0.89915  0.41319  1.0000
  H   H4768     1.0  0.90978  0.87549  0.41457  1.0000
  H   H4769     1.0  0.87254  0.86467  0.42234  1.0000
  H   H4770     1.0  0.86079  0.88824  0.42180  1.0000
  H   H4771     1.0  0.97921  0.54880  0.11759  1.0000
  H   H4772     1.0  0.98085  0.54221  0.36725  1.0000
  H   H4773     1.0  0.87584  0.91889  0.46617  1.0000
  N   N268      1.0  0.89126  0.56627  0.09921  1.0000
  H   H4774     1.0  0.97816  0.81807  0.46718  1.0000
  H   H4775     1.0  0.79119  0.96500  0.47251  1.0000
  C   C3994     1.0  0.79424  0.50069  0.99739  1.0000
  H   H4776     1.0  0.81070  0.49936  0.03061  1.0000
  H   H4777     1.0  0.82363  0.56654  0.02117  1.0000
  H   H4778     1.0  0.85013  0.49271  0.01529  1.0000
  C   C3995     1.0  0.82987  0.89417  0.47104  1.0000
  H   H4779     1.0  0.93708  0.49897  0.07064  1.0000
  H   H4780     1.0  0.88321  0.48739  0.99159  1.0000
  C   C3996     1.0  0.83713  0.49282  0.99001  1.0000
  H   H4781     1.0  0.89851  0.58357  0.08683  1.0000
  C   C3997     1.0  0.96384  0.69159  0.47293  1.0000
  H   H4782     1.0  0.94580  0.57794  0.25700  1.0000
  H   H4783     1.0  0.95564  0.55322  0.26006  1.0000
  C   C3998     1.0  0.84979  0.96480  0.43010  1.0000
  H   H4784     1.0  0.86610  0.90640  0.47301  1.0000
  H   H4785     1.0  0.96095  0.55404  0.27411  1.0000
  H   H4786     1.0  0.90338  0.49506  0.20522  1.0000
  H   H4787     1.0  0.81760  0.96695  0.40498  1.0000
  H   H4788     1.0  0.95717  0.64258  0.44490  1.0000
  H   H4789     1.0  0.98001  0.53095  0.40387  1.0000
  H   H4790     1.0  0.98312  0.64393  0.41322  1.0000
  C   C3999     1.0  0.91853  0.65555  0.46967  1.0000
  C   C4000     1.0  0.91592  0.50298  0.26677  1.0000
  C   C4001     1.0  0.96782  0.49815  0.08743  1.0000
  H   H4791     1.0  0.88820  0.79620  0.43353  1.0000
  H   H4792     1.0  0.96898  0.56838  0.28090  1.0000
  C   C4002     1.0  0.94999  0.49225  0.27189  1.0000
  C   C4003     1.0  0.90342  0.49736  0.18410  1.0000
  H   H4793     1.0  0.92368  0.83411  0.38137  1.0000
  Fe  Fe536     1.0  0.93740  0.70546  0.44217  1.0000
  C   C4004     1.0  0.97757  0.57008  0.27307  1.0000
  H   H4794     1.0  0.89044  0.56241  0.12037  1.0000
  H   H4795     1.0  0.92884  0.79270  0.38280  1.0000
  C   C4005     1.0  0.94927  0.84630  0.47847  1.0000
  H   H4796     1.0  0.82649  0.50729  0.03780  1.0000
  H   H4797     1.0  0.91783  0.52135  0.28711  1.0000
  H   H4798     1.0  0.88442  0.89814  0.48081  1.0000
  H   H4799     1.0  0.90394  0.54718  0.09778  1.0000
  C   C4006     1.0  0.81068  0.97642  0.40347  1.0000
  H   H4800     1.0  0.95996  0.59720  0.48049  1.0000
  H   H4801     1.0  0.91318  0.80704  0.42918  1.0000
  H   H4802     1.0  0.86160  0.52459  0.01001  1.0000
  Fe  Fe537     1.0  0.96440  0.71020  0.42895  1.0000
  C   C4007     1.0  0.85679  0.54329  0.99635  1.0000
  H   H4803     1.0  0.97012  0.57940  0.23551  1.0000
  H   H4804     1.0  0.90257  0.88874  0.44178  1.0000
  H   H4805     1.0  0.87541  0.49270  0.00695  1.0000
  H   H4806     1.0  0.83799  0.87368  0.46988  1.0000
  C   C4008     1.0  0.95677  0.49600  0.08465  1.0000
  C   C4009     1.0  0.79243  0.56546  0.02158  1.0000
  H   H4807     1.0  0.93481  0.66898  0.47284  1.0000
  C   C4010     1.0  0.90256  0.88829  0.45201  1.0000
  C   C4011     1.0  0.79520  0.55809  0.01185  1.0000
  C   C4012     1.0  0.80033  0.54130  0.99361  1.0000
  C   C4013     1.0  0.97884  0.62340  0.44394  1.0000
  C   C4014     1.0  0.83828  0.49574  0.00146  1.0000
  C   C4015     1.0  0.97151  0.74147  0.45945  1.0000
  C   C4016     1.0  0.97122  0.50587  0.17317  1.0000
  H   H4808     1.0  0.97419  0.53102  0.24740  1.0000
  H   H4809     1.0  0.98541  0.64635  0.38892  1.0000
  H   H4810     1.0  0.97370  0.69276  0.46761  1.0000
  H   H4811     1.0  0.92150  0.75460  0.47781  1.0000
  C   C4017     1.0  0.93076  0.75965  0.43645  1.0000
  H   H4812     1.0  0.95398  0.77390  0.45462  1.0000
  H   H4813     1.0  0.91498  0.63531  0.47764  1.0000
  C   C4018     1.0  0.96365  0.72495  0.47821  1.0000
  C   C4019     1.0  0.87784  0.49508  0.07406  1.0000
  H   H4814     1.0  0.89612  0.48699  0.16679  1.0000
  C   C4020     1.0  0.97615  0.65709  0.44241  1.0000
  C   C4021     1.0  0.89888  0.49650  0.34784  1.0000
  C   C4022     1.0  0.98570  0.71909  0.46548  1.0000
  H   H4815     1.0  0.94774  0.54571  0.17476  1.0000
  H   H4816     1.0  0.93462  0.81447  0.37144  1.0000
  H   H4817     1.0  0.96748  0.50007  0.23195  1.0000
  H   H4818     1.0  0.91094  0.67953  0.47708  1.0000
  H   H4819     1.0  0.96103  0.56441  0.38985  1.0000
  H   H4820     1.0  0.97823  0.55602  0.15209  1.0000
  H   H4821     1.0  0.96556  0.66027  0.44353  1.0000
  S   S1074     1.0  0.95510  0.68954  0.39860  1.0000
  S   S1075     1.0  0.93385  0.82432  0.41543  1.0000
  H   H4822     1.0  0.98257  0.85531  0.42929  1.0000
  H   H4823     1.0  0.86259  0.91905  0.45904  1.0000
  H   H4824     1.0  0.97664  0.67427  0.44884  1.0000
  H   H4825     1.0  0.82430  0.91438  0.47340  1.0000
  C   C4023     1.0  0.93485  0.78524  0.42348  1.0000
  H   H4826     1.0  0.92993  0.49612  0.32895  1.0000
  C   C4024     1.0  0.87073  0.56428  0.07074  1.0000
  H   H4827     1.0  0.90469  0.50439  0.16261  1.0000
  C   C4025     1.0  0.97386  0.53108  0.11694  1.0000
  H   H4828     1.0  0.98644  0.48920  0.09322  1.0000
  C   C4026     1.0  0.90328  0.88518  0.47860  1.0000
  H   H4829     1.0  0.96840  0.50814  0.08720  1.0000
  S   S1076     1.0  0.94662  0.72240  0.43986  1.0000
  C   C4027     1.0  0.82778  0.49683  0.03851  1.0000
  C   C4028     1.0  0.96721  0.50098  0.16455  1.0000
  S   S1077     1.0  0.83556  0.53072  0.03179  1.0000
  H   H4830     1.0  0.98448  0.80765  0.41987  1.0000
  C   C4029     1.0  0.88403  0.56559  0.08961  1.0000
  C   C4030     1.0  0.85865  0.97331  0.42422  1.0000
  N   N269      1.0  0.86721  0.49023  0.08505  1.0000
  C   C4031     1.0  0.79248  0.93840  0.40309  1.0000
  C   C4032     1.0  0.97088  0.75121  0.43586  1.0000
  C   C4033     1.0  0.91163  0.82343  0.39831  1.0000
  C   C4034     1.0  0.79987  0.53259  0.04061  1.0000
  C   C4035     1.0  0.98612  0.84954  0.42167  1.0000
  Fe  Fe538     1.0  0.93623  0.83889  0.44347  1.0000
  H   H4831     1.0  0.84603  0.49346  0.08935  1.0000
  H   H4832     1.0  0.95927  0.56830  0.23909  1.0000
  C   C4036     1.0  0.83062  0.90468  0.47587  1.0000
  H   H4833     1.0  0.87623  0.92027  0.43799  1.0000
  H   H4834     1.0  0.93157  0.80752  0.46781  1.0000
  H   H4835     1.0  0.89660  0.81242  0.43806  1.0000
  S   S1078     1.0  0.97062  0.83085  0.40346  1.0000
  H   H4836     1.0  0.97418  0.61644  0.44178  1.0000
  C   C4037     1.0  0.91772  0.65071  0.44517  1.0000
  Fe  Fe539     1.0  0.94053  0.73017  0.42036  1.0000
  C   C4038     1.0  0.92394  0.80132  0.38711  1.0000
  H   H4837     1.0  0.93172  0.73658  0.46915  1.0000
  H   H4838     1.0  0.87724  0.50583  0.07300  1.0000
  H   H4839     1.0  0.94503  0.50167  0.27467  1.0000
  Fe  Fe540     1.0  0.94889  0.70286  0.41332  1.0000
  H   H4840     1.0  0.95316  0.50099  0.25121  1.0000
  H   H4841     1.0  0.87731  0.49401  0.06421  1.0000
  C   C4039     1.0  0.81879  0.49232  0.03451  1.0000
  H   H4842     1.0  0.82881  0.55418  0.00387  1.0000
  N   N270      1.0  0.88029  0.90400  0.45465  1.0000
  H   H4843     1.0  0.79689  0.52349  0.02652  1.0000
  S   S1079     1.0  0.82618  0.95911  0.44587  1.0000
  H   H4844     1.0  0.90727  0.83227  0.40229  1.0000
  C   C4040     1.0  0.96298  0.64176  0.43465  1.0000
  H   H4845     1.0  0.96334  0.54334  0.17892  1.0000
  H   H4846     1.0  0.84769  0.97788  0.40048  1.0000
  H   H4847     1.0  0.90275  0.49163  0.25585  1.0000
  C   C4041     1.0  0.97700  0.79312  0.45951  1.0000
  C   C4042     1.0  0.90492  0.49304  0.11896  1.0000
  C   C4043     1.0  0.90713  0.97419  0.46900  1.0000
  H   H4848     1.0  0.96394  0.54211  0.37562  1.0000
  C   C4044     1.0  0.98632  0.54858  0.42382  1.0000
  C   C4045     1.0  0.91570  0.64111  0.45693  1.0000
  H   H4849     1.0  0.98351  0.54170  0.14481  1.0000
  H   H4850     1.0  0.85242  0.50819  0.08154  1.0000
  H   H4851     1.0  0.95644  0.55883  0.16935  1.0000
  C   C4046     1.0  0.96366  0.75379  0.46235  1.0000
  H   H4852     1.0  0.98549  0.52576  0.38816  1.0000
  H   H4853     1.0  0.98391  0.53996  0.16190  1.0000
  C   C4047     1.0  0.81070  0.49569  0.07022  1.0000
  C   C4048     1.0  0.96382  0.55521  0.26310  1.0000
  H   H4854     1.0  0.79117  0.92668  0.47960  1.0000
  C   C4049     1.0  0.91384  0.87855  0.47022  1.0000
  H   H4855     1.0  0.83116  0.53477  0.99908  1.0000
  N   N271      1.0  0.81185  0.54524  0.99517  1.0000
  C   C4050     1.0  0.97031  0.51951  0.17109  1.0000
  H   H4856     1.0  0.97410  0.62454  0.45438  1.0000
  H   H4857     1.0  0.87735  0.48926  0.10014  1.0000
  C   C4051     1.0  0.80843  0.55342  0.00524  1.0000
  H   H4858     1.0  0.89125  0.50206  0.35446  1.0000
  C   C4052     1.0  0.87086  0.91245  0.46364  1.0000
  C   C4053     1.0  0.85940  0.52944  0.00031  1.0000
  H   H4859     1.0  0.90225  0.51816  0.20387  1.0000
  C   C4054     1.0  0.89870  0.96990  0.46418  1.0000
  C   C4055     1.0  0.96819  0.56956  0.24148  1.0000
  H   H4860     1.0  0.96848  0.59034  0.35286  1.0000
  S   S1080     1.0  0.91382  0.48877  0.14156  1.0000
  N   N272      1.0  0.97731  0.63645  0.43437  1.0000
  H   H4861     1.0  0.96848  0.52823  0.39626  1.0000
  C   C4056     1.0  0.91455  0.80004  0.39918  1.0000
  H   H4862     1.0  0.96689  0.84617  0.42324  1.0000
  C   C4057     1.0  0.93176  0.78178  0.43743  1.0000
  H   H4863     1.0  0.86738  0.97051  0.41674  1.0000
  H   H4864     1.0  0.96112  0.65165  0.42770  1.0000
  C   C4058     1.0  0.92073  0.49305  0.33360  1.0000
  C   C4059     1.0  0.97800  0.48748  0.09085  1.0000
  C   C4060     1.0  0.96095  0.52343  0.15190  1.0000
  C   C4061     1.0  0.98071  0.73477  0.47927  1.0000
  H   H4865     1.0  0.89793  0.58101  0.10422  1.0000
  H   H4866     1.0  0.79538  0.53559  0.00323  1.0000
  C   C4062     1.0  0.88571  0.81960  0.41640  1.0000
  C   C4063     1.0  0.98271  0.53842  0.11719  1.0000
  H   H4867     1.0  0.83823  0.97139  0.39351  1.0000
  C   C4064     1.0  0.97924  0.53182  0.23706  1.0000
  C   C4065     1.0  0.95456  0.57874  0.26004  1.0000
  C   C4066     1.0  0.90816  0.81110  0.40522  1.0000
  C   C4067     1.0  0.96408  0.55395  0.39511  1.0000
  C   C4068     1.0  0.88313  0.56740  0.06644  1.0000
  C   C4069     1.0  0.93331  0.49225  0.08012  1.0000
  C   C4070     1.0  0.92047  0.66514  0.45749  1.0000
  H   H4868     1.0  0.87478  0.56885  0.11598  1.0000
  H   H4869     1.0  0.90156  0.96007  0.46203  1.0000
  H   H4870     1.0  0.95639  0.56239  0.14691  1.0000
  S   S1081     1.0  0.95059  0.82070  0.43806  1.0000
  C   C4071     1.0  0.89236  0.89352  0.47371  1.0000
  C   C4072     1.0  0.93359  0.76320  0.42250  1.0000
  C   C4073     1.0  0.98659  0.56569  0.37743  1.0000
  Fe  Fe541     1.0  0.93310  0.81413  0.43693  1.0000
  H   H4871     1.0  0.91757  0.64875  0.43580  1.0000
  C   C4074     1.0  0.93569  0.77599  0.41607  1.0000
  C   C4075     1.0  0.90338  0.81351  0.42803  1.0000
  C   C4076     1.0  0.91703  0.51383  0.27079  1.0000
  H   H4872     1.0  0.91269  0.79020  0.40364  1.0000
  C   C4077     1.0  0.96218  0.50973  0.15389  1.0000
  H   H4873     1.0  0.96800  0.49038  0.16616  1.0000
  Fe  Fe542     1.0  0.95038  0.83229  0.41715  1.0000
  H   H4874     1.0  0.89928  0.57058  0.07185  1.0000
  C   C4078     1.0  0.89650  0.48559  0.34486  1.0000
  H   H4875     1.0  0.79881  0.90310  0.44444  1.0000
  C   C4079     1.0  0.83836  0.88174  0.47387  1.0000
  H   H4876     1.0  0.81897  0.49757  0.07270  1.0000
  H   H4877     1.0  0.79301  0.91258  0.45705  1.0000
  H   H4878     1.0  0.91782  0.52311  0.26357  1.0000
  H   H4879     1.0  0.91108  0.56069  0.08737  1.0000
  C   C4080     1.0  0.89561  0.79661  0.42388  1.0000
  C   C4081     1.0  0.97842  0.51771  0.11620  1.0000
  H   H4880     1.0  0.94793  0.49123  0.23505  1.0000
  H   H4881     1.0  0.97696  0.77673  0.47662  1.0000
  C   C4082     1.0  0.83831  0.96859  0.43949  1.0000
  H   H4882     1.0  0.97644  0.56164  0.23786  1.0000
  H   H4883     1.0  0.95691  0.52960  0.14348  1.0000
  H   H4884     1.0  0.92160  0.87476  0.45050  1.0000
  C   C4083     1.0  0.98211  0.78055  0.46657  1.0000
  H   H4885     1.0  0.90469  0.73268  0.46786  1.0000
  H   H4886     1.0  0.97550  0.63154  0.38245  1.0000
  H   H4887     1.0  0.98420  0.69718  0.40895  1.0000
  C   C4084     1.0  0.94118  0.48778  0.19325  1.0000
  H   H4888     1.0  0.94922  0.50473  0.08216  1.0000
  C   C4085     1.0  0.92007  0.66271  0.44546  1.0000
  H   H4889     1.0  0.88778  0.56900  0.05590  1.0000
  C   C4086     1.0  0.95040  0.61362  0.46703  1.0000
  C   C4087     1.0  0.90531  0.73840  0.47482  1.0000
  H   H4890     1.0  0.80353  0.98262  0.44069  1.0000
  H   H4891     1.0  0.97340  0.75014  0.42560  1.0000
  C   C4088     1.0  0.87129  0.56255  0.09364  1.0000
  H   H4892     1.0  0.85361  0.49661  0.07189  1.0000
  H   H4893     1.0  0.88203  0.81798  0.40838  1.0000
  C   C4089     1.0  0.85405  0.54947  0.98369  1.0000
  C   C4090     1.0  0.95993  0.76456  0.45221  1.0000
  H   H4894     1.0  0.97632  0.54703  0.42765  1.0000
  H   H4895     1.0  0.94688  0.55019  0.15032  1.0000
  C   C4091     1.0  0.98071  0.52912  0.21492  1.0000
  H   H4896     1.0  0.94020  0.65167  0.47915  1.0000
  N   N273      1.0  0.89839  0.81010  0.41814  1.0000
  C   C4092     1.0  0.83752  0.97681  0.40125  1.0000
  H   H4897     1.0  0.95952  0.72117  0.47192  1.0000
  S   S1082     1.0  0.97526  0.49724  0.35076  1.0000
  H   H4898     1.0  0.79290  0.55012  0.98993  1.0000
  C   C4093     1.0  0.98239  0.66523  0.44558  1.0000
  C   C4094     1.0  0.98590  0.62885  0.38257  1.0000
  H   H4899     1.0  0.97763  0.57207  0.37468  1.0000
  H   H4900     1.0  0.89017  0.90781  0.43372  1.0000
  H   H4901     1.0  0.95208  0.48786  0.13575  1.0000
  N   N274      1.0  0.90413  0.55036  0.36352  1.0000
  C   C4095     1.0  0.89025  0.55003  0.36461  1.0000
  C   C4096     1.0  0.91102  0.55149  0.34926  1.0000
  C   C4097     1.0  0.91063  0.53747  0.37109  1.0000
  C   C4098     1.0  0.90438  0.56144  0.36910  1.0000
  C   C4099     1.0  0.89941  0.56114  0.38293  1.0000
  C   C4100     1.0  0.90935  0.57278  0.36111  1.0000
  C   C4101     1.0  0.89992  0.57126  0.38851  1.0000
  C   C4102     1.0  0.90964  0.58292  0.36678  1.0000
  C   C4103     1.0  0.90509  0.58209  0.38046  1.0000
  H   H4902     1.0  0.88499  0.55958  0.35913  1.0000
  H   H4903     1.0  0.88970  0.54187  0.36036  1.0000
  H   H4904     1.0  0.88461  0.54835  0.37514  1.0000
  H   H4905     1.0  0.90615  0.56046  0.34272  1.0000
  H   H4906     1.0  0.98037  0.73136  0.44276  1.0000
  C   C4104     1.0  0.96056  0.83230  0.46268  1.0000
  C   C4105     1.0  0.95717  0.55161  0.14790  1.0000
  H   H4907     1.0  0.97516  0.49904  0.18144  1.0000
  C   C4106     1.0  0.90244  0.51508  0.19498  1.0000
  H   H4908     1.0  0.88666  0.83015  0.41370  1.0000
  H   H4909     1.0  0.96138  0.82944  0.45357  1.0000
  H   H4910     1.0  0.97956  0.69821  0.39412  1.0000
  C   C4107     1.0  0.94986  0.84214  0.46703  1.0000
  H   H4911     1.0  0.87791  0.81868  0.42575  1.0000
  H   H4912     1.0  0.92749  0.76620  0.45465  1.0000
  S   S1083     1.0  0.92940  0.71416  0.42348  1.0000
  C   C4108     1.0  0.98164  0.83718  0.40817  1.0000
  H   H4913     1.0  0.95873  0.63514  0.43144  1.0000
  H   H4914     1.0  0.79036  0.90966  0.42506  1.0000
  H   H4915     1.0  0.94456  0.49230  0.18288  1.0000
  C   C4109     1.0  0.98352  0.64531  0.43789  1.0000
  C   C4110     1.0  0.90305  0.50174  0.19561  1.0000
  S   S1084     1.0  0.95559  0.69279  0.43226  1.0000
  H   H4916     1.0  0.92238  0.67460  0.45715  1.0000
  H   H4917     1.0  0.82403  0.97975  0.48012  1.0000
  S   S1085     1.0  0.93030  0.79320  0.44712  1.0000
  S   S1086     1.0  0.84084  0.55189  0.04596  1.0000
  S   S1087     1.0  0.93660  0.84888  0.45904  1.0000
  N   N275      1.0  0.96443  0.54315  0.15833  1.0000
  C   C4111     1.0  0.97876  0.57721  0.33952  1.0000
  S   S1088     1.0  0.83649  0.52272  0.06338  1.0000
  H   H4918     1.0  0.92902  0.74985  0.44150  1.0000
  C   C4112     1.0  0.98366  0.79807  0.44657  1.0000
  Fe  Fe543     1.0  0.82597  0.53945  0.04979  1.0000
  Fe  Fe544     1.0  0.92019  0.84207  0.42324  1.0000
  C   C4113     1.0  0.89178  0.89550  0.46014  1.0000
  C   C4114     1.0  0.78963  0.50385  0.06374  1.0000
  C   C4115     1.0  0.88656  0.97818  0.46214  1.0000
  H   H4919     1.0  0.81784  0.52718  0.00916  1.0000
  C   C4116     1.0  0.92774  0.80757  0.47832  1.0000
  C   C4117     1.0  0.91698  0.51286  0.28406  1.0000
  N   N276      1.0  0.97542  0.73022  0.47033  1.0000
  H   H4920     1.0  0.88054  0.97419  0.45839  1.0000
  C   C4118     1.0  0.95473  0.49174  0.25843  1.0000
  H   H4921     1.0  0.80009  0.51605  0.06802  1.0000
  H   H4922     1.0  0.97920  0.62792  0.41769  1.0000
  H   H4923     1.0  0.92950  0.49795  0.08816  1.0000
  C   C4119     1.0  0.91450  0.49079  0.27601  1.0000
  C   C4120     1.0  0.88050  0.48380  0.00261  1.0000
  H   H4924     1.0  0.91567  0.50031  0.30373  1.0000
  C   C4121     1.0  0.86771  0.49389  0.09727  1.0000
  C   C4122     1.0  0.97751  0.53221  0.39413  1.0000
  H   H4925     1.0  0.93528  0.72119  0.48103  1.0000
  C   C4123     1.0  0.91458  0.49006  0.28950  1.0000
  C   C4124     1.0  0.85426  0.49740  0.08181  1.0000
  H   H4926     1.0  0.98593  0.72031  0.40892  1.0000
  H   H4927     1.0  0.88777  0.48953  0.07591  1.0000
  H   H4928     1.0  0.92825  0.72199  0.46751  1.0000
  C   C4125     1.0  0.97767  0.58713  0.34606  1.0000
  H   H4929     1.0  0.83461  0.97042  0.41128  1.0000
  C   C4126     1.0  0.97386  0.48991  0.23306  1.0000
  H   H4930     1.0  0.82743  0.98330  0.45097  1.0000
  H   H4931     1.0  0.96897  0.55753  0.36868  1.0000
  C   C4127     1.0  0.79041  0.91074  0.44846  1.0000
  H   H4932     1.0  0.92231  0.87208  0.47399  1.0000
  C   C4128     1.0  0.97811  0.54529  0.15413  1.0000
  C   C4129     1.0  0.78944  0.49099  0.06276  1.0000
  H   H4933     1.0  0.95926  0.50591  0.14705  1.0000
  H   H4934     1.0  0.92448  0.48972  0.07881  1.0000
  H   H4935     1.0  0.98331  0.49983  0.28145  1.0000
  H   H4936     1.0  0.98239  0.50403  0.29684  1.0000
  H   H4937     1.0  0.98461  0.67434  0.41759  1.0000
  H   H4938     1.0  0.97912  0.48895  0.22269  1.0000
  H   H4939     1.0  0.98191  0.71411  0.45997  1.0000
  C   C4130     1.0  0.79704  0.50107  0.98379  1.0000
  H   H4940     1.0  0.98148  0.48955  0.23841  1.0000
  H   H4941     1.0  0.91653  0.96773  0.47054  1.0000
  C   C4131     1.0  0.93235  0.66056  0.48112  1.0000
  C   C4132     1.0  0.84737  0.48404  0.98360  1.0000
  C   C4133     1.0  0.81773  0.55287  0.98201  1.0000
  H   H4942     1.0  0.82677  0.55571  0.98223  1.0000
  C   C4134     1.0  0.90135  0.48388  0.26524  1.0000
  S   S1089     1.0  0.98660  0.60599  0.37570  1.0000
  Fe  Fe545     1.0  0.82686  0.51162  0.94455  1.0000
  S   S1090     1.0  0.84860  0.50695  0.94284  1.0000
  H   H4943     1.0  0.79164  0.87757  0.52458  1.0000
  Fe  Fe546     1.0  0.82506  0.54077  0.93667  1.0000
  S   S1091     1.0  0.84700  0.53913  0.93388  1.0000
  S   S1092     1.0  0.80909  0.55934  0.93469  1.0000
  Fe  Fe547     1.0  0.84945  0.52250  0.92385  1.0000
  S   S1093     1.0  0.86486  0.51454  0.90711  1.0000
  Fe  Fe548     1.0  0.84485  0.52363  0.95303  1.0000
  S   S1094     1.0  0.85693  0.51768  0.96868  1.0000
  S   S1095     1.0  0.82789  0.52578  0.92469  1.0000
  S   S1096     1.0  0.82283  0.52669  0.95673  1.0000
  Fe  Fe549     1.0  0.92903  0.50097  0.85229  1.0000
  S   S1097     1.0  0.93259  0.50809  0.86846  1.0000
  H   H4944     1.0  0.93316  0.66273  0.49040  1.0000
  Fe  Fe550     1.0  0.94048  0.52212  0.83025  1.0000
  S   S1098     1.0  0.94447  0.53149  0.84454  1.0000
  S   S1099     1.0  0.94864  0.52958  0.80850  1.0000
  Fe  Fe551     1.0  0.95210  0.51056  0.85467  1.0000
  S   S1100     1.0  0.97189  0.50256  0.86016  1.0000
  Fe  Fe552     1.0  0.92456  0.52828  0.85687  1.0000
  S   S1101     1.0  0.90911  0.54326  0.86722  1.0000
  S   S1102     1.0  0.94935  0.50133  0.83958  1.0000
  S   S1103     1.0  0.91978  0.52096  0.84150  1.0000
  Fe  Fe553     1.0  0.83641  0.92120  0.52589  1.0000
  S   S1104     1.0  0.85254  0.92663  0.53133  1.0000
  S   S1105     1.0  0.81539  0.93268  0.53104  1.0000
  Fe  Fe554     1.0  0.85578  0.90389  0.50763  1.0000
  S   S1106     1.0  0.87340  0.90880  0.51059  1.0000
  H   H4945     1.0  0.80855  0.89148  0.52987  1.0000
  Fe  Fe555     1.0  0.86303  0.90518  0.53217  1.0000
  S   S1107     1.0  0.87567  0.89278  0.54681  1.0000
  Fe  Fe556     1.0  0.86158  0.92969  0.50947  1.0000
  H   H4946     1.0  0.92200  0.76716  0.49334  1.0000
  S   S1108     1.0  0.84578  0.89935  0.52927  1.0000
  S   S1109     1.0  0.84504  0.92527  0.50386  1.0000
  Fe  Fe557     1.0  0.96553  0.82109  0.51329  1.0000
  S   S1110     1.0  0.95992  0.83879  0.52251  1.0000
  H   H4947     1.0  0.89616  0.52149  0.72826  1.0000
  Fe  Fe558     1.0  0.94677  0.80623  0.53495  1.0000
  S   S1111     1.0  0.93941  0.82261  0.54620  1.0000
  S   S1112     1.0  0.93831  0.78793  0.54243  1.0000
  Fe  Fe559     1.0  0.93907  0.83653  0.52618  1.0000
  S   S1113     1.0  0.92302  0.85293  0.51825  1.0000
  Fe  Fe560     1.0  0.96090  0.82344  0.54157  1.0000
  S   S1114     1.0  0.94470  0.81992  0.51537  1.0000
  S   S1115     1.0  0.96824  0.80583  0.53204  1.0000
  Fe  Fe561     1.0  0.96087  0.50466  0.61054  1.0000
  S   S1116     1.0  0.96536  0.50647  0.62911  1.0000
  Fe  Fe562     1.0  0.94395  0.53279  0.60642  1.0000
  S   S1117     1.0  0.94670  0.53644  0.62501  1.0000
  S   S1118     1.0  0.93189  0.55098  0.59512  1.0000
  Fe  Fe563     1.0  0.96777  0.52685  0.61811  1.0000
  H   H4948     1.0  0.81073  0.97951  0.52446  1.0000
  Fe  Fe564     1.0  0.94393  0.51583  0.63465  1.0000
  S   S1119     1.0  0.93392  0.50902  0.65612  1.0000
  S   S1120     1.0  0.96545  0.52449  0.59876  1.0000
  S   S1121     1.0  0.93900  0.51272  0.61681  1.0000
  Fe  Fe565     1.0  0.94673  0.59931  0.52494  1.0000
  S   S1122     1.0  0.94422  0.61464  0.53654  1.0000
  S   S1123     1.0  0.94723  0.57742  0.53365  1.0000
  H   H4949     1.0  0.81619  0.93117  0.50197  1.0000
  C   C4135     1.0  0.79414  0.55745  0.93250  1.0000
  Fe  Fe566     1.0  0.95986  0.62212  0.51953  1.0000
  H   H4950     1.0  0.89297  0.58164  0.60315  1.0000
  Fe  Fe567     1.0  0.93036  0.62758  0.52356  1.0000
  S   S1124     1.0  0.91108  0.64087  0.53118  1.0000
  S   S1125     1.0  0.96371  0.60576  0.50876  1.0000
  S   S1126     1.0  0.93126  0.61159  0.51336  1.0000
  Fe  Fe568     1.0  0.95840  0.49664  0.74398  1.0000
  S   S1127     1.0  0.95301  0.51879  0.73734  1.0000
  H   H4951     1.0  0.92810  0.68838  0.49177  1.0000
  Fe  Fe569     1.0  0.93335  0.49295  0.73949  1.0000
  S   S1128     1.0  0.92582  0.51478  0.73274  1.0000
  Fe  Fe570     1.0  0.94665  0.51449  0.72094  1.0000
  S   S1129     1.0  0.95154  0.52591  0.69956  1.0000
  Fe  Fe571     1.0  0.93290  0.51664  0.74977  1.0000
  S   S1130     1.0  0.92002  0.52779  0.76538  1.0000
  S   S1131     1.0  0.95385  0.49235  0.72661  1.0000
  S   S1132     1.0  0.93877  0.49475  0.75746  1.0000
  Fe  Fe572     1.0  0.94778  0.72732  0.51553  1.0000
  H   H4952     1.0  0.79234  0.90350  0.49154  1.0000
  S   S1133     1.0  0.94922  0.74835  0.50452  1.0000
  Fe  Fe573     1.0  0.93249  0.70492  0.52776  1.0000
  S   S1134     1.0  0.95058  0.68947  0.53173  1.0000
  S   S1135     1.0  0.91289  0.69978  0.53050  1.0000
  C   C4136     1.0  0.89252  0.61422  0.55897  1.0000
  C   C4137     1.0  0.90003  0.50468  0.70375  1.0000
  C   C4138     1.0  0.89000  0.52772  0.70412  1.0000
  S   S1136     1.0  0.93662  0.71994  0.53630  1.0000
  H   H4953     1.0  0.83998  0.91089  0.48761  1.0000
  C   C4139     1.0  0.91206  0.65717  0.53067  1.0000
  C   C4140     1.0  0.90037  0.66683  0.53279  1.0000
  C   C4141     1.0  0.90079  0.67983  0.53259  1.0000
  C   C4142     1.0  0.91291  0.68333  0.53036  1.0000
  C   C4143     1.0  0.92463  0.67369  0.52812  1.0000
  C   C4144     1.0  0.92422  0.66065  0.52826  1.0000
  H   H4954     1.0  0.89092  0.66425  0.53468  1.0000
  H   H4955     1.0  0.89168  0.68717  0.53435  1.0000
  H   H4956     1.0  0.93403  0.67619  0.52647  1.0000
  H   H4957     1.0  0.93332  0.65325  0.52683  1.0000
  C   C4145     1.0  0.91193  0.60306  0.54570  1.0000
  C   C4146     1.0  0.93839  0.55779  0.57826  1.0000
  C   C4147     1.0  0.93876  0.57134  0.57422  1.0000
  C   C4148     1.0  0.94194  0.57742  0.56057  1.0000
  C   C4149     1.0  0.94427  0.57009  0.55090  1.0000
  C   C4150     1.0  0.94401  0.55653  0.55496  1.0000
  C   C4151     1.0  0.94126  0.55036  0.56857  1.0000
  H   H4958     1.0  0.93631  0.57718  0.58167  1.0000
  H   H4959     1.0  0.94234  0.58780  0.55753  1.0000
  H   H4960     1.0  0.94579  0.55081  0.54753  1.0000
  H   H4961     1.0  0.94070  0.54000  0.57157  1.0000
  C   C4152     1.0  0.93979  0.51345  0.66770  1.0000
  C   C4153     1.0  0.93929  0.50537  0.68053  1.0000
  C   C4154     1.0  0.94357  0.50878  0.69012  1.0000
  C   C4155     1.0  0.94772  0.52067  0.68716  1.0000
  C   C4156     1.0  0.94849  0.52867  0.67421  1.0000
  C   C4157     1.0  0.94468  0.52500  0.66445  1.0000
  H   H4962     1.0  0.93542  0.49654  0.68306  1.0000
  H   H4963     1.0  0.94334  0.50242  0.69992  1.0000
  H   H4964     1.0  0.95179  0.53787  0.67179  1.0000
  H   H4965     1.0  0.94511  0.53134  0.65457  1.0000
  S   S1137     1.0  0.94581  0.63614  0.50748  1.0000
  H   H4966     1.0  0.90931  0.61498  0.57271  1.0000
  C   C4158     1.0  0.94187  0.77700  0.53173  1.0000
  C   C4159     1.0  0.94946  0.77960  0.51870  1.0000
  C   C4160     1.0  0.95181  0.77072  0.51037  1.0000
  C   C4161     1.0  0.94680  0.75912  0.51514  1.0000
  C   C4162     1.0  0.93947  0.75645  0.52823  1.0000
  C   C4163     1.0  0.93693  0.76540  0.53645  1.0000
  H   H4967     1.0  0.95332  0.78854  0.51498  1.0000
  H   H4968     1.0  0.96376  0.73501  0.57345  1.0000
  H   H4969     1.0  0.93543  0.74766  0.53195  1.0000
  H   H4970     1.0  0.93098  0.76337  0.54647  1.0000
  C   C4164     1.0  0.87178  0.95839  0.50652  1.0000
  C   C4165     1.0  0.87100  0.95457  0.52027  1.0000
  H   H4971     1.0  0.86872  0.94513  0.52576  1.0000
  C   C4166     1.0  0.88838  0.88059  0.53986  1.0000
  C   C4167     1.0  0.89930  0.87414  0.54570  1.0000
  C   C4168     1.0  0.90990  0.86517  0.53951  1.0000
  C   C4169     1.0  0.90962  0.86283  0.52737  1.0000
  C   C4170     1.0  0.89859  0.86911  0.52173  1.0000
  C   C4171     1.0  0.88795  0.87775  0.52806  1.0000
  H   H4972     1.0  0.89964  0.87618  0.55492  1.0000
  H   H4973     1.0  0.91838  0.86035  0.54392  1.0000
  H   H4974     1.0  0.89823  0.86731  0.51242  1.0000
  H   H4975     1.0  0.87936  0.88216  0.52378  1.0000
  C   C4172     1.0  0.80255  0.92435  0.53444  1.0000
  H   H4976     1.0  0.97840  0.56984  0.53355  1.0000
  H   H4977     1.0  0.88756  0.61729  0.56857  1.0000
  C   C4173     1.0  0.91497  0.75322  0.51088  1.0000
  H   H4978     1.0  0.87890  0.52269  0.84166  1.0000
  C   C4174     1.0  0.80255  0.91228  0.54382  1.0000
  H   H4979     1.0  0.97874  0.53585  0.65673  1.0000
  N   N277      1.0  0.89962  0.51593  0.70941  1.0000
  H   H4980     1.0  0.81076  0.90778  0.54871  1.0000
  C   C4175     1.0  0.94096  0.52782  0.79687  1.0000
  C   C4176     1.0  0.92843  0.52488  0.80079  1.0000
  C   C4177     1.0  0.92206  0.52469  0.79109  1.0000
  C   C4178     1.0  0.92840  0.52698  0.77754  1.0000
  C   C4179     1.0  0.94121  0.52921  0.77375  1.0000
  C   C4180     1.0  0.94739  0.52983  0.78338  1.0000
  H   H4981     1.0  0.92352  0.52310  0.81122  1.0000
  H   H4982     1.0  0.91221  0.52278  0.79404  1.0000
  H   H4983     1.0  0.94613  0.53101  0.76330  1.0000
  H   H4984     1.0  0.95710  0.53208  0.78032  1.0000
  C   C4181     1.0  0.97925  0.56603  0.54388  1.0000
  H   H4985     1.0  0.98341  0.51943  0.77309  1.0000
  H   H4986     1.0  0.85143  0.54658  0.96544  1.0000
  C   C4182     1.0  0.87661  0.52318  0.89596  1.0000
  C   C4183     1.0  0.87655  0.53620  0.89601  1.0000
  C   C4184     1.0  0.88641  0.54252  0.88699  1.0000
  C   C4185     1.0  0.89630  0.53579  0.87799  1.0000
  C   C4186     1.0  0.89620  0.52283  0.87792  1.0000
  C   C4187     1.0  0.88643  0.51654  0.88690  1.0000
  H   H4987     1.0  0.86896  0.54140  0.90295  1.0000
  H   H4988     1.0  0.88648  0.55254  0.88710  1.0000
  H   H4989     1.0  0.90370  0.51757  0.87099  1.0000
  H   H4990     1.0  0.88658  0.50644  0.88690  1.0000
  H   H4991     1.0  0.89754  0.51642  0.91190  1.0000
  H   H4992     1.0  0.83494  0.97491  0.52057  1.0000
  C   C4188     1.0  0.98589  0.53615  0.85248  1.0000
  C   C4189     1.0  0.90407  0.59263  0.56942  1.0000
  H   H4993     1.0  0.80098  0.53691  0.93108  1.0000
  H   H4994     1.0  0.98529  0.51253  0.64495  1.0000
  C   C4190     1.0  0.78951  0.51088  0.97550  1.0000
  C   C4191     1.0  0.94780  0.68719  0.49359  1.0000
  C   C4192     1.0  0.98482  0.83572  0.56583  1.0000
  S   S1138     1.0  0.81590  0.49531  0.95066  1.0000
  C   C4193     1.0  0.92461  0.79577  0.50135  1.0000
  H   H4995     1.0  0.89985  0.84147  0.51704  1.0000
  C   C4194     1.0  0.85641  0.52791  0.97913  1.0000
  N   N278      1.0  0.91908  0.65838  0.48225  1.0000
  H   H4996     1.0  0.82231  0.88100  0.49813  1.0000
  H   H4997     1.0  0.95460  0.50115  0.80774  1.0000
  H   H4998     1.0  0.89801  0.52676  0.95072  1.0000
  H   H4999     1.0  0.98073  0.84600  0.49740  1.0000
  H   H5000     1.0  0.98439  0.54551  0.70003  1.0000
  S   S1139     1.0  0.97916  0.82018  0.49329  1.0000
  C   C4195     1.0  0.79173  0.93029  0.52837  1.0000
  H   H5001     1.0  0.83680  0.95799  0.52027  1.0000
  H   H5002     1.0  0.91589  0.52130  0.89367  1.0000
  C   C4196     1.0  0.98477  0.67624  0.52953  1.0000
  H   H5003     1.0  0.82569  0.95141  0.50803  1.0000
  H   H5004     1.0  0.92648  0.83916  0.49660  1.0000
  H   H5005     1.0  0.81568  0.50726  0.92284  1.0000
  H   H5006     1.0  0.89288  0.53094  0.69307  1.0000
  C   C4197     1.0  0.97724  0.52758  0.85502  1.0000
  H   H5007     1.0  0.97646  0.48880  0.68429  1.0000
  C   C4198     1.0  0.89345  0.52006  0.94806  1.0000
  C   C4199     1.0  0.95469  0.49171  0.78612  1.0000
  C   C4200     1.0  0.95019  0.49252  0.80913  1.0000
  H   H5008     1.0  0.90099  0.51069  0.94710  1.0000
  H   H5009     1.0  0.92407  0.63812  0.49310  1.0000
  H   H5010     1.0  0.87023  0.53732  0.94552  1.0000
  S   S1140     1.0  0.86951  0.94791  0.49767  1.0000
  H   H5011     1.0  0.81066  0.56225  0.97876  1.0000
  C   C4201     1.0  0.91656  0.64750  0.49412  1.0000
  C   C4202     1.0  0.96574  0.76736  0.56949  1.0000
  H   H5012     1.0  0.87534  0.54408  0.92791  1.0000
  H   H5013     1.0  0.94532  0.68476  0.50438  1.0000
  C   C4203     1.0  0.85638  0.48688  0.87179  1.0000
  S   S1141     1.0  0.98253  0.53523  0.62229  1.0000
  H   H5014     1.0  0.90958  0.49516  0.67376  1.0000
  C   C4204     1.0  0.98132  0.70757  0.56604  1.0000
  C   C4205     1.0  0.98013  0.55668  0.57080  1.0000
  C   C4206     1.0  0.91456  0.73818  0.49306  1.0000
  H   H5015     1.0  0.81298  0.87477  0.52774  1.0000
  C   C4207     1.0  0.87364  0.96283  0.52688  1.0000
  H   H5016     1.0  0.78933  0.53668  0.95873  1.0000
  H   H5017     1.0  0.84635  0.50504  0.87848  1.0000
  C   C4208     1.0  0.90535  0.49470  0.68431  1.0000
  H   H5018     1.0  0.89336  0.62359  0.55124  1.0000
  H   H5019     1.0  0.97796  0.67688  0.53945  1.0000
  C   C4209     1.0  0.89522  0.49322  0.71162  1.0000
  H   H5020     1.0  0.87344  0.95965  0.53745  1.0000
  C   C4210     1.0  0.98235  0.77626  0.57388  1.0000
  H   H5021     1.0  0.91551  0.75877  0.51768  1.0000
  H   H5022     1.0  0.93552  0.48559  0.71557  1.0000
  H   H5023     1.0  0.90823  0.73745  0.52657  1.0000
  N   N279      1.0  0.82423  0.97197  0.50763  1.0000
  C   C4211     1.0  0.90493  0.50517  0.68987  1.0000
  N   N280      1.0  0.90017  0.92211  0.53212  1.0000
  C   C4212     1.0  0.88931  0.92281  0.54420  1.0000
  C   C4213     1.0  0.89563  0.91750  0.52267  1.0000
  C   C4214     1.0  0.91175  0.91191  0.53593  1.0000
  C   C4215     1.0  0.90377  0.93522  0.52649  1.0000
  C   C4216     1.0  0.90768  0.94132  0.53449  1.0000
  C   C4217     1.0  0.90330  0.94240  0.51317  1.0000
  C   C4218     1.0  0.91043  0.95400  0.52967  1.0000
  C   C4219     1.0  0.96067  0.68847  0.48682  1.0000
  C   C4220     1.0  0.95739  0.78028  0.56884  1.0000
  H   H5024     1.0  0.89223  0.92492  0.55241  1.0000
  H   H5025     1.0  0.88054  0.93068  0.54190  1.0000
  H   H5026     1.0  0.88599  0.91325  0.54840  1.0000
  H   H5027     1.0  0.88666  0.92456  0.51969  1.0000
  H   H5028     1.0  0.89294  0.90767  0.52719  1.0000
  H   H5029     1.0  0.90348  0.91615  0.51356  1.0000
  H   H5030     1.0  0.91511  0.91403  0.54387  1.0000
  H   H5031     1.0  0.90942  0.90184  0.53987  1.0000
  H   H5032     1.0  0.92024  0.91128  0.52719  1.0000
  H   H5033     1.0  0.90834  0.93645  0.54467  1.0000
  H   H5034     1.0  0.90022  0.93876  0.50635  1.0000
  C   C4221     1.0  0.97646  0.58182  0.58075  1.0000
  S   S1142     1.0  0.97613  0.48781  0.75292  1.0000
  H   H5035     1.0  0.92392  0.54677  0.91340  1.0000
  H   H5036     1.0  0.79150  0.89723  0.55489  1.0000
  C   C4222     1.0  0.89706  0.58124  0.59276  1.0000
  C   C4223     1.0  0.91864  0.75793  0.49715  1.0000
  C   C4224     1.0  0.96141  0.79073  0.57085  1.0000
  H   H5037     1.0  0.96389  0.74837  0.54979  1.0000
  H   H5038     1.0  0.89492  0.60219  0.58632  1.0000
  H   H5039     1.0  0.92025  0.49848  0.83040  1.0000
  H   H5040     1.0  0.85197  0.48995  0.91187  1.0000
  H   H5041     1.0  0.89804  0.82486  0.51967  1.0000
  H   H5042     1.0  0.91386  0.82819  0.51883  1.0000
  H   H5043     1.0  0.91282  0.95873  0.53613  1.0000
  H   H5044     1.0  0.97986  0.55284  0.58133  1.0000
  C   C4225     1.0  0.96732  0.74322  0.57484  1.0000
  C   C4226     1.0  0.92105  0.53427  0.90242  1.0000
  H   H5045     1.0  0.95493  0.80056  0.57016  1.0000
  H   H5046     1.0  0.88582  0.60944  0.55657  1.0000
  C   C4227     1.0  0.90960  0.96087  0.51669  1.0000
  N   N281      1.0  0.90564  0.60512  0.55942  1.0000
  C   C4228     1.0  0.89830  0.59292  0.58304  1.0000
  C   C4229     1.0  0.83573  0.96827  0.51394  1.0000
  H   H5047     1.0  0.95748  0.77286  0.50024  1.0000
  C   C4230     1.0  0.91845  0.75056  0.48835  1.0000
  C   C4231     1.0  0.97856  0.76581  0.57161  1.0000
  C   C4232     1.0  0.85365  0.54179  0.97514  1.0000
  H   H5048     1.0  0.81673  0.96294  0.49645  1.0000
  C   C4233     1.0  0.90492  0.83165  0.51448  1.0000
  C   C4234     1.0  0.98597  0.85225  0.49988  1.0000
  C   C4235     1.0  0.93803  0.68932  0.48645  1.0000
  H   H5049     1.0  0.92215  0.59679  0.54510  1.0000
  N   N282      1.0  0.95779  0.48429  0.79926  1.0000
  Fe  Fe574     1.0  0.94801  0.61918  0.49817  1.0000
  C   C4236     1.0  0.91813  0.48895  0.83145  1.0000
  C   C4237     1.0  0.81889  0.49662  0.92406  1.0000
  H   H5050     1.0  0.88545  0.51166  0.72801  1.0000
  C   C4238     1.0  0.86722  0.50397  0.87140  1.0000
  H   H5051     1.0  0.98593  0.75666  0.57126  1.0000
  H   H5052     1.0  0.97297  0.54025  0.56976  1.0000
  N   N283      1.0  0.91461  0.73048  0.48352  1.0000
  H   H5053     1.0  0.88920  0.53638  0.70832  1.0000
  N   N284      1.0  0.96181  0.75634  0.56684  1.0000
  C   C4239     1.0  0.87936  0.49641  0.86615  1.0000
  H   H5054     1.0  0.97785  0.75439  0.54970  1.0000
  C   C4240     1.0  0.91398  0.61177  0.56314  1.0000
  C   C4241     1.0  0.90830  0.57993  0.56611  1.0000
  C   C4242     1.0  0.90691  0.56833  0.57590  1.0000
  C   C4243     1.0  0.90140  0.56897  0.58919  1.0000
  H   H5055     1.0  0.92372  0.60503  0.56419  1.0000
  H   H5056     1.0  0.90606  0.59835  0.54208  1.0000
  H   H5057     1.0  0.91312  0.57856  0.55613  1.0000
  H   H5058     1.0  0.91068  0.55870  0.57328  1.0000
  H   H5059     1.0  0.90091  0.55988  0.59678  1.0000
  N   N285      1.0  0.90824  0.55996  0.81969  1.0000
  C   C4244     1.0  0.91962  0.55603  0.82621  1.0000
  C   C4245     1.0  0.91367  0.56152  0.80507  1.0000
  C   C4246     1.0  0.90034  0.57314  0.82211  1.0000
  C   C4247     1.0  0.89995  0.54994  0.82540  1.0000
  C   C4248     1.0  0.89361  0.54771  0.83916  1.0000
  C   C4249     1.0  0.89807  0.54201  0.81773  1.0000
  C   C4250     1.0  0.88608  0.53803  0.84490  1.0000
  C   C4251     1.0  0.89057  0.53230  0.82360  1.0000
  C   C4252     1.0  0.88461  0.53030  0.83715  1.0000
  H   H5060     1.0  0.92597  0.54632  0.82433  1.0000
  H   H5061     1.0  0.92602  0.56341  0.82234  1.0000
  H   H5062     1.0  0.91649  0.55503  0.83722  1.0000
  H   H5063     1.0  0.92036  0.55214  0.80258  1.0000
  H   H5064     1.0  0.91976  0.56918  0.80107  1.0000
  H   H5065     1.0  0.90566  0.56460  0.79945  1.0000
  H   H5066     1.0  0.89729  0.57328  0.83291  1.0000
  H   H5067     1.0  0.90602  0.58108  0.81727  1.0000
  H   H5068     1.0  0.89120  0.57603  0.81815  1.0000
  H   H5069     1.0  0.89470  0.55321  0.84570  1.0000
  H   H5070     1.0  0.90239  0.54299  0.80719  1.0000
  H   H5071     1.0  0.88156  0.53641  0.85549  1.0000
  H   H5072     1.0  0.88947  0.52622  0.81759  1.0000
  H   H5073     1.0  0.82318  0.49736  0.90298  1.0000
  H   H5074     1.0  0.97560  0.52917  0.81422  1.0000
  H   H5075     1.0  0.91611  0.52281  0.69457  1.0000
  C   C4253     1.0  0.97615  0.54938  0.56428  1.0000
  H   H5076     1.0  0.97995  0.66222  0.48520  1.0000
  S   S1143     1.0  0.96712  0.71333  0.51785  1.0000
  H   H5077     1.0  0.90034  0.71904  0.49620  1.0000
  H   H5078     1.0  0.98209  0.54679  0.85091  1.0000
  H   H5079     1.0  0.90862  0.51358  0.68315  1.0000
  S   S1144     1.0  0.94172  0.71386  0.50686  1.0000
  H   H5080     1.0  0.86616  0.49035  0.89862  1.0000
  H   H5081     1.0  0.96460  0.74321  0.58567  1.0000
  H   H5082     1.0  0.90656  0.64556  0.49589  1.0000
  H   H5083     1.0  0.90351  0.88378  0.48899  1.0000
  H   H5084     1.0  0.91710  0.64997  0.50335  1.0000
  H   H5085     1.0  0.80312  0.97520  0.51387  1.0000
  S   S1145     1.0  0.97415  0.63154  0.52310  1.0000
  H   H5086     1.0  0.91302  0.52731  0.71000  1.0000
  H   H5087     1.0  0.82063  0.54704  0.97412  1.0000
  H   H5088     1.0  0.82351  0.88589  0.51823  1.0000
  C   C4254     1.0  0.91282  0.51922  0.70550  1.0000
  H   H5089     1.0  0.91107  0.71189  0.48274  1.0000
  H   H5090     1.0  0.91588  0.62092  0.55550  1.0000
  H   H5091     1.0  0.80332  0.94048  0.48448  1.0000
  N   N286      1.0  0.88851  0.52620  0.93561  1.0000
  H   H5092     1.0  0.80523  0.49385  0.97951  1.0000
  C   C4255     1.0  0.87898  0.53893  0.93723  1.0000
  C   C4256     1.0  0.88112  0.51717  0.93405  1.0000
  C   C4257     1.0  0.98202  0.53550  0.70305  1.0000
  C   C4258     1.0  0.91810  0.54005  0.91334  1.0000
  N   N287      1.0  0.80542  0.88948  0.51159  1.0000
  H   H5093     1.0  0.96849  0.58828  0.57560  1.0000
  H   H5094     1.0  0.88333  0.54591  0.93970  1.0000
  C   C4259     1.0  0.79178  0.88755  0.51783  1.0000
  C   C4260     1.0  0.79065  0.94097  0.55988  1.0000
  C   C4261     1.0  0.82295  0.49100  0.91284  1.0000
  H   H5095     1.0  0.91188  0.85225  0.49723  1.0000
  H   H5096     1.0  0.98175  0.86269  0.49524  1.0000
  H   H5097     1.0  0.97897  0.58781  0.58627  1.0000
  H   H5098     1.0  0.93488  0.78652  0.48476  1.0000
  C   C4262     1.0  0.81182  0.91178  0.50678  1.0000
  H   H5099     1.0  0.88755  0.50722  0.93317  1.0000
  H   H5100     1.0  0.87284  0.51541  0.94280  1.0000
  H   H5101     1.0  0.98557  0.72636  0.48637  1.0000
  H   H5102     1.0  0.79845  0.93212  0.56126  1.0000
  H   H5103     1.0  0.92037  0.51034  0.70881  1.0000
  H   H5104     1.0  0.86668  0.51346  0.87348  1.0000
  H   H5105     1.0  0.87516  0.97370  0.48896  1.0000
  S   S1146     1.0  0.85942  0.88786  0.49647  1.0000
  H   H5106     1.0  0.90892  0.67268  0.49453  1.0000
  C   C4263     1.0  0.98329  0.57341  0.55027  1.0000
  H   H5107     1.0  0.91277  0.61265  0.53846  1.0000
  H   H5108     1.0  0.81177  0.96241  0.52520  1.0000
  H   H5109     1.0  0.90571  0.54206  0.93232  1.0000
  C   C4264     1.0  0.91064  0.71760  0.49013  1.0000
  H   H5110     1.0  0.96681  0.53166  0.85553  1.0000
  C   C4265     1.0  0.91797  0.80765  0.50542  1.0000
  H   H5111     1.0  0.94444  0.74886  0.56922  1.0000
  S   S1147     1.0  0.96452  0.69999  0.55617  1.0000
  Fe  Fe575     1.0  0.95578  0.70520  0.53816  1.0000
  C   C4266     1.0  0.81109  0.92498  0.49973  1.0000
  C   C4267     1.0  0.79273  0.54532  0.93115  1.0000
  C   C4268     1.0  0.81294  0.88527  0.52232  1.0000
  H   H5112     1.0  0.83463  0.96013  0.49298  1.0000
  H   H5113     1.0  0.79163  0.93970  0.52120  1.0000
  C   C4269     1.0  0.89575  0.51315  0.72424  1.0000
  H   H5114     1.0  0.88053  0.48710  0.91375  1.0000
  C   C4270     1.0  0.81197  0.97231  0.51826  1.0000
  H   H5115     1.0  0.94278  0.75935  0.58038  1.0000
  C   C4271     1.0  0.87698  0.97918  0.50615  1.0000
  C   C4272     1.0  0.91590  0.81992  0.49594  1.0000
  H   H5116     1.0  0.84507  0.96867  0.50623  1.0000
  C   C4273     1.0  0.90304  0.52292  0.91292  1.0000
  H   H5117     1.0  0.81775  0.90838  0.51419  1.0000
  C   C4274     1.0  0.91093  0.74121  0.51586  1.0000
  H   H5118     1.0  0.90741  0.72459  0.51176  1.0000
  C   C4275     1.0  0.96686  0.75622  0.55249  1.0000
  Fe  Fe576     1.0  0.96001  0.69918  0.51130  1.0000
  H   H5119     1.0  0.97954  0.64540  0.49282  1.0000
  H   H5120     1.0  0.80706  0.88311  0.49356  1.0000
  H   H5121     1.0  0.79246  0.51093  0.96497  1.0000
  C   C4276     1.0  0.94723  0.75777  0.57007  1.0000
  C   C4277     1.0  0.98410  0.56881  0.56391  1.0000
  C   C4278     1.0  0.90763  0.53731  0.92410  1.0000
  C   C4279     1.0  0.91059  0.73382  0.50714  1.0000
  H   H5122     1.0  0.94502  0.49112  0.59941  1.0000
  H   H5123     1.0  0.92601  0.78654  0.50876  1.0000
  C   C4280     1.0  0.81179  0.88050  0.50221  1.0000
  H   H5124     1.0  0.97271  0.72261  0.53631  1.0000
  H   H5125     1.0  0.90254  0.50414  0.72877  1.0000
  H   H5126     1.0  0.96957  0.50702  0.66587  1.0000
  H   H5127     1.0  0.98439  0.66703  0.52694  1.0000
  C   C4281     1.0  0.97965  0.50125  0.66456  1.0000
  H   H5128     1.0  0.92904  0.53654  0.89398  1.0000
  C   C4282     1.0  0.98497  0.53082  0.67535  1.0000
  S   S1148     1.0  0.97220  0.68817  0.49563  1.0000
  H   H5129     1.0  0.94621  0.48912  0.64167  1.0000
  C   C4283     1.0  0.79760  0.90924  0.49417  1.0000
  C   C4284     1.0  0.84792  0.89030  0.48685  1.0000
  H   H5130     1.0  0.91118  0.97092  0.51320  1.0000
  H   H5131     1.0  0.95776  0.84282  0.49529  1.0000
  H   H5132     1.0  0.97822  0.74025  0.57184  1.0000
  H   H5133     1.0  0.87662  0.52145  0.92517  1.0000
  C   C4285     1.0  0.89969  0.52873  0.92419  1.0000
  H   H5134     1.0  0.97822  0.83376  0.57551  1.0000
  C   C4286     1.0  0.98193  0.48385  0.78753  1.0000
  N   N288      1.0  0.90856  0.83266  0.49982  1.0000
  H   H5135     1.0  0.97683  0.79690  0.57496  1.0000
  C   C4287     1.0  0.90618  0.95503  0.50843  1.0000
  H   H5136     1.0  0.88530  0.51763  0.95679  1.0000
  S   S1149     1.0  0.96994  0.82410  0.55788  1.0000
  H   H5137     1.0  0.95811  0.50122  0.78258  1.0000
  H   H5138     1.0  0.87999  0.52556  0.70661  1.0000
  C   C4288     1.0  0.87670  0.97512  0.51982  1.0000
  H   H5139     1.0  0.98553  0.58274  0.54434  1.0000
  C   C4289     1.0  0.80368  0.93030  0.48998  1.0000
  H   H5140     1.0  0.93976  0.49659  0.80817  1.0000
  H   H5141     1.0  0.98053  0.68476  0.52219  1.0000
  C   C4290     1.0  0.80501  0.90348  0.50425  1.0000
  H   H5142     1.0  0.97927  0.69973  0.57472  1.0000
  H   H5143     1.0  0.96301  0.76592  0.54611  1.0000
  H   H5144     1.0  0.88833  0.50004  0.86400  1.0000
  H   H5145     1.0  0.96615  0.71656  0.48660  1.0000
  C   C4291     1.0  0.91668  0.84280  0.49384  1.0000
  C   C4292     1.0  0.85577  0.49921  0.87422  1.0000
  C   C4293     1.0  0.87464  0.97075  0.49954  1.0000
  H   H5146     1.0  0.81154  0.86995  0.50720  1.0000
  H   H5147     1.0  0.90514  0.96058  0.49849  1.0000
  C   C4294     1.0  0.82540  0.96122  0.50088  1.0000
  H   H5148     1.0  0.94235  0.76611  0.56303  1.0000
  H   H5149     1.0  0.91833  0.49208  0.81053  1.0000
  C   C4295     1.0  0.91361  0.52565  0.90228  1.0000
  H   H5150     1.0  0.91734  0.71108  0.49677  1.0000
  H   H5151     1.0  0.98010  0.53243  0.71415  1.0000
  C   C4296     1.0  0.79690  0.92247  0.48723  1.0000
  C   C4297     1.0  0.97511  0.71006  0.55545  1.0000
  H   H5152     1.0  0.80297  0.95414  0.55846  1.0000
  C   C4298     1.0  0.97778  0.72024  0.54428  1.0000
  H   H5153     1.0  0.94778  0.78264  0.56656  1.0000
  H   H5154     1.0  0.97218  0.57375  0.58833  1.0000
  H   H5155     1.0  0.91468  0.80694  0.51605  1.0000
  H   H5156     1.0  0.98441  0.60397  0.52154  1.0000
  C   C4299     1.0  0.90904  0.67054  0.48487  1.0000
  C   C4300     1.0  0.79325  0.95338  0.55822  1.0000
  C   C4301     1.0  0.97380  0.78870  0.57349  1.0000
  C   C4302     1.0  0.98212  0.51378  0.85718  1.0000
  H   H5157     1.0  0.86670  0.48699  0.92745  1.0000
  H   H5158     1.0  0.88991  0.83000  0.49879  1.0000
  C   C4303     1.0  0.79334  0.48730  0.88037  1.0000
  H   H5159     1.0  0.98340  0.85139  0.51088  1.0000
  H   H5160     1.0  0.85412  0.87026  0.48382  1.0000
  H   H5161     1.0  0.97249  0.54845  0.54584  1.0000
  H   H5162     1.0  0.89151  0.49176  0.72229  1.0000
  H   H5163     1.0  0.97583  0.52787  0.68083  1.0000
  C   C4304     1.0  0.81880  0.48847  0.93682  1.0000
  H   H5164     1.0  0.89897  0.66950  0.48528  1.0000
  C   C4305     1.0  0.98264  0.83258  0.55491  1.0000
  H   H5165     1.0  0.97962  0.48839  0.77787  1.0000
  C   C4306     1.0  0.98561  0.65189  0.48490  1.0000
  H   H5166     1.0  0.80441  0.48751  0.89414  1.0000
  H   H5167     1.0  0.97287  0.51244  0.81935  1.0000
  H   H5168     1.0  0.94121  0.85412  0.48173  1.0000
  H   H5169     1.0  0.97254  0.53664  0.70023  1.0000
  H   H5170     1.0  0.89030  0.84695  0.49768  1.0000
  C   C4307     1.0  0.97584  0.55398  0.55082  1.0000
  H   H5171     1.0  0.95570  0.73265  0.48265  1.0000
  C   C4308     1.0  0.92958  0.79573  0.48785  1.0000
  H   H5172     1.0  0.94385  0.49434  0.78653  1.0000
  H   H5173     1.0  0.97293  0.74092  0.48568  1.0000
  S   S1150     1.0  0.79153  0.97885  0.49162  1.0000
  H   H5174     1.0  0.79168  0.49798  0.87653  1.0000
  H   H5175     1.0  0.97950  0.51300  0.69901  1.0000
  H   H5176     1.0  0.97680  0.52086  0.79633  1.0000
  C   C4309     1.0  0.79165  0.90636  0.54733  1.0000
  C   C4310     1.0  0.97906  0.51891  0.81988  1.0000
  H   H5177     1.0  0.97690  0.51954  0.83052  1.0000
  C   C4311     1.0  0.95870  0.83991  0.48615  1.0000
  C   C4312     1.0  0.83951  0.90271  0.48391  1.0000
  C   C4313     1.0  0.89621  0.83746  0.49478  1.0000
  S   S1151     1.0  0.97120  0.48464  0.60523  1.0000
  C   C4314     1.0  0.98352  0.49099  0.67494  1.0000
  H   H5178     1.0  0.94971  0.48677  0.81959  1.0000
  C   C4315     1.0  0.98648  0.53549  0.66154  1.0000
  H   H5179     1.0  0.89824  0.83947  0.48369  1.0000
  H   H5180     1.0  0.91841  0.84558  0.48282  1.0000
  H   H5181     1.0  0.95920  0.48568  0.77841  1.0000
  S   S1152     1.0  0.91927  0.48373  0.85782  1.0000
  C   C4316     1.0  0.92097  0.81948  0.48226  1.0000
  C   C4317     1.0  0.96897  0.82954  0.48227  1.0000
  C   C4318     1.0  0.91698  0.48537  0.82023  1.0000
  C   C4319     1.0  0.88007  0.48408  0.86370  1.0000
  H   H5182     1.0  0.98644  0.59553  0.55699  1.0000
  H   H5183     1.0  0.84713  0.48378  0.87434  1.0000
  H   H5184     1.0  0.85203  0.56021  0.98061  1.0000
  C   C4320     1.0  0.84746  0.87984  0.48171  1.0000
