data_image0
_chemical_formula_structural       HNC2H4CH2FeCH2CH3C7HFeH2CHCS2HSHCSC2HC3HC2H2CH2C5HCH2CHCHC3NCH3CHNHFeSH4FeSFeSHFeSFeS3HSCSCHSH2C2HCHCHSCHC5H2CSH3CHCHCHFeHCFeCH2CH5FeCSHC2FeCNSH2CH3C2SH2CH5CSFeS2FeS2FeSHFeSFeS3H2C2H6FeS2FeS2FeSFeCS2CSHFeSHFeSFeHSCHSHC2H6NHC7H4C6H4C3H3C6H4CH2CFeCH6CH4C6H4CFeHC5SH2CH3NCHC3SCH8C3HCH4CH6C2HCH2C2H2NCN2C10H3FeH3CH5CH5NCHCH2CHCHCNHCH2SHC3HFeCH2SCH4CH2SFeC3HCSHNCHCH2CHC3H2CHCHC3H3NH2C3HCS2HCHCHCHSHCHCSFeC4HCHCHNS2C2H3CHCHCH2CSCFeCH3SFeH2C2HCHSCH4SHC2HFeHC2HFeHSC2H2C9HC2HSH3C3HCH2SCH5CH2FeSHSH4C2H2CHC3FeS2FeSHFeSFeS4FeCSFeHSFeSHSCSHC2HC2H2C6H4C6H4C6H2CH2SHC2H4C6H9C3FeH3NHC2H2SC2H3C2H3CNCH5CHCHC3NFeH4C3H3S2CNHC4HSH4CFeCHNH4C2HCSH2CHCHCNC9H6CHC2HCHC2H2C2SCHCHCHCFeHFeH3SC3SHNC3H2CHCH2SHCSCFeHC2H2C2H2CHC2HC5H3CH6C2H2CH5SH3CFeHCH4CH3NSCHC2SH3FeHSHFeSFeS2FeS2FeSFeS3FeS4Fe2SFeS3H2NH2C7H4C2H2CH4C2HC3H2C8H3C6H4C2H2CSFeHCHCHNHCH4CNHCH3C2HC2HCHCH3CH4CSFeCH3CHCHSCHFeCS2HNC9H16C2H2FeHCH4SHSNCHC2SFeHFeHCSCH2CHNCH3SCHCHC3H2C2HC2H3C3HSHCHCNHCHFeCHCH3C4H2CH3CH2SCHSCHC2FeCNHCSCH2CHFeSFeSCFeSFeSHSFeS2FeS2FeSFeCS2HSCHCH2CFeH3C3HCHCHCHC8H5CFeH6CH2CSHC6H3C2HC5H4CHSH2CHNCH3C5HNHSHC2NH8C2H2C4HCNC3HCHC3H9SH2CH3CH2SHC2H2SC2H3SFeCH2CFeH2CH2CHFeHCSFeHS3HC2H2CNHCHC2FeCSHCHCSHCH2CHC2HC2HC2HCH5CH3CHS2HCHC3H2CH2CNH3FeSC2SH3CHS2HC2H4NC2H3CH2C2H2CSHCHC2H3CH4FeSH3CHC3NFeSHFeS2FeSC2SCFeS2FeS2FeSFeS3FeCSH2C2H2SC6H4C3HC2HCH2C6H4C2HC4H3C2HC4H4SH3CHCNH2NFeCSC2H4CH2CNHC2H3C3HCHS2C2HC2HSCFeHSHC2H2CH4CHCHCHSCH2FeH2C2H2NC8H14C2HCHC2H9SCH3CH2CHSHC4H2C2H2CHCH2FeSHFeSHFeSFeHS2FeSHFeS2FeSFeS3FeS2FeS2FeSFeS3H4C6H4C3H2C2H7C2NHCHC6H4C3H4CH3C3H5C6H3CNC9H12CHNC2HCH2NCH5CNH7FeNC9H5CHCSCH2C4HCHCHCHCH4C2HSHC2HNHCH2CH2C3HSH7CHC2H3C2HCNHSH2CH2CSCHCHCHNHSHCH3SC4HCS2CH3CH2CHC3H2CSHCHC2HCHNCH2CH2CHCH3CHCH2CHSHC2HC3HNHCH6CH2CFeS2CFeS2HFeS2FeS2FeSFeS3NCFeSFeS2FeSFeCS2C6H4SC2HC8H4C6H4C5H2C6H4C2HC3HCH3CFeH2FeHNCH2C2H2CH4CHCH2CSHCH4CHCH4C3H3CHCHNC8H2CH9CH3C2H3CH2CH2CHC2H4C3HCHSH3CHCH2FeSH2CHCH2CSCHCHC2H3SHCHCHSHCH2NCH3CH5C5SCHC2NH3C2HC2H2SCFeHCSNHCH2C2H5CHC2H2C3HSHCH2C2H4C3HSH2S2HFeH3FeS2HC6H3FeHCSNSH2C2H3SHCFeS2FeSCFeSFeS3HSC6H4C5HCHC6H5CH2SH2CH2C4H2CH3CHCH2C2H3CH3CH3C2HC3HCH5CH3C2HCHCH2CHC2NHSNHCH3CH2NH9CHC3NSCH2CH2SCH2CH2SC4H4CSFeSHSHFeS2FeS2FeSFeS3HSC2H2C5HC2HCHC3HC2H2SHC6H5C3H3NCHNCHC4HCH2CH2CH4CHCH2SH3CH2CHC2H4CHC2HNHCH3FeH2CHC2NC3H2CSC2HC3H3SH4SC3H2C2H5CFeHFeSFeS2FeS2FeS2FeSFeS3FeS2HS2CS2CFeCHFeS2C4SH2C2H2SH2S2H2C3HC3SFeHC6H4C6H4C6H4CSH2SHC6H4CH2C3H2C2HNCH3C3H3C2HCHC5NHNC9H15SC2SHC3SC3HCH4FeH3S2CHCSHC2H5FeHFeSH2CH2CH3FeHNHCHC2FeCHNC2H3CH7C2NC6HCH12CH2NC9H9CHCS2HSH2SC2SCHCHCHCH2SHFeH4NH5C2H2SCH2C3HCHNFe2HCNHC2H2FeCH2CHCH2C3H2SHFeHC2H2CH3CHCHSH2CHFeS2HC4HFeS2FeS2FeSFeS4H2FeCSHFeSCSHC6H4C6H4FeHC5H3CHSHFeH2CSC6H4FeCH2C2HSC3H2C3HCHC2SCH2C3NC9H15CHC4H3NCHCSCH2SFe2H2CNC5H3CFe2H3CH4CH3C8SHCH2CHCHFeHCHSH3C2SH3CH4CH2CSFeH2SCHC2H2CH4C2HCHS2HC2H3CFeHC2SCHC2SNH3CHCHC3NH5FeC2H2CH2CHSCHCHCNCH2C4HCHFeH4SNCHNH3FeS2HCS2CH2FeS2FeSHFeSFeS3FeS2FeS2FeSFeCS2CH2FeHC3H3C6H7CH3C6H3C7H2CH5C3H2NH2CH3CH2CSCNCH2C6HSCHCFeC2H7CHCNC3H2FeC2HC3HSH2FeH2C2HSCSC2H2FeC2HSFeHCH3C3H2CNC2SHFeH4CH3S2H4CH2NH3CHSHCH3CH2CH2CFeS2C3H3C2HNSCSHCH2FeSFeS2FeS3HSFeCS2H3C2HC2HCHCHFeCNHSHCS2FeCSC4H4CH2SCFeH3C4HCHFeH2C8H2C6H4C2NH2C7H2NH3CH2FeHCHC2HC2H4C6H5C2SH2CH2CHCSFeC3H7C2H3SH5NSHCHC2HFeC2H4CH2CH8CHCSC3H4CNH2CFeCH2SNCHC3H3CHC2HCHC2H5SCH3C5HCS2HFeHC2NH4SHSC3H2CSCSC2SCH2FeC4S2HCH2CH3CHCH2CHSCHFeCHNC4H3SHC5H3CHC2HC2HNCFe2CHCHFeH4CHC2NHFeHCHSHSHCHCHC4H3CHCHC2S2CH3CHCHCHCH7SHCH3C2HNHCH2CHCFeS2FeSCFe2S3FeS2FeS2FeHFeS3HSH3SCSH2C6H3C7H5C6H6NSC2H3C2HC3H2CNC2H2CH3SNCHC2H3CHNHC6H2C2H2C4HCHSH4FeC2HC3SFeHCH2CH2CHCH2CHFe2H2CHC2H2C3H3SCH6SH2C2HCH2CH4CH2C3NH3C2H2SCH4CH3CH2CHC2FeCSC2HCSH3CHFeSHFeS2FeSFeS3FeS2FeS2FeSFeS3FeS2FeS2FeHC2S2H2CH3CHNC3HC6H9C6H4C5H5CH3SH3C7H6FeH3C2H2C2HC3HCNC5HCH6CH3CHCHSHCNH3C3HCHCH2CHC2H4C3NC8H9CHC2HCH2C5H4C2HC4H4C2HCH3CHSH2SCHC2HCH3NCSC5H2CH2C2H2CHFeH3C3HCH2C3FeHC2HC2HCH2CSFeSFe2HFeS2Fe2S2FeSHSH3CSH2S2CHCH2C3SCHCHC2H2C2HC3HCHFeH2C2SC3SFeH3CHC6H4CHC6SH3C6H6CH2CHSHCH2CH2CHC2HSHCH6NC4H3CH2S2C2NCH3NHNC9H14CH2CH2SCH3CH2C2H4C2H2NC4HC3H3C2HCSCH7C2SHC2HN2HC2H3NCH2CHNH4CH4C2HCHC2HCHCH2CH5NH2SCH3CHCFeHCH7C2H3SC4HC2FeNCHNHC2SHC6HNC2HCH9FeH5SCH2CFeC2H2SC2H2CHCHC2H3C2HS2C3SHC2HCH2FeHCH2C2H2CHCHSH3CHFeS2FeS2FeSHCS2CSC6H4C2FeHC2HCH3CSCHCH3C2NH4CHC4FeC5HSHCHCH2NH3CHCH3CHSCHCHC3HCH3CHCHCHCH2CHCH4
_chemical_formula_sum              "H2304 N128 C1920 Fe256 S512"
_cell_length_a       59.6672
_cell_length_b       60.1629
_cell_length_c       101.86
_cell_angle_alpha    78.7819
_cell_angle_beta     78.8166
_cell_angle_gamma    77.4885

_space_group_name_H-M_alt    "P 1"
_space_group_IT_number       1

loop_
  _space_group_symop_operation_xyz
  'x, y, z'

loop_
  _atom_site_type_symbol
  _atom_site_label
  _atom_site_symmetry_multiplicity
  _atom_site_fract_x
  _atom_site_fract_y
  _atom_site_fract_z
  _atom_site_occupancy
  H   H1        1.0  0.02968  0.06798  0.98065  1.0000
  N   N1        1.0  0.02136  0.20983  0.00160  1.0000
  C   C1        1.0  0.15340  0.23044  0.98919  1.0000
  C   C2        1.0  0.17057  0.03125  0.04649  1.0000
  H   H2        1.0  0.16408  0.02948  0.05723  1.0000
  H   H3        1.0  0.08681  0.07529  0.99824  1.0000
  H   H4        1.0  0.17616  0.07446  0.01969  1.0000
  H   H5        1.0  0.16211  0.06842  0.04432  1.0000
  C   C3        1.0  0.17768  0.05710  0.02537  1.0000
  H   H6        1.0  0.08700  0.23925  0.99012  1.0000
  H   H7        1.0  0.05576  0.26933  0.98434  1.0000
  Fe  Fe1       1.0  0.12816  0.11214  0.99367  1.0000
  C   C4        1.0  0.18786  0.01578  0.02582  1.0000
  H   H8        1.0  0.19288  0.04105  0.00786  1.0000
  H   H9        1.0  0.05490  0.18690  0.00168  1.0000
  C   C5        1.0  0.11522  0.25502  0.99194  1.0000
  H   H10       1.0  0.06637  0.09976  0.99208  1.0000
  H   H11       1.0  0.15058  0.06451  0.98842  1.0000
  H   H12       1.0  0.00160  0.28628  0.00966  1.0000
  C   C6        1.0  0.15524  0.98635  0.05512  1.0000
  C   C7        1.0  0.14645  0.05061  0.99643  1.0000
  C   C8        1.0  0.10551  0.23696  0.98985  1.0000
  C   C9        1.0  0.02591  0.21406  0.98663  1.0000
  C   C10       1.0  0.02596  0.22979  0.00652  1.0000
  C   C11       1.0  0.03538  0.26930  0.01431  1.0000
  C   C12       1.0  0.18705  0.03824  0.01872  1.0000
  H   H13       1.0  0.06114  0.21451  0.01102  1.0000
  Fe  Fe2       1.0  0.10744  0.31545  0.99430  1.0000
  H   H14       1.0  0.03498  0.18435  0.01757  1.0000
  H   H15       1.0  0.11742  0.04131  0.02860  1.0000
  C   C13       1.0  0.15054  0.00945  0.00515  1.0000
  H   H16       1.0  0.02909  0.00465  0.01545  1.0000
  C   C14       1.0  0.00980  0.25103  0.00595  1.0000
  S   S1        1.0  0.16168  0.18594  0.98387  1.0000
  S   S2        1.0  0.09649  0.28128  0.99492  1.0000
  H   H17       1.0  0.02479  0.04286  0.00213  1.0000
  S   S3        1.0  0.11246  0.14899  0.99585  1.0000
  H   H18       1.0  0.14683  0.26542  0.99336  1.0000
  C   C15       1.0  0.06825  0.08133  0.99695  1.0000
  S   S4        1.0  0.12371  0.08423  0.01176  1.0000
  C   C16       1.0  0.15529  0.02756  0.99468  1.0000
  C   C17       1.0  0.12783  0.03749  0.01908  1.0000
  H   H19       1.0  0.06851  0.24853  0.01762  1.0000
  C   C18       1.0  0.17923  0.01160  0.03995  1.0000
  C   C19       1.0  0.08627  0.00699  0.00554  1.0000
  C   C20       1.0  0.06641  0.99809  0.01166  1.0000
  H   H20       1.0  0.05784  0.08072  0.00730  1.0000
  C   C21       1.0  0.13637  0.01446  0.01724  1.0000
  C   C22       1.0  0.13312  0.05561  0.00876  1.0000
  H   H21       1.0  0.10026  0.03578  0.99415  1.0000
  H   H22       1.0  0.00967  0.99787  0.99653  1.0000
  C   C23       1.0  0.05188  0.24899  0.01462  1.0000
  H   H23       1.0  0.11193  0.20202  0.98577  1.0000
  H   H24       1.0  0.19459  0.00207  0.01985  1.0000
  C   C24       1.0  0.04233  0.03353  0.00265  1.0000
  C   C25       1.0  0.03631  0.18762  0.00634  1.0000
  C   C26       1.0  0.04452  0.01139  0.01030  1.0000
  C   C27       1.0  0.13924  0.25176  0.99155  1.0000
  C   C28       1.0  0.06228  0.04320  0.99630  1.0000
  H   H25       1.0  0.03912  0.28440  0.01719  1.0000
  C   C29       1.0  0.04737  0.22949  0.01078  1.0000
  H   H26       1.0  0.13238  0.00065  0.02528  1.0000
  H   H27       1.0  0.03148  0.17272  0.00322  1.0000
  C   C30       1.0  0.08432  0.02930  0.99812  1.0000
  H   H28       1.0  0.16621  0.02377  0.98529  1.0000
  C   C31       1.0  0.11962  0.21577  0.98741  1.0000
  H   H29       1.0  0.10330  0.99674  0.00685  1.0000
  C   C32       1.0  0.16960  0.05363  0.03925  1.0000
  C   C33       1.0  0.14361  0.21234  0.98717  1.0000
  C   C34       1.0  0.03675  0.07821  0.98634  1.0000
  N   N2        1.0  0.06065  0.06712  0.98888  1.0000
  C   C35       1.0  0.01435  0.27032  0.01002  1.0000
  H   H30       1.0  0.02456  0.08072  0.99593  1.0000
  H   H31       1.0  0.17198  0.22789  0.98896  1.0000
  H   H32       1.0  0.14975  0.99687  0.06341  1.0000
  C   C36       1.0  0.99676  0.20690  0.00611  1.0000
  H   H33       1.0  0.14218  0.99217  0.04812  1.0000
  N   N3        1.0  0.17902  0.98810  0.04774  1.0000
  H   H34       1.0  0.19002  0.99549  0.06518  1.0000
  Fe  Fe3       1.0  0.14378  0.15782  0.98128  1.0000
  S   S5        1.0  0.16119  0.12060  0.98061  1.0000
  H   H35       1.0  0.01609  0.23095  0.98246  1.0000
  H   H36       1.0  0.04466  0.21414  0.98275  1.0000
  H   H37       1.0  0.02085  0.20062  0.98226  1.0000
  H   H38       1.0  0.04593  0.29989  0.98085  1.0000
  Fe  Fe4       1.0  0.42670  0.04745  0.43149  1.0000
  S   S6        1.0  0.41722  0.06522  0.41117  1.0000
  Fe  Fe5       1.0  0.47728  0.04911  0.42313  1.0000
  S   S7        1.0  0.47275  0.06730  0.40220  1.0000
  H   H39       1.0  0.37932  0.15443  0.43916  1.0000
  Fe  Fe6       1.0  0.44109  0.08911  0.41247  1.0000
  S   S8        1.0  0.43434  0.12785  0.40479  1.0000
  Fe  Fe7       1.0  0.44962  0.04218  0.40258  1.0000
  S   S9        1.0  0.45804  0.02008  0.38599  1.0000
  S   S10       1.0  0.44789  0.07294  0.43348  1.0000
  S   S11       1.0  0.45669  0.02261  0.42277  1.0000
  H   H40       1.0  0.48875  0.06634  0.44711  1.0000
  S   S12       1.0  0.40997  0.26840  0.44634  1.0000
  C   C37       1.0  0.36607  0.23643  0.44174  1.0000
  S   S13       1.0  0.40415  0.03107  0.44938  1.0000
  C   C38       1.0  0.40935  0.00503  0.35465  1.0000
  H   H41       1.0  0.45186  0.03064  0.45132  1.0000
  S   S14       1.0  0.44430  0.30585  0.43274  1.0000
  H   H42       1.0  0.43465  0.12561  0.43364  1.0000
  H   H43       1.0  0.38416  0.26432  0.42124  1.0000
  C   C39       1.0  0.43970  0.00078  0.38590  1.0000
  C   C40       1.0  0.37619  0.16620  0.41822  1.0000
  H   H44       1.0  0.36345  0.25456  0.44356  1.0000
  C   C41       1.0  0.45534  0.01858  0.47219  1.0000
  H   H45       1.0  0.38635  0.24784  0.40811  1.0000
  C   C42       1.0  0.41621  0.00499  0.39160  1.0000
  H   H46       1.0  0.37949  0.14888  0.41577  1.0000
  S   S15       1.0  0.43872  0.26630  0.41531  1.0000
  C   C43       1.0  0.41958  0.02298  0.46314  1.0000
  H   H47       1.0  0.40900  0.02037  0.39613  1.0000
  C   C44       1.0  0.43381  0.14902  0.41479  1.0000
  C   C45       1.0  0.43415  0.14331  0.42873  1.0000
  C   C46       1.0  0.43259  0.18374  0.43025  1.0000
  C   C47       1.0  0.43262  0.18946  0.41626  1.0000
  C   C48       1.0  0.43295  0.17218  0.40860  1.0000
  H   H48       1.0  0.43228  0.20712  0.41133  1.0000
  H   H49       1.0  0.43270  0.17672  0.39781  1.0000
  C   C49       1.0  0.34413  0.24896  0.42342  1.0000
  S   S16       1.0  0.44735  0.28155  0.47184  1.0000
  H   H50       1.0  0.35177  0.22860  0.44842  1.0000
  H   H51       1.0  0.37373  0.18257  0.39776  1.0000
  H   H52       1.0  0.34082  0.26677  0.42590  1.0000
  C   C50       1.0  0.37306  0.18524  0.40806  1.0000
  H   H53       1.0  0.36782  0.22171  0.40279  1.0000
  C   C51       1.0  0.38571  0.24644  0.41920  1.0000
  H   H54       1.0  0.38361  0.99306  0.39536  1.0000
  C   C52       1.0  0.37611  0.16938  0.43140  1.0000
  H   H55       1.0  0.40275  0.23638  0.42168  1.0000
  Fe  Fe8       1.0  0.41562  0.29328  0.42690  1.0000
  H   H56       1.0  0.38289  0.22751  0.44513  1.0000
  C   C53       1.0  0.40187  0.98952  0.39114  1.0000
  Fe  Fe9       1.0  0.43546  0.24221  0.43516  1.0000
  C   C54       1.0  0.36965  0.21146  0.42440  1.0000
  H   H57       1.0  0.37405  0.19265  0.44483  1.0000
  H   H58       1.0  0.47349  0.01991  0.47057  1.0000
  C   C55       1.0  0.36980  0.20755  0.41106  1.0000
  H   H59       1.0  0.32926  0.24059  0.42884  1.0000
  H   H60       1.0  0.37530  0.99795  0.35710  1.0000
  H   H61       1.0  0.48692  0.13211  0.41436  1.0000
  H   H62       1.0  0.34384  0.25107  0.41237  1.0000
  H   H63       1.0  0.43315  0.15605  0.44725  1.0000
  Fe  Fe10      1.0  0.46720  0.27720  0.42260  1.0000
  C   C56       1.0  0.37302  0.19161  0.43452  1.0000
  S   S17       1.0  0.43132  0.20462  0.44061  1.0000
  H   H64       1.0  0.48147  0.19239  0.42295  1.0000
  C   C57       1.0  0.49326  0.14878  0.41234  1.0000
  C   C58       1.0  0.43328  0.16063  0.43642  1.0000
  Fe  Fe11      1.0  0.44114  0.27866  0.45111  1.0000
  C   C59       1.0  0.44303  0.02471  0.46124  1.0000
  N   N4        1.0  0.36644  0.23529  0.42725  1.0000
  S   S18       1.0  0.46616  0.25078  0.44138  1.0000
  H   H65       1.0  0.49325  0.22993  0.41703  1.0000
  H   H66       1.0  0.48068  0.15942  0.43770  1.0000
  C   C60       1.0  0.39304  0.99343  0.35219  1.0000
  H   H67       1.0  0.47762  0.16251  0.41314  1.0000
  H   H68       1.0  0.47600  0.98699  0.45003  1.0000
  H   H69       1.0  0.41025  0.98728  0.43969  1.0000
  C   C61       1.0  0.43267  0.99938  0.34909  1.0000
  C   C62       1.0  0.40860  0.01460  0.47603  1.0000
  S   S19       1.0  0.38597  0.31662  0.41753  1.0000
  H   H70       1.0  0.39045  0.01323  0.47756  1.0000
  H   H71       1.0  0.40403  0.01799  0.36127  1.0000
  C   C63       1.0  0.44024  0.30894  0.47687  1.0000
  H   H72       1.0  0.44532  0.00804  0.35134  1.0000
  H   H73       1.0  0.35363  0.99313  0.34199  1.0000
  H   H74       1.0  0.37091  0.99061  0.32563  1.0000
  H   H75       1.0  0.49028  0.12912  0.43847  1.0000
  H   H76       1.0  0.43323  0.98666  0.41627  1.0000
  C   C64       1.0  0.40424  0.05861  0.59372  1.0000
  S   S20       1.0  0.16240  0.29302  0.69359  1.0000
  Fe  Fe12      1.0  0.15041  0.26117  0.69209  1.0000
  S   S21       1.0  0.17516  0.22773  0.69123  1.0000
  S   S22       1.0  0.12889  0.27747  0.67584  1.0000
  Fe  Fe13      1.0  0.12255  0.14474  0.66926  1.0000
  S   S23       1.0  0.11526  0.11767  0.65937  1.0000
  S   S24       1.0  0.13377  0.17620  0.65633  1.0000
  Fe  Fe14      1.0  0.11259  0.11831  0.69768  1.0000
  S   S25       1.0  0.10370  0.08910  0.69002  1.0000
  H   H77       1.0  0.39175  0.06575  0.61402  1.0000
  Fe  Fe15      1.0  0.13549  0.09293  0.67428  1.0000
  S   S26       1.0  0.16672  0.06502  0.67012  1.0000
  Fe  Fe16      1.0  0.08396  0.11681  0.67585  1.0000
  S   S27       1.0  0.04888  0.12430  0.66844  1.0000
  S   S28       1.0  0.14523  0.12027  0.68284  1.0000
  S   S29       1.0  0.09048  0.14573  0.68484  1.0000
  H   H78       1.0  0.30657  0.23156  0.67877  1.0000
  H   H79       1.0  0.22675  0.15112  0.64019  1.0000
  C   C65       1.0  0.14812  0.13966  0.71753  1.0000
  C   C66       1.0  0.31380  0.21517  0.67461  1.0000
  H   H80       1.0  0.25193  0.26992  0.63251  1.0000
  H   H81       1.0  0.01750  0.29468  0.65939  1.0000
  H   H82       1.0  0.40894  0.18309  0.67081  1.0000
  H   H83       1.0  0.32029  0.22025  0.66366  1.0000
  H   H84       1.0  0.31805  0.01747  0.59472  1.0000
  H   H85       1.0  0.18664  0.19966  0.72929  1.0000
  Fe  Fe17      1.0  0.32810  0.11135  0.62752  1.0000
  S   S30       1.0  0.34815  0.07902  0.63805  1.0000
  S   S31       1.0  0.34436  0.14306  0.62054  1.0000
  Fe  Fe18      1.0  0.28476  0.09070  0.63108  1.0000
  S   S32       1.0  0.30088  0.05679  0.64208  1.0000
  S   S33       1.0  0.24789  0.10140  0.62689  1.0000
  Fe  Fe19      1.0  0.31529  0.07807  0.65307  1.0000
  S   S34       1.0  0.31150  0.07539  0.67575  1.0000
  Fe  Fe20      1.0  0.33237  0.06048  0.62598  1.0000
  C   C67       1.0  0.01430  0.17417  0.68255  1.0000
  S   S35       1.0  0.29650  0.11161  0.64339  1.0000
  S   S36       1.0  0.31501  0.09306  0.61412  1.0000
  C   C68       1.0  0.00322  0.12445  0.66781  1.0000
  S   S37       1.0  0.28297  0.28314  0.65887  1.0000
  H   H86       1.0  0.41765  0.04746  0.57486  1.0000
  Fe  Fe21      1.0  0.33483  0.29430  0.63034  1.0000
  S   S38       1.0  0.33625  0.26191  0.64597  1.0000
  H   H87       1.0  0.48829  0.22898  0.71995  1.0000
  Fe  Fe22      1.0  0.30031  0.26217  0.64259  1.0000
  S   S39       1.0  0.28425  0.23113  0.64388  1.0000
  Fe  Fe23      1.0  0.31893  0.28547  0.66103  1.0000
  H   H88       1.0  0.34059  0.14734  0.65212  1.0000
  S   S40       1.0  0.29989  0.29244  0.62571  1.0000
  C   C69       1.0  0.30639  0.03934  0.71626  1.0000
  H   H89       1.0  0.28920  0.02674  0.62054  1.0000
  S   S41       1.0  0.40546  0.08508  0.69226  1.0000
  H   H90       1.0  0.00973  0.19284  0.67864  1.0000
  C   C70       1.0  0.23558  0.21400  0.62052  1.0000
  C   C71       1.0  0.39767  0.22266  0.71812  1.0000
  H   H91       1.0  0.99793  0.07179  0.69608  1.0000
  H   H92       1.0  0.21446  0.31114  0.72128  1.0000
  H   H93       1.0  0.17865  0.27869  0.64524  1.0000
  H   H94       1.0  0.27290  0.11841  0.58389  1.0000
  H   H95       1.0  0.18799  0.28819  0.62738  1.0000
  H   H96       1.0  0.37313  0.12159  0.66227  1.0000
  N   N5        1.0  0.44855  0.00637  0.58299  1.0000
  H   H97       1.0  0.32183  0.18303  0.66043  1.0000
  C   C72       1.0  0.36511  0.13762  0.66602  1.0000
  C   C73       1.0  0.32746  0.16824  0.62622  1.0000
  C   C74       1.0  0.30359  0.16979  0.63072  1.0000
  C   C75       1.0  0.29053  0.18926  0.63606  1.0000
  C   C76       1.0  0.30116  0.20755  0.63662  1.0000
  C   C77       1.0  0.32491  0.20644  0.63176  1.0000
  C   C78       1.0  0.33806  0.18673  0.62659  1.0000
  H   H98       1.0  0.29510  0.15616  0.62989  1.0000
  H   H99       1.0  0.27214  0.19017  0.63971  1.0000
  H   H100      1.0  0.33318  0.22058  0.63211  1.0000
  H   H101      1.0  0.35650  0.18566  0.62301  1.0000
  C   C79       1.0  0.33742  0.07853  0.68033  1.0000
  C   C80       1.0  0.35887  0.06875  0.67354  1.0000
  C   C81       1.0  0.37956  0.07085  0.67737  1.0000
  C   C82       1.0  0.37895  0.08308  0.68784  1.0000
  C   C83       1.0  0.35746  0.09314  0.69455  1.0000
  C   C84       1.0  0.33671  0.09056  0.69093  1.0000
  H   H102      1.0  0.35955  0.05911  0.66552  1.0000
  H   H103      1.0  0.35673  0.10296  0.70246  1.0000
  H   H104      1.0  0.32014  0.09814  0.69622  1.0000
  H   H105      1.0  0.38121  0.28073  0.64145  1.0000
  C   C85       1.0  0.36179  0.04375  0.57626  1.0000
  C   C86       1.0  0.35519  0.04573  0.59009  1.0000
  C   C87       1.0  0.38920  0.27601  0.49514  1.0000
  H   H106      1.0  0.39234  0.17690  0.65163  1.0000
  H   H107      1.0  0.34582  0.06196  0.59304  1.0000
  H   H108      1.0  0.14524  0.14571  0.70718  1.0000
  C   C88       1.0  0.18935  0.07530  0.65825  1.0000
  C   C89       1.0  0.21228  0.06309  0.65798  1.0000
  C   C90       1.0  0.23052  0.07128  0.64866  1.0000
  C   C91       1.0  0.22577  0.09136  0.63929  1.0000
  C   C92       1.0  0.20289  0.10362  0.63962  1.0000
  C   C93       1.0  0.18480  0.09583  0.64922  1.0000
  H   H109      1.0  0.21592  0.04720  0.66494  1.0000
  H   H110      1.0  0.24810  0.06169  0.64846  1.0000
  H   H111      1.0  0.19909  0.11915  0.63240  1.0000
  H   H112      1.0  0.16720  0.10540  0.64936  1.0000
  C   C94       1.0  0.02265  0.11352  0.67406  1.0000
  H   H113      1.0  0.04560  0.28108  0.65171  1.0000
  H   H114      1.0  0.29955  0.11388  0.56226  1.0000
  C   C95       1.0  0.03775  0.28471  0.69378  1.0000
  Fe  Fe24      1.0  0.40697  0.99264  0.54509  1.0000
  C   C96       1.0  0.02057  0.09466  0.68441  1.0000
  H   H115      1.0  0.16583  0.24514  0.71609  1.0000
  H   H116      1.0  0.08540  0.19875  0.70982  1.0000
  H   H117      1.0  0.42092  0.26820  0.63153  1.0000
  H   H118      1.0  0.03540  0.08605  0.68930  1.0000
  H   H119      1.0  0.31327  0.21011  0.70076  1.0000
  H   H120      1.0  0.26571  0.08487  0.60063  1.0000
  C   C97       1.0  0.04798  0.16306  0.71022  1.0000
  H   H121      1.0  0.19982  0.12596  0.66455  1.0000
  H   H122      1.0  0.20890  0.03806  0.70684  1.0000
  H   H123      1.0  0.07784  0.15971  0.72001  1.0000
  H   H124      1.0  0.19874  0.04793  0.69082  1.0000
  C   C98       1.0  0.16330  0.21362  0.68164  1.0000
  C   C99       1.0  0.15468  0.19360  0.68762  1.0000
  C   C100      1.0  0.14467  0.18259  0.67997  1.0000
  C   C101      1.0  0.14398  0.19120  0.66625  1.0000
  C   C102      1.0  0.15217  0.21149  0.66034  1.0000
  C   C103      1.0  0.16159  0.22289  0.66809  1.0000
  H   H125      1.0  0.15519  0.18698  0.69824  1.0000
  H   H126      1.0  0.13739  0.16753  0.68471  1.0000
  H   H127      1.0  0.15094  0.21848  0.64984  1.0000
  H   H128      1.0  0.16754  0.23881  0.66362  1.0000
  C   C104      1.0  0.36236  0.16387  0.68175  1.0000
  Fe  Fe25      1.0  0.39268  0.15247  0.71809  1.0000
  H   H129      1.0  0.47685  0.00081  0.59441  1.0000
  C   C105      1.0  0.03333  0.17708  0.70111  1.0000
  C   C106      1.0  0.39239  0.03051  0.71969  1.0000
  C   C107      1.0  0.33606  0.17270  0.66527  1.0000
  C   C108      1.0  0.38654  0.27889  0.65151  1.0000
  C   C109      1.0  0.19398  0.21927  0.62707  1.0000
  S   S42       1.0  0.11278  0.11519  0.72018  1.0000
  H   H130      1.0  0.24806  0.05243  0.60523  1.0000
  H   H131      1.0  0.37757  0.99106  0.60356  1.0000
  C   C110      1.0  0.38722  0.20359  0.72390  1.0000
  H   H132      1.0  0.26824  0.07889  0.71632  1.0000
  H   H133      1.0  0.29514  0.01274  0.58681  1.0000
  H   H134      1.0  0.41227  0.00227  0.49697  1.0000
  N   N6        1.0  0.02009  0.25894  0.65740  1.0000
  C   C111      1.0  0.36087  0.27666  0.69700  1.0000
  H   H135      1.0  0.30966  0.18294  0.69728  1.0000
  C   C112      1.0  0.20108  0.08625  0.72443  1.0000
  C   C113      1.0  0.25991  0.03712  0.60152  1.0000
  C   C114      1.0  0.39558  0.19382  0.65199  1.0000
  S   S43       1.0  0.42204  0.13791  0.70309  1.0000
  C   C115      1.0  0.28881  0.05936  0.58913  1.0000
  H   H136      1.0  0.25145  0.15160  0.64761  1.0000
  H   H137      1.0  0.16542  0.09361  0.70881  1.0000
  H   H138      1.0  0.38851  0.98750  0.57908  1.0000
  H   H139      1.0  0.01419  0.21869  0.65055  1.0000
  H   H140      1.0  0.44273  0.25437  0.64194  1.0000
  H   H141      1.0  0.39214  0.01261  0.71844  1.0000
  H   H142      1.0  0.19561  0.11037  0.69235  1.0000
  H   H143      1.0  0.17706  0.26375  0.72365  1.0000
  C   C116      1.0  0.40972  0.23158  0.72582  1.0000
  C   C117      1.0  0.40387  0.23824  0.65291  1.0000
  C   C118      1.0  0.27752  0.08196  0.59137  1.0000
  H   H144      1.0  0.18240  0.08923  0.72728  1.0000
  C   C119      1.0  0.21248  0.07885  0.71199  1.0000
  H   H145      1.0  0.19278  0.09066  0.68183  1.0000
  H   H146      1.0  0.38867  0.29646  0.65236  1.0000
  H   H147      1.0  0.27790  0.05680  0.61704  1.0000
  H   H148      1.0  0.40252  0.25984  0.67477  1.0000
  C   C120      1.0  0.32238  0.19449  0.69623  1.0000
  H   H149      1.0  0.06469  0.24635  0.66529  1.0000
  H   H150      1.0  0.23050  0.18596  0.65801  1.0000
  H   H151      1.0  0.45172  0.29620  0.49620  1.0000
  H   H152      1.0  0.23396  0.30912  0.66088  1.0000
  H   H153      1.0  0.17483  0.15950  0.71604  1.0000
  H   H154      1.0  0.04675  0.31770  0.68476  1.0000
  C   C121      1.0  0.39703  0.31103  0.53400  1.0000
  C   C122      1.0  0.38892  0.30221  0.69072  1.0000
  H   H155      1.0  0.03580  0.27476  0.66968  1.0000
  C   C123      1.0  0.37958  0.00382  0.58210  1.0000
  H   H156      1.0  0.99987  0.25480  0.64274  1.0000
  H   H157      1.0  0.22090  0.09204  0.68485  1.0000
  C   C124      1.0  0.38659  0.26638  0.50881  1.0000
  C   C125      1.0  0.23475  0.14520  0.64959  1.0000
  H   H158      1.0  0.38726  0.13209  0.68107  1.0000
  H   H159      1.0  0.38329  0.20921  0.63320  1.0000
  N   N7        1.0  0.37133  0.03995  0.72884  1.0000
  C   C126      1.0  0.01404  0.14417  0.70179  1.0000
  N   N8        1.0  0.19966  0.07495  0.70182  1.0000
  N   N9        1.0  0.21908  0.15340  0.66162  1.0000
  C   C127      1.0  0.30375  0.05737  0.57654  1.0000
  C   C128      1.0  0.44431  0.01054  0.48512  1.0000
  C   C129      1.0  0.19696  0.14512  0.66287  1.0000
  C   C130      1.0  0.22888  0.14541  0.67440  1.0000
  C   C131      1.0  0.25115  0.13110  0.67503  1.0000
  C   C132      1.0  0.21622  0.15227  0.68675  1.0000
  C   C133      1.0  0.26026  0.12468  0.68716  1.0000
  C   C134      1.0  0.22550  0.14570  0.69884  1.0000
  C   C135      1.0  0.24756  0.13217  0.69900  1.0000
  C   C136      1.0  0.03100  0.21768  0.65334  1.0000
  H   H160      1.0  0.18874  0.15131  0.65355  1.0000
  H   H161      1.0  0.35051  0.31435  0.66833  1.0000
  H   H162      1.0  0.21968  0.27409  0.65720  1.0000
  Fe  Fe26      1.0  0.13061  0.29866  0.70918  1.0000
  H   H163      1.0  0.15675  0.20920  0.72789  1.0000
  H   H164      1.0  0.32677  0.03225  0.69720  1.0000
  H   H165      1.0  0.26206  0.12475  0.66629  1.0000
  C   C137      1.0  0.19319  0.28443  0.63762  1.0000
  H   H166      1.0  0.43052  0.28462  0.64144  1.0000
  H   H167      1.0  0.19912  0.16304  0.68715  1.0000
  H   H168      1.0  0.27741  0.11393  0.68732  1.0000
  H   H169      1.0  0.17890  0.30408  0.71509  1.0000
  H   H170      1.0  0.25478  0.12744  0.70835  1.0000
  C   C138      1.0  0.35028  0.21495  0.68112  1.0000
  H   H171      1.0  0.33582  0.18549  0.70262  1.0000
  H   H172      1.0  0.34276  0.23041  0.68607  1.0000
  H   H173      1.0  0.36497  0.20573  0.68648  1.0000
  H   H174      1.0  0.35749  0.22104  0.67043  1.0000
  H   H175      1.0  0.36881  0.16735  0.69022  1.0000
  N   N10       1.0  0.01372  0.16930  0.69747  1.0000
  C   C139      1.0  0.42094  0.00844  0.48703  1.0000
  H   H176      1.0  0.45774  0.99885  0.56261  1.0000
  C   C140      1.0  0.41857  0.04324  0.58557  1.0000
  H   H177      1.0  0.23868  0.12602  0.65081  1.0000
  H   H178      1.0  0.22720  0.05042  0.69225  1.0000
  C   C141      1.0  0.47309  0.00628  0.58388  1.0000
  H   H179      1.0  0.39305  0.07371  0.58921  1.0000
  C   C142      1.0  0.06814  0.19384  0.65722  1.0000
  H   H180      1.0  0.02711  0.21149  0.68915  1.0000
  C   C143      1.0  0.34366  0.17923  0.67615  1.0000
  N   N11       1.0  0.33262  0.20060  0.68183  1.0000
  H   H181      1.0  0.02318  0.25425  0.70231  1.0000
  C   C144      1.0  0.23711  0.07636  0.70931  1.0000
  H   H182      1.0  0.18376  0.15123  0.67132  1.0000
  H   H183      1.0  0.39610  0.06305  0.67214  1.0000
  S   S44       1.0  0.12063  0.26496  0.70904  1.0000
  H   H184      1.0  0.00462  0.13905  0.65979  1.0000
  C   C145      1.0  0.23588  0.23359  0.62591  1.0000
  C   C146      1.0  0.24951  0.08047  0.71866  1.0000
  C   C147      1.0  0.99930  0.08665  0.68824  1.0000
  H   H185      1.0  0.08020  0.17751  0.65708  1.0000
  Fe  Fe27      1.0  0.40585  0.10641  0.70806  1.0000
  C   C148      1.0  0.03031  0.27812  0.65957  1.0000
  H   H186      1.0  0.30796  0.04596  0.61130  1.0000
  H   H187      1.0  0.35751  0.05855  0.56864  1.0000
  S   S45       1.0  0.37436  0.12266  0.72123  1.0000
  C   C149      1.0  0.38713  0.29979  0.49140  1.0000
  H   H188      1.0  0.20143  0.18660  0.66695  1.0000
  H   H189      1.0  0.24696  0.07166  0.69984  1.0000
  H   H190      1.0  0.38061  0.27218  0.52924  1.0000
  H   H191      1.0  0.00657  0.24897  0.67836  1.0000
  C   C150      1.0  0.37300  0.14354  0.67664  1.0000
  H   H192      1.0  0.25177  0.20423  0.61597  1.0000
  H   H193      1.0  0.39416  0.04143  0.70950  1.0000
  S   S46       1.0  0.32682  0.27721  0.68241  1.0000
  Fe  Fe28      1.0  0.09936  0.28395  0.69297  1.0000
  C   C151      1.0  0.37254  0.06400  0.72941  1.0000
  C   C152      1.0  0.01959  0.27216  0.69770  1.0000
  C   C153      1.0  0.21506  0.24695  0.63186  1.0000
  H   H194      1.0  0.29900  0.20618  0.67545  1.0000
  C   C154      1.0  0.32713  0.03519  0.70734  1.0000
  S   S47       1.0  0.06643  0.26962  0.69476  1.0000
  H   H195      1.0  0.45091  0.02877  0.56360  1.0000
  N   N12       1.0  0.21538  0.26739  0.63791  1.0000
  C   C155      1.0  0.29914  0.01701  0.59616  1.0000
  H   H196      1.0  0.39089  0.24733  0.63352  1.0000
  C   C156      1.0  0.05884  0.23319  0.66166  1.0000
  H   H197      1.0  0.25269  0.23792  0.62539  1.0000
  H   H198      1.0  0.29617  0.00227  0.60437  1.0000
  C   C157      1.0  0.41570  0.26384  0.66570  1.0000
  H   H199      1.0  0.38824  0.24783  0.51167  1.0000
  C   C158      1.0  0.29009  0.04234  0.61266  1.0000
  C   C159      1.0  0.30662  0.04434  0.72903  1.0000
  C   C160      1.0  0.20912  0.05187  0.69780  1.0000
  H   H200      1.0  0.25621  0.02183  0.60914  1.0000
  H   H201      1.0  0.99759  0.03028  0.66417  1.0000
  C   C161      1.0  0.44404  0.31120  0.48968  1.0000
  H   H202      1.0  0.00000  0.13847  0.69822  1.0000
  C   C162      1.0  0.03788  0.19958  0.69578  1.0000
  H   H203      1.0  0.17097  0.06342  0.71606  1.0000
  C   C163      1.0  0.28143  0.10134  0.58179  1.0000
  C   C164      1.0  0.21893  0.25949  0.65218  1.0000
  C   C165      1.0  0.17432  0.07609  0.70671  1.0000
  H   H204      1.0  0.37183  0.27415  0.65934  1.0000
  H   H205      1.0  0.21566  0.15132  0.70814  1.0000
  H   H206      1.0  0.43273  0.25249  0.66713  1.0000
  N   N13       1.0  0.28470  0.03918  0.59960  1.0000
  H   H207      1.0  0.19232  0.30662  0.66914  1.0000
  H   H208      1.0  0.38837  0.27561  0.70823  1.0000
  C   C166      1.0  0.35882  0.30578  0.67698  1.0000
  C   C167      1.0  0.39050  0.21203  0.64161  1.0000
  C   C168      1.0  0.37390  0.02280  0.57219  1.0000
  H   H209      1.0  0.25494  0.03542  0.59182  1.0000
  C   C169      1.0  0.00039  0.25575  0.66848  1.0000
  S   S48       1.0  0.32017  0.31785  0.64590  1.0000
  S   S49       1.0  0.45493  0.27684  0.72016  1.0000
  H   H210      1.0  0.19453  0.30123  0.64012  1.0000
  C   C170      1.0  0.05653  0.20715  0.69886  1.0000
  H   H211      1.0  0.02539  0.26710  0.63562  1.0000
  C   C171      1.0  0.35037  0.28732  0.68562  1.0000
  H   H212      1.0  0.35434  0.26242  0.70377  1.0000
  C   C172      1.0  0.19413  0.23877  0.63261  1.0000
  H   H213      1.0  0.39714  0.29329  0.53970  1.0000
  S   S50       1.0  0.38083  0.02103  0.55467  1.0000
  H   H214      1.0  0.44261  0.00434  0.61062  1.0000
  C   C173      1.0  0.34670  0.15215  0.66036  1.0000
  H   H215      1.0  0.16531  0.07223  0.69902  1.0000
  C   C174      1.0  0.38308  0.31405  0.50126  1.0000
  S   S51       1.0  0.36850  0.29843  0.61581  1.0000
  Fe  Fe29      1.0  0.28529  0.31344  0.64250  1.0000
  C   C175      1.0  0.36095  0.02678  0.60000  1.0000
  C   C176      1.0  0.20242  0.09279  0.68968  1.0000
  C   C177      1.0  0.39480  0.23385  0.64195  1.0000
  C   C178      1.0  0.38230  0.28048  0.51878  1.0000
  H   H216      1.0  0.20470  0.25081  0.65825  1.0000
  C   C179      1.0  0.21435  0.17897  0.65886  1.0000
  H   H217      1.0  0.39739  0.22984  0.70754  1.0000
  C   C180      1.0  0.44606  0.01187  0.56844  1.0000
  H   H218      1.0  0.09085  0.20956  0.66492  1.0000
  N   N14       1.0  0.40812  0.26158  0.65303  1.0000
  S   S52       1.0  0.46053  0.00231  0.49850  1.0000
  S   S53       1.0  0.35282  0.02834  0.61752  1.0000
  C   C181      1.0  0.40490  0.19737  0.66278  1.0000
  C   C182      1.0  0.38013  0.28410  0.69955  1.0000
  H   H219      1.0  0.01183  0.05401  0.65613  1.0000
  H   H220      1.0  0.17763  0.24722  0.63748  1.0000
  H   H221      1.0  0.41645  0.03104  0.62455  1.0000
  C   C183      1.0  0.06649  0.17091  0.71331  1.0000
  H   H222      1.0  0.41808  0.28174  0.66567  1.0000
  C   C184      1.0  0.30743  0.07688  0.56699  1.0000
  H   H223      1.0  0.23430  0.28352  0.61955  1.0000
  C   C185      1.0  0.41739  0.03454  0.61363  1.0000
  H   H224      1.0  0.29011  0.03904  0.71316  1.0000
  H   H225      1.0  0.23552  0.24692  0.65291  1.0000
  C   C186      1.0  0.23447  0.27972  0.63067  1.0000
  S   S54       1.0  0.37583  0.18970  0.71379  1.0000
  C   C187      1.0  0.37320  0.00585  0.59594  1.0000
  Fe  Fe30      1.0  0.44167  0.98750  0.51853  1.0000
  C   C188      1.0  0.07087  0.19282  0.70755  1.0000
  H   H226      1.0  0.37399  0.07441  0.71912  1.0000
  H   H227      1.0  0.41594  0.22076  0.67206  1.0000
  H   H228      1.0  0.21448  0.19186  0.61669  1.0000
  S   S55       1.0  0.13071  0.30978  0.72902  1.0000
  Fe  Fe31      1.0  0.44049  0.12300  0.72100  1.0000
  H   H229      1.0  0.03182  0.16733  0.67722  1.0000
  H   H230      1.0  0.00151  0.16616  0.67933  1.0000
  C   C189      1.0  0.40891  0.21924  0.66334  1.0000
  C   C190      1.0  0.42638  0.26739  0.64150  1.0000
  H   H231      1.0  0.20700  0.18563  0.64932  1.0000
  C   C191      1.0  0.01006  0.31822  0.68565  1.0000
  H   H232      1.0  0.36358  0.03267  0.70365  1.0000
  S   S56       1.0  0.47625  0.13282  0.71738  1.0000
  C   C192      1.0  0.13457  0.12469  0.72603  1.0000
  H   H233      1.0  0.04594  0.14576  0.71489  1.0000
  H   H234      1.0  0.23324  0.29644  0.63419  1.0000
  H   H235      1.0  0.35517  0.29912  0.54078  1.0000
  H   H236      1.0  0.31321  0.04099  0.57386  1.0000
  S   S57       1.0  0.44251  0.00075  0.53739  1.0000
  H   H237      1.0  0.03081  0.13386  0.69748  1.0000
  C   C193      1.0  0.38077  0.30474  0.51531  1.0000
  C   C194      1.0  0.21465  0.20697  0.62097  1.0000
  H   H238      1.0  0.05995  0.22425  0.69448  1.0000
  Fe  Fe32      1.0  0.42349  0.30205  0.71426  1.0000
  H   H239      1.0  0.04189  0.18224  0.65000  1.0000
  C   C195      1.0  0.34830  0.03544  0.71122  1.0000
  C   C196      1.0  0.99687  0.28246  0.69545  1.0000
  H   H240      1.0  0.99959  0.28378  0.64393  1.0000
  Fe  Fe33      1.0  0.13832  0.31011  0.67879  1.0000
  H   H241      1.0  0.42797  0.01197  0.56700  1.0000
  S   S58       1.0  0.10681  0.31843  0.69453  1.0000
  C   C197      1.0  0.03689  0.23683  0.65727  1.0000
  C   C198      1.0  0.29991  0.31535  0.71348  1.0000
  H   H242      1.0  0.39316  0.26504  0.48739  1.0000
  H   H243      1.0  0.00596  0.04970  0.63486  1.0000
  C   C199      1.0  0.07413  0.21199  0.66159  1.0000
  C   C200      1.0  0.29641  0.09881  0.56963  1.0000
  C   C201      1.0  0.43294  0.02296  0.59128  1.0000
  C   C202      1.0  0.34924  0.03969  0.72434  1.0000
  C   C203      1.0  0.04659  0.19664  0.65314  1.0000
  C   C204      1.0  0.03287  0.30791  0.68791  1.0000
  C   C205      1.0  0.17788  0.31011  0.72450  1.0000
  C   C206      1.0  0.17779  0.24536  0.72313  1.0000
  C   C207      1.0  0.16492  0.14740  0.72256  1.0000
  H   H244      1.0  0.41867  0.24564  0.72114  1.0000
  C   C208      1.0  0.43208  0.01924  0.60556  1.0000
  C   C209      1.0  0.40349  0.05417  0.60772  1.0000
  H   H245      1.0  0.17772  0.21352  0.62761  1.0000
  S   S59       1.0  0.41341  0.31150  0.69333  1.0000
  H   H246      1.0  0.31920  0.07492  0.55754  1.0000
  H   H247      1.0  0.01127  0.13934  0.71301  1.0000
  H   H248      1.0  0.40660  0.31300  0.59641  1.0000
  C   C210      1.0  0.99466  0.04926  0.66076  1.0000
  C   C211      1.0  0.36935  0.31587  0.59954  1.0000
  C   C212      1.0  0.37820  0.31305  0.67946  1.0000
  H   H249      1.0  0.19566  0.23820  0.71836  1.0000
  C   C213      1.0  0.01094  0.26637  0.64435  1.0000
  H   H250      1.0  0.40865  0.03019  0.72362  1.0000
  H   H251      1.0  0.48538  0.99420  0.57759  1.0000
  S   S60       1.0  0.42659  0.09000  0.72478  1.0000
  C   C214      1.0  0.35542  0.31699  0.53536  1.0000
  H   H252      1.0  0.47747  0.02376  0.58021  1.0000
  H   H253      1.0  0.26746  0.31070  0.72632  1.0000
  H   H254      1.0  0.29882  0.30377  0.70676  1.0000
  H   H255      1.0  0.41412  0.31110  0.52726  1.0000
  H   H256      1.0  0.48761  0.99648  0.53707  1.0000
  C   C215      1.0  0.19809  0.31409  0.72804  1.0000
  H   H257      1.0  0.49103  0.03785  0.48581  1.0000
  H   H258      1.0  0.38942  0.30714  0.48073  1.0000
  Fe  Fe34      1.0  0.14190  0.12344  0.96324  1.0000
  S   S61       1.0  0.15550  0.10960  0.94359  1.0000
  H   H259      1.0  0.18416  0.05942  0.89121  1.0000
  S   S62       1.0  0.12768  0.16134  0.96265  1.0000
  H   H260      1.0  0.30117  0.22757  0.78239  1.0000
  H   H261      1.0  0.08972  0.28578  0.95090  1.0000
  H   H262      1.0  0.13206  0.29857  0.95003  1.0000
  H   H263      1.0  0.06887  0.11137  0.94455  1.0000
  C   C216      1.0  0.17598  0.30402  0.94148  1.0000
  C   C217      1.0  0.07594  0.06755  0.97548  1.0000
  H   H264      1.0  0.12539  0.30672  0.83175  1.0000
  H   H265      1.0  0.20945  0.26963  0.75902  1.0000
  C   C218      1.0  0.06926  0.01039  0.85136  1.0000
  H   H266      1.0  0.13696  0.30468  0.81426  1.0000
  C   C219      1.0  0.15662  0.31397  0.73315  1.0000
  C   C220      1.0  0.31730  0.30710  0.77635  1.0000
  C   C221      1.0  0.41112  0.22156  0.73932  1.0000
  Fe  Fe35      1.0  0.24386  0.10027  0.77210  1.0000
  S   S63       1.0  0.23385  0.10837  0.79336  1.0000
  S   S64       1.0  0.27535  0.07490  0.76445  1.0000
  Fe  Fe36      1.0  0.20263  0.13396  0.76191  1.0000
  S   S65       1.0  0.18935  0.14586  0.78211  1.0000
  H   H267      1.0  0.27517  0.24976  0.76679  1.0000
  Fe  Fe37      1.0  0.22668  0.14528  0.78311  1.0000
  S   S66       1.0  0.24222  0.17119  0.79003  1.0000
  Fe  Fe38      1.0  0.19711  0.10810  0.79117  1.0000
  S   S67       1.0  0.16824  0.09506  0.80718  1.0000
  S   S68       1.0  0.23942  0.13703  0.76212  1.0000
  S   S69       1.0  0.20770  0.09637  0.77072  1.0000
  S   S70       1.0  0.18745  0.26935  0.80237  1.0000
  Fe  Fe39      1.0  0.11246  0.02646  0.91132  1.0000
  C   C222      1.0  0.99876  0.02010  0.87660  1.0000
  S   S71       1.0  0.11124  0.02950  0.93320  1.0000
  Fe  Fe40      1.0  0.08331  0.03648  0.88889  1.0000
  H   H268      1.0  0.46776  0.19624  0.73803  1.0000
  S   S72       1.0  0.04851  0.05184  0.88254  1.0000
  Fe  Fe41      1.0  0.13596  0.03143  0.88186  1.0000
  S   S73       1.0  0.16798  0.04269  0.86817  1.0000
  H   H269      1.0  0.21286  0.13173  0.82593  1.0000
  S   S74       1.0  0.10864  0.05532  0.89373  1.0000
  C   C223      1.0  0.20782  0.25332  0.75657  1.0000
  S   S75       1.0  0.02242  0.10235  0.94719  1.0000
  H   H270      1.0  0.17240  0.01027  0.83875  1.0000
  C   C224      1.0  0.03305  0.03051  0.88162  1.0000
  C   C225      1.0  0.01112  0.03697  0.87756  1.0000
  H   H271      1.0  0.49143  0.08907  0.73489  1.0000
  C   C226      1.0  0.21366  0.09036  0.73365  1.0000
  C   C227      1.0  0.04596  0.28323  0.97757  1.0000
  H   H272      1.0  0.02834  0.05003  0.95973  1.0000
  H   H273      1.0  0.17435  0.31355  0.96665  1.0000
  C   C228      1.0  0.16885  0.08037  0.82407  1.0000
  C   C229      1.0  0.14784  0.07596  0.83216  1.0000
  C   C230      1.0  0.14730  0.06444  0.84563  1.0000
  C   C231      1.0  0.16782  0.05728  0.85122  1.0000
  C   C232      1.0  0.18883  0.06187  0.84318  1.0000
  C   C233      1.0  0.18938  0.07331  0.82967  1.0000
  H   H274      1.0  0.13184  0.08140  0.82795  1.0000
  H   H275      1.0  0.13101  0.06106  0.85169  1.0000
  H   H276      1.0  0.20483  0.05633  0.84739  1.0000
  H   H277      1.0  0.20572  0.07641  0.82356  1.0000
  C   C234      1.0  0.22636  0.19844  0.79306  1.0000
  C   C235      1.0  0.23840  0.21455  0.79534  1.0000
  C   C236      1.0  0.22653  0.23648  0.79785  1.0000
  C   C237      1.0  0.20239  0.24220  0.79854  1.0000
  C   C238      1.0  0.19023  0.22603  0.79640  1.0000
  C   C239      1.0  0.20226  0.20426  0.79344  1.0000
  H   H278      1.0  0.25698  0.21001  0.79525  1.0000
  H   H279      1.0  0.23598  0.24876  0.79966  1.0000
  H   H280      1.0  0.17156  0.23043  0.79688  1.0000
  H   H281      1.0  0.19291  0.19199  0.79158  1.0000
  C   C240      1.0  0.34982  0.08733  0.76009  1.0000
  C   C241      1.0  0.34259  0.06818  0.76870  1.0000
  C   C242      1.0  0.31958  0.06495  0.77025  1.0000
  C   C243      1.0  0.30321  0.08127  0.76362  1.0000
  C   C244      1.0  0.14178  0.30035  0.95791  1.0000
  C   C245      1.0  0.02645  0.15230  0.96729  1.0000
  H   H282      1.0  0.35500  0.05543  0.77396  1.0000
  H   H283      1.0  0.31444  0.04968  0.77662  1.0000
  C   C246      1.0  0.18654  0.03050  0.92351  1.0000
  H   H284      1.0  0.46130  0.16906  0.77387  1.0000
  H   H285      1.0  0.14580  0.18652  0.83608  1.0000
  S   S76       1.0  0.19014  0.14993  0.74186  1.0000
  H   H286      1.0  0.46130  0.19572  0.76232  1.0000
  C   C247      1.0  0.33350  0.10379  0.75337  1.0000
  C   C248      1.0  0.29270  0.20415  0.76386  1.0000
  H   H287      1.0  0.43815  0.18076  0.76402  1.0000
  H   H288      1.0  0.24738  0.09059  0.73813  1.0000
  H   H289      1.0  0.15834  0.14066  0.81323  1.0000
  H   H290      1.0  0.22015  0.16836  0.82198  1.0000
  C   C249      1.0  0.12098  0.05333  0.93626  1.0000
  C   C250      1.0  0.12670  0.07076  0.92568  1.0000
  C   C251      1.0  0.13654  0.08847  0.92810  1.0000
  C   C252      1.0  0.14034  0.08906  0.94116  1.0000
  C   C253      1.0  0.13350  0.07228  0.95191  1.0000
  C   C254      1.0  0.12387  0.05441  0.94945  1.0000
  H   H291      1.0  0.12370  0.07052  0.91561  1.0000
  H   H292      1.0  0.14134  0.10169  0.91981  1.0000
  H   H293      1.0  0.13672  0.07241  0.96198  1.0000
  H   H294      1.0  0.11960  0.04089  0.95766  1.0000
  H   H295      1.0  0.22483  0.20529  0.82587  1.0000
  H   H296      1.0  0.19103  0.23365  0.83409  1.0000
  H   H297      1.0  0.20695  0.14694  0.80944  1.0000
  H   H298      1.0  0.15174  0.22385  0.83941  1.0000
  H   H299      1.0  0.17823  0.03141  0.89735  1.0000
  C   C255      1.0  0.22199  0.23298  0.76145  1.0000
  C   C256      1.0  0.15545  0.12456  0.74448  1.0000
  C   C257      1.0  0.15546  0.00539  0.84054  1.0000
  Fe  Fe42      1.0  0.39569  0.10815  0.73781  1.0000
  H   H300      1.0  0.19562  0.12138  0.81688  1.0000
  H   H301      1.0  0.12783  0.10566  0.74617  1.0000
  H   H302      1.0  0.15815  0.11868  0.75489  1.0000
  N   N15       1.0  0.31217  0.23838  0.76093  1.0000
  H   H303      1.0  0.34880  0.23761  0.75347  1.0000
  C   C258      1.0  0.31023  0.21668  0.75678  1.0000
  C   C259      1.0  0.46150  0.14307  0.75497  1.0000
  H   H304      1.0  0.18692  0.19956  0.95224  1.0000
  H   H305      1.0  0.34282  0.27564  0.77794  1.0000
  S   S77       1.0  0.22871  0.31292  0.80474  1.0000
  C   C260      1.0  0.33162  0.24918  0.75266  1.0000
  C   C261      1.0  0.39969  0.20323  0.74526  1.0000
  H   H306      1.0  0.37911  0.17997  0.74218  1.0000
  H   H307      1.0  0.17294  0.28471  0.97532  1.0000
  H   H308      1.0  0.20225  0.19437  0.74875  1.0000
  C   C262      1.0  0.01786  0.13816  0.96083  1.0000
  C   C263      1.0  0.45729  0.17812  0.76375  1.0000
  H   H309      1.0  0.01644  0.07014  0.92892  1.0000
  H   H310      1.0  0.05960  0.00187  0.88767  1.0000
  H   H311      1.0  0.17178  0.31627  0.81439  1.0000
  C   C264      1.0  0.01389  0.07920  0.91854  1.0000
  N   N16       1.0  0.17134  0.23185  0.73663  1.0000
  C   C265      1.0  0.18089  0.00869  0.92368  1.0000
  H   H312      1.0  0.18084  0.26902  0.74506  1.0000
  H   H313      1.0  0.28624  0.25890  0.74930  1.0000
  H   H314      1.0  0.32952  0.25389  0.74178  1.0000
  H   H315      1.0  0.23457  0.23346  0.76770  1.0000
  H   H316      1.0  0.18217  0.07769  0.91644  1.0000
  C   C266      1.0  0.06563  0.13714  0.95723  1.0000
  H   H317      1.0  0.44241  0.14625  0.75490  1.0000
  C   C267      1.0  0.03313  0.12292  0.95297  1.0000
  H   H318      1.0  0.21204  0.06608  0.91850  1.0000
  C   C268      1.0  0.13838  0.01788  0.83301  1.0000
  C   C269      1.0  0.02699  0.99230  0.97036  1.0000
  C   C270      1.0  0.15065  0.98682  0.85046  1.0000
  N   N17       1.0  0.47031  0.16499  0.75285  1.0000
  Fe  Fe43      1.0  0.43141  0.26736  0.73951  1.0000
  H   H319      1.0  0.23094  0.02804  0.91188  1.0000
  H   H320      1.0  0.18743  0.05430  0.93727  1.0000
  H   H321      1.0  0.00373  0.05503  0.87502  1.0000
  H   H322      1.0  0.10359  0.02258  0.82955  1.0000
  C   C271      1.0  0.31602  0.23368  0.77526  1.0000
  C   C272      1.0  0.99503  0.04857  0.91474  1.0000
  C   C273      1.0  0.05190  0.21812  0.95262  1.0000
  H   H323      1.0  0.99938  0.13873  0.96214  1.0000
  H   H324      1.0  0.09082  0.24293  0.96176  1.0000
  H   H325      1.0  0.21684  0.01454  0.90239  1.0000
  S   S78       1.0  0.29459  0.29369  0.78622  1.0000
  S   S79       1.0  0.43932  0.29277  0.75069  1.0000
  C   C274      1.0  0.21822  0.03147  0.90471  1.0000
  N   N18       1.0  0.05641  0.28308  0.96317  1.0000
  H   H326      1.0  0.30591  0.15734  0.74777  1.0000
  C   C275      1.0  0.33964  0.29376  0.77377  1.0000
  C   C276      1.0  0.14782  0.24273  0.74274  1.0000
  C   C277      1.0  0.17853  0.29503  0.96536  1.0000
  C   C278      1.0  0.18399  0.03784  0.93628  1.0000
  H   H327      1.0  0.32677  0.04945  0.74282  1.0000
  S   S80       1.0  0.14146  0.00342  0.89996  1.0000
  H   H328      1.0  0.07109  0.99220  0.94297  1.0000
  H   H329      1.0  0.46453  0.13238  0.76490  1.0000
  H   H330      1.0  0.08100  0.30452  0.96353  1.0000
  H   H331      1.0  0.05123  0.00692  0.85468  1.0000
  C   C279      1.0  0.19536  0.25421  0.95090  1.0000
  Fe  Fe44      1.0  0.40877  0.31641  0.74217  1.0000
  C   C280      1.0  0.18286  0.21803  0.95228  1.0000
  H   H332      1.0  0.09081  0.27494  0.96870  1.0000
  N   N19       1.0  0.19542  0.04416  0.91053  1.0000
  H   H333      1.0  0.14303  0.23399  0.75329  1.0000
  H   H334      1.0  0.40034  0.19571  0.75576  1.0000
  H   H335      1.0  0.14614  0.21893  0.95677  1.0000
  H   H336      1.0  0.01817  0.26952  0.95757  1.0000
  C   C281      1.0  0.21967  0.21201  0.75849  1.0000
  C   C282      1.0  0.13828  0.11721  0.73952  1.0000
  H   H337      1.0  0.00762  0.02438  0.97715  1.0000
  C   C283      1.0  0.01557  0.03205  0.91680  1.0000
  S   S81       1.0  0.06112  0.16648  0.97545  1.0000
  H   H338      1.0  0.02771  0.28049  0.97950  1.0000
  H   H339      1.0  0.08735  0.20683  0.95578  1.0000
  C   C284      1.0  0.17039  0.00303  0.94811  1.0000
  H   H340      1.0  0.46969  0.13277  0.74674  1.0000
  C   C285      1.0  0.05519  0.26083  0.95940  1.0000
  H   H341      1.0  0.29771  0.11334  0.74988  1.0000
  C   C286      1.0  0.31016  0.10086  0.75523  1.0000
  N   N20       1.0  0.17809  0.15169  0.82567  1.0000
  C   C287      1.0  0.16910  0.13768  0.83849  1.0000
  C   C288      1.0  0.16065  0.15666  0.81637  1.0000
  C   C289      1.0  0.19936  0.13741  0.81922  1.0000
  C   C290      1.0  0.18220  0.17360  0.82850  1.0000
  C   C291      1.0  0.16329  0.18997  0.83374  1.0000
  C   C292      1.0  0.20465  0.17952  0.82605  1.0000
  C   C293      1.0  0.16650  0.21133  0.83579  1.0000
  C   C294      1.0  0.20767  0.20083  0.82826  1.0000
  C   C295      1.0  0.18863  0.21682  0.83292  1.0000
  H   H342      1.0  0.15222  0.14652  0.84353  1.0000
  H   H343      1.0  0.16611  0.12090  0.83671  1.0000
  H   H344      1.0  0.18161  0.13374  0.84581  1.0000
  H   H345      1.0  0.16603  0.16850  0.80699  1.0000
  H   H346      1.0  0.14312  0.16464  0.82106  1.0000
  H   H347      1.0  0.04848  0.30180  0.94377  1.0000
  C   C296      1.0  0.18854  0.23173  0.74536  1.0000
  H   H348      1.0  0.06018  0.03422  0.94272  1.0000
  C   C297      1.0  0.00825  0.99668  0.87973  1.0000
  C   C298      1.0  0.16875  0.13980  0.73602  1.0000
  H   H349      1.0  0.16832  0.30077  0.93306  1.0000
  C   C299      1.0  0.08060  0.28713  0.96140  1.0000
  H   H350      1.0  0.20466  0.07748  0.90204  1.0000
  C   C300      1.0  0.04336  0.30282  0.95477  1.0000
  C   C301      1.0  0.05709  0.99890  0.95053  1.0000
  H   H351      1.0  0.35957  0.03433  0.75056  1.0000
  H   H352      1.0  0.16114  0.05515  0.90513  1.0000
  C   C302      1.0  0.01650  0.00859  0.91690  1.0000
  C   C303      1.0  0.19136  0.25277  0.74863  1.0000
  S   S82       1.0  0.23854  0.29131  0.77636  1.0000
  C   C304      1.0  0.37240  0.02620  0.74259  1.0000
  H   H353      1.0  0.10658  0.99934  0.95984  1.0000
  C   C305      1.0  0.17202  0.26592  0.95375  1.0000
  H   H354      1.0  0.28023  0.21032  0.77218  1.0000
  C   C306      1.0  0.07267  0.22112  0.95573  1.0000
  H   H355      1.0  0.20975  0.26317  0.94933  1.0000
  C   C307      1.0  0.15429  0.25260  0.95566  1.0000
  Fe  Fe45      1.0  0.20949  0.29636  0.79358  1.0000
  H   H356      1.0  0.33888  0.11871  0.74677  1.0000
  Fe  Fe46      1.0  0.09781  0.14968  0.97718  1.0000
  H   H357      1.0  0.29150  0.27230  0.76247  1.0000
  H   H358      1.0  0.31806  0.24950  0.77869  1.0000
  H   H359      1.0  0.00728  0.07954  0.89317  1.0000
  S   S83       1.0  0.11010  0.01521  0.87558  1.0000
  C   C308      1.0  0.32569  0.20707  0.74594  1.0000
  C   C309      1.0  0.20319  0.21124  0.75058  1.0000
  C   C310      1.0  0.04262  0.00707  0.88465  1.0000
  S   S84       1.0  0.42804  0.23106  0.74862  1.0000
  H   H360      1.0  0.22570  0.04131  0.89501  1.0000
  N   N21       1.0  0.16699  0.29085  0.95464  1.0000
  C   C311      1.0  0.11622  0.01227  0.83564  1.0000
  C   C312      1.0  0.03403  0.25680  0.95671  1.0000
  C   C313      1.0  0.32766  0.04478  0.73297  1.0000
  H   H361      1.0  0.33253  0.26544  0.75606  1.0000
  H   H362      1.0  0.44642  0.17942  0.73858  1.0000
  C   C314      1.0  0.29033  0.25549  0.75979  1.0000
  H   H363      1.0  0.08411  0.13697  0.95562  1.0000
  C   C315      1.0  0.05700  0.12291  0.95080  1.0000
  H   H364      1.0  0.47576  0.16978  0.73108  1.0000
  H   H365      1.0  0.38959  0.02462  0.74578  1.0000
  S   S85       1.0  0.08471  0.00990  0.90747  1.0000
  H   H366      1.0  0.03137  0.03685  0.91803  1.0000
  C   C316      1.0  0.17906  0.04766  0.90070  1.0000
  S   S86       1.0  0.37961  0.08913  0.75751  1.0000
  C   C317      1.0  0.03259  0.23588  0.95318  1.0000
  Fe  Fe47      1.0  0.25680  0.31081  0.78627  1.0000
  H   H367      1.0  0.37526  0.29329  0.76404  1.0000
  C   C318      1.0  0.03027  0.99022  0.88369  1.0000
  C   C319      1.0  0.17276  0.99531  0.93579  1.0000
  H   H368      1.0  0.03015  0.07475  0.91130  1.0000
  H   H369      1.0  0.35684  0.07263  0.73559  1.0000
  C   C320      1.0  0.19871  0.06731  0.91199  1.0000
  C   C321      1.0  0.17618  0.02414  0.94835  1.0000
  H   H370      1.0  0.05059  0.20169  0.95021  1.0000
  H   H371      1.0  0.14648  0.26135  0.74308  1.0000
  C   C322      1.0  0.15978  0.22906  0.95482  1.0000
  H   H372      1.0  0.03252  0.99640  0.91816  1.0000
  C   C323      1.0  0.32403  0.18593  0.74276  1.0000
  C   C324      1.0  0.07438  0.24205  0.95916  1.0000
  H   H373      1.0  0.16467  0.19739  0.74423  1.0000
  C   C325      1.0  0.03313  0.03149  0.95999  1.0000
  C   C326      1.0  0.29119  0.18306  0.76057  1.0000
  C   C327      1.0  0.46493  0.17820  0.73958  1.0000
  C   C328      1.0  0.35814  0.30377  0.76596  1.0000
  C   C329      1.0  0.23781  0.08733  0.73086  1.0000
  H   H374      1.0  0.17399  0.03027  0.95794  1.0000
  H   H375      1.0  0.02422  0.30399  0.95738  1.0000
  H   H376      1.0  0.27798  0.17355  0.76634  1.0000
  C   C330      1.0  0.05039  0.15128  0.96582  1.0000
  H   H377      1.0  0.09469  0.06274  0.97637  1.0000
  H   H378      1.0  0.07195  0.05574  0.96944  1.0000
  H   H379      1.0  0.01617  0.23320  0.95127  1.0000
  H   H380      1.0  0.23052  0.19617  0.76251  1.0000
  H   H381      1.0  0.14230  0.03227  0.82525  1.0000
  H   H382      1.0  0.33194  0.22042  0.77667  1.0000
  C   C331      1.0  0.30691  0.17389  0.75011  1.0000
  C   C332      1.0  0.38773  0.19430  0.73756  1.0000
  H   H383      1.0  0.16388  0.99275  0.95748  1.0000
  H   H384      1.0  0.21857  0.22184  0.94840  1.0000
  C   C333      1.0  0.05099  0.02264  0.95034  1.0000
  H   H385      1.0  0.19778  0.29058  0.96306  1.0000
  H   H386      1.0  0.13405  0.29198  0.96803  1.0000
  H   H387      1.0  0.06852  0.02370  0.84215  1.0000
  H   H388      1.0  0.13610  0.25969  0.95824  1.0000
  H   H389      1.0  0.07334  0.01838  0.85939  1.0000
  S   S87       1.0  0.41169  0.13941  0.73582  1.0000
  H   H390      1.0  0.33944  0.21534  0.73984  1.0000
  H   H391      1.0  0.18263  0.00184  0.91441  1.0000
  H   H392      1.0  0.16427  0.31696  0.83219  1.0000
  C   C334      1.0  0.20062  0.23059  0.95025  1.0000
  Fe  Fe48      1.0  0.11314  0.98931  0.89457  1.0000
  H   H393      1.0  0.19520  0.29958  0.93887  1.0000
  C   C335      1.0  0.99725  0.00091  0.91483  1.0000
  H   H394      1.0  0.36918  0.00852  0.74299  1.0000
  H   H395      1.0  0.20451  0.09628  0.74297  1.0000
  H   H396      1.0  0.07390  0.08512  0.96934  1.0000
  H   H397      1.0  0.33635  0.17868  0.73466  1.0000
  C   C336      1.0  0.16984  0.20851  0.73449  1.0000
  H   H398      1.0  0.38779  0.06494  0.73392  1.0000
  H   H399      1.0  0.29045  0.04811  0.73593  1.0000
  H   H400      1.0  0.13424  0.24193  0.73682  1.0000
  N   N22       1.0  0.08648  0.98907  0.84901  1.0000
  S   S88       1.0  0.11041  0.11216  0.97629  1.0000
  C   C337      1.0  0.11041  0.99399  0.84604  1.0000
  H   H401      1.0  0.01459  0.16338  0.97380  1.0000
  C   C338      1.0  0.02133  0.01663  0.96988  1.0000
  C   C339      1.0  0.12681  0.31672  0.82130  1.0000
  S   S89       1.0  0.39950  0.28985  0.73268  1.0000
  H   H402      1.0  0.08290  0.99365  0.82790  1.0000
  H   H403      1.0  0.01185  0.09798  0.91882  1.0000
  H   H404      1.0  0.03628  0.09575  0.98018  1.0000
  Fe  Fe49      1.0  0.46103  0.30415  0.73070  1.0000
  H   H405      1.0  0.00491  0.60140  0.21469  1.0000
  S   S90       1.0  0.40627  0.63091  0.15624  1.0000
  H   H406      1.0  0.08224  0.41390  0.03929  1.0000
  Fe  Fe50      1.0  0.38901  0.60027  0.16295  1.0000
  S   S91       1.0  0.38118  0.58592  0.14568  1.0000
  Fe  Fe51      1.0  0.11556  0.53434  0.03843  1.0000
  S   S92       1.0  0.15304  0.51708  0.03742  1.0000
  S   S93       1.0  0.10174  0.56847  0.02655  1.0000
  Fe  Fe52      1.0  0.09873  0.49662  0.06011  1.0000
  S   S94       1.0  0.13484  0.47611  0.06055  1.0000
  S   S95       1.0  0.07031  0.48462  0.07612  1.0000
  Fe  Fe53      1.0  0.14516  0.51022  0.06028  1.0000
  S   S96       1.0  0.16117  0.51450  0.07807  1.0000
  Fe  Fe54      1.0  0.13891  0.48490  0.03786  1.0000
  S   S97       1.0  0.15367  0.46235  0.02166  1.0000
  S   S98       1.0  0.10859  0.52998  0.06106  1.0000
  S   S99       1.0  0.10189  0.50289  0.03751  1.0000
  Fe  Fe55      1.0  0.20524  0.61321  0.12943  1.0000
  S   S100      1.0  0.22466  0.57768  0.12653  1.0000
  S   S101      1.0  0.17091  0.61704  0.14341  1.0000
  S   S102      1.0  0.11275  0.38074  0.98884  1.0000
  S   S103      1.0  0.26476  0.60328  0.10622  1.0000
  Fe  Fe56      1.0  0.12040  0.35332  0.00652  1.0000
  Fe  Fe57      1.0  0.23125  0.59294  0.10441  1.0000
  S   S104      1.0  0.22886  0.57870  0.08557  1.0000
  Fe  Fe58      1.0  0.25621  0.59095  0.12860  1.0000
  S   S105      1.0  0.27817  0.57386  0.14497  1.0000
  S   S106      1.0  0.20942  0.62768  0.10728  1.0000
  S   S107      1.0  0.23603  0.62525  0.13308  1.0000
  H   H407      1.0  0.16483  0.49465  0.99383  1.0000
  H   H408      1.0  0.18653  0.63865  0.06062  1.0000
  N   N23       1.0  0.05446  0.40593  0.03132  1.0000
  H   H409      1.0  0.00598  0.36672  0.99400  1.0000
  H   H410      1.0  0.07868  0.38436  0.04374  1.0000
  C   C340      1.0  0.49101  0.59657  0.18415  1.0000
  C   C341      1.0  0.17969  0.53295  0.07980  1.0000
  C   C342      1.0  0.18122  0.53619  0.09290  1.0000
  C   C343      1.0  0.19602  0.55025  0.09486  1.0000
  C   C344      1.0  0.20964  0.56108  0.08371  1.0000
  C   C345      1.0  0.20815  0.55777  0.07062  1.0000
  C   C346      1.0  0.19322  0.54385  0.06865  1.0000
  H   H411      1.0  0.17100  0.52770  0.10161  1.0000
  H   H412      1.0  0.19707  0.55253  0.10498  1.0000
  H   H413      1.0  0.21874  0.56594  0.06195  1.0000
  H   H414      1.0  0.19273  0.54105  0.05856  1.0000
  C   C347      1.0  0.04930  0.47300  0.07111  1.0000
  C   C348      1.0  0.03950  0.45586  0.08029  1.0000
  H   H415      1.0  0.34543  0.61786  0.11790  1.0000
  H   H416      1.0  0.18342  0.61949  0.08446  1.0000
  C   C349      1.0  0.04136  0.48115  0.05864  1.0000
  H   H417      1.0  0.04548  0.44958  0.08994  1.0000
  H   H418      1.0  0.29845  0.63516  0.10699  1.0000
  H   H419      1.0  0.21370  0.55791  0.16072  1.0000
  H   H420      1.0  0.04873  0.49460  0.05158  1.0000
  C   C350      1.0  0.11737  0.57489  0.01027  1.0000
  C   C351      1.0  0.14127  0.56658  0.00752  1.0000
  H   H421      1.0  0.43871  0.55999  0.12678  1.0000
  C   C352      1.0  0.05827  0.60267  0.22198  1.0000
  C   C353      1.0  0.14845  0.57150  0.04834  1.0000
  C   C354      1.0  0.15133  0.62922  0.16811  1.0000
  H   H422      1.0  0.15041  0.55622  0.01544  1.0000
  H   H423      1.0  0.14560  0.39607  0.00269  1.0000
  C   C355      1.0  0.21579  0.57535  0.20152  1.0000
  C   C356      1.0  0.16336  0.62000  0.05527  1.0000
  C   C357      1.0  0.13351  0.39189  0.02418  1.0000
  C   C358      1.0  0.14252  0.40382  0.01175  1.0000
  C   C359      1.0  0.14863  0.42537  0.01114  1.0000
  C   C360      1.0  0.14513  0.43553  0.02285  1.0000
  C   C361      1.0  0.13560  0.42387  0.03524  1.0000
  C   C362      1.0  0.13026  0.40193  0.03593  1.0000
  H   H424      1.0  0.15642  0.43400  0.00156  1.0000
  H   H425      1.0  0.13308  0.43140  0.04436  1.0000
  H   H426      1.0  0.12363  0.39267  0.04562  1.0000
  C   C363      1.0  0.35216  0.58372  0.14542  1.0000
  C   C364      1.0  0.34683  0.57698  0.13411  1.0000
  C   C365      1.0  0.32394  0.57507  0.13358  1.0000
  C   C366      1.0  0.30628  0.57929  0.14453  1.0000
  C   C367      1.0  0.31165  0.58574  0.15591  1.0000
  C   C368      1.0  0.33443  0.58827  0.15628  1.0000
  H   H427      1.0  0.36050  0.57306  0.12576  1.0000
  H   H428      1.0  0.32012  0.56944  0.12492  1.0000
  H   H429      1.0  0.29822  0.58864  0.16453  1.0000
  H   H430      1.0  0.33833  0.59321  0.16511  1.0000
  C   C369      1.0  0.18976  0.58012  0.18002  1.0000
  C   C370      1.0  0.01762  0.60447  0.22006  1.0000
  H   H431      1.0  0.13918  0.61811  0.16830  1.0000
  H   H432      1.0  0.15889  0.58997  0.09274  1.0000
  C   C371      1.0  0.14185  0.58531  0.98408  1.0000
  S   S108      1.0  0.14145  0.32648  0.99386  1.0000
  Fe  Fe59      1.0  0.08146  0.36541  0.99005  1.0000
  H   H433      1.0  0.33809  0.63206  0.10168  1.0000
  C   C372      1.0  0.10577  0.58867  0.99997  1.0000
  H   H434      1.0  0.45905  0.52907  0.15069  1.0000
  C   C373      1.0  0.42997  0.61482  0.22193  1.0000
  H   H435      1.0  0.01706  0.47864  0.04594  1.0000
  N   N24       1.0  0.13107  0.50981  0.98842  1.0000
  H   H436      1.0  0.14625  0.51169  0.00569  1.0000
  C   C374      1.0  0.36559  0.62199  0.22160  1.0000
  H   H437      1.0  0.12753  0.60435  0.03035  1.0000
  H   H438      1.0  0.45219  0.55074  0.16135  1.0000
  H   H439      1.0  0.01672  0.34982  0.02350  1.0000
  H   H440      1.0  0.08035  0.38455  0.01899  1.0000
  C   C375      1.0  0.45074  0.54738  0.15124  1.0000
  N   N25       1.0  0.31822  0.64772  0.11880  1.0000
  H   H441      1.0  0.15561  0.60895  0.03111  1.0000
  C   C376      1.0  0.11794  0.59361  0.98682  1.0000
  H   H442      1.0  0.01511  0.43288  0.08405  1.0000
  H   H443      1.0  0.10241  0.59132  0.04919  1.0000
  H   H444      1.0  0.30090  0.61849  0.12347  1.0000
  C   C377      1.0  0.07048  0.40256  0.01844  1.0000
  C   C378      1.0  0.49128  0.61287  0.17231  1.0000
  H   H445      1.0  0.09831  0.53167  0.98504  1.0000
  C   C379      1.0  0.14801  0.59218  0.07345  1.0000
  C   C380      1.0  0.15355  0.57209  0.99448  1.0000
  H   H446      1.0  0.29024  0.64256  0.16552  1.0000
  C   C381      1.0  0.02210  0.39012  0.04767  1.0000
  H   H447      1.0  0.13285  0.47357  0.99623  1.0000
  C   C382      1.0  0.11359  0.53123  0.98991  1.0000
  H   H448      1.0  0.03010  0.43322  0.02190  1.0000
  H   H449      1.0  0.06103  0.40659  0.00960  1.0000
  H   H450      1.0  0.46482  0.56970  0.11820  1.0000
  C   C383      1.0  0.06907  0.40252  0.04206  1.0000
  H   H451      1.0  0.21847  0.57416  0.22248  1.0000
  H   H452      1.0  0.10363  0.61261  0.05911  1.0000
  H   H453      1.0  0.11478  0.49206  0.00719  1.0000
  H   H454      1.0  0.05376  0.44262  0.02659  1.0000
  C   C384      1.0  0.29908  0.63631  0.11770  1.0000
  S   S109      1.0  0.08743  0.33965  0.00856  1.0000
  Fe  Fe60      1.0  0.39171  0.59943  0.19233  1.0000
  C   C385      1.0  0.43992  0.63169  0.21256  1.0000
  H   H455      1.0  0.04566  0.37415  0.01676  1.0000
  H   H456      1.0  0.16580  0.62876  0.04495  1.0000
  H   H457      1.0  0.04719  0.59086  0.20604  1.0000
  C   C386      1.0  0.45767  0.55788  0.12710  1.0000
  H   H458      1.0  0.10455  0.48890  0.99238  1.0000
  C   C387      1.0  0.03501  0.37518  0.02652  1.0000
  H   H459      1.0  0.08376  0.41383  0.01615  1.0000
  S   S110      1.0  0.40895  0.63017  0.18830  1.0000
  C   C388      1.0  0.04157  0.59856  0.21517  1.0000
  H   H460      1.0  0.36957  0.62957  0.21110  1.0000
  Fe  Fe61      1.0  0.11268  0.61281  0.22258  1.0000
  C   C389      1.0  0.04170  0.43010  0.02968  1.0000
  S   S111      1.0  0.46750  0.62117  0.16329  1.0000
  S   S112      1.0  0.15139  0.60853  0.21548  1.0000
  H   H461      1.0  0.14017  0.56527  0.04122  1.0000
  N   N26       1.0  0.11814  0.47300  0.10421  1.0000
  C   C390      1.0  0.14364  0.46653  0.10004  1.0000
  C   C391      1.0  0.10713  0.45581  0.10034  1.0000
  C   C392      1.0  0.10967  0.49580  0.09641  1.0000
  C   C393      1.0  0.11291  0.47446  0.11886  1.0000
  C   C394      1.0  0.09811  0.46110  0.12828  1.0000
  C   C395      1.0  0.12251  0.48993  0.12408  1.0000
  C   C396      1.0  0.09341  0.46316  0.14205  1.0000
  C   C397      1.0  0.11768  0.49185  0.13785  1.0000
  C   C398      1.0  0.10317  0.47849  0.14682  1.0000
  H   H462      1.0  0.15081  0.44977  0.10594  1.0000
  H   H463      1.0  0.14823  0.46501  0.08907  1.0000
  H   H464      1.0  0.15324  0.47961  0.10141  1.0000
  H   H465      1.0  0.11308  0.43807  0.10558  1.0000
  H   H466      1.0  0.11152  0.45521  0.08924  1.0000
  H   H467      1.0  0.08780  0.46030  0.10247  1.0000
  H   H468      1.0  0.11859  0.50946  0.09771  1.0000
  H   H469      1.0  0.11281  0.49525  0.08537  1.0000
  H   H470      1.0  0.09061  0.50148  0.09940  1.0000
  H   H471      1.0  0.08988  0.44900  0.12528  1.0000
  H   H472      1.0  0.13379  0.50077  0.11751  1.0000
  H   H473      1.0  0.08207  0.45284  0.14907  1.0000
  H   H474      1.0  0.12521  0.50383  0.14157  1.0000
  H   H475      1.0  0.09942  0.48007  0.15748  1.0000
  H   H476      1.0  0.24198  0.55421  0.16479  1.0000
  H   H477      1.0  0.99942  0.49850  0.07783  1.0000
  C   C399      1.0  0.22771  0.57379  0.18811  1.0000
  C   C400      1.0  0.22327  0.55641  0.16933  1.0000
  H   H478      1.0  0.22055  0.54031  0.17642  1.0000
  H   H479      1.0  0.21564  0.61321  0.17159  1.0000
  Fe  Fe62      1.0  0.14530  0.64711  0.21175  1.0000
  H   H480      1.0  0.45831  0.59987  0.13333  1.0000
  C   C401      1.0  0.37038  0.59802  0.22539  1.0000
  H   H481      1.0  0.18117  0.58230  0.17093  1.0000
  H   H482      1.0  0.26265  0.56851  0.17631  1.0000
  H   H483      1.0  0.18421  0.56505  0.18714  1.0000
  H   H484      1.0  0.13720  0.63678  0.18822  1.0000
  S   S113      1.0  0.12647  0.36436  0.02541  1.0000
  H   H485      1.0  0.21200  0.60041  0.15775  1.0000
  S   S114      1.0  0.36375  0.61582  0.17964  1.0000
  N   N27       1.0  0.21549  0.57685  0.17635  1.0000
  C   C402      1.0  0.25240  0.56970  0.18624  1.0000
  H   H486      1.0  0.18251  0.59599  0.18466  1.0000
  C   C403      1.0  0.22103  0.59747  0.16670  1.0000
  C   C404      1.0  0.00542  0.37597  0.05134  1.0000
  S   S115      1.0  0.04651  0.38733  0.98855  1.0000
  Fe  Fe63      1.0  0.43098  0.61425  0.17094  1.0000
  H   H487      1.0  0.48021  0.57168  0.16089  1.0000
  Fe  Fe64      1.0  0.24212  0.63688  0.11069  1.0000
  H   H488      1.0  0.23989  0.59583  0.16266  1.0000
  C   C405      1.0  0.01397  0.45472  0.06467  1.0000
  S   S116      1.0  0.41599  0.58180  0.17603  1.0000
  C   C406      1.0  0.17536  0.62598  0.06419  1.0000
  H   H489      1.0  0.35479  0.64433  0.10999  1.0000
  H   H490      1.0  0.43177  0.54920  0.15104  1.0000
  C   C407      1.0  0.15971  0.59863  0.08232  1.0000
  H   H491      1.0  0.19706  0.57853  0.20398  1.0000
  N   N28       1.0  0.13712  0.59528  0.05041  1.0000
  C   C408      1.0  0.14921  0.60287  0.05968  1.0000
  H   H492      1.0  0.11008  0.58226  0.06558  1.0000
  H   H493      1.0  0.14741  0.55905  0.05798  1.0000
  H   H494      1.0  0.10720  0.53298  0.00077  1.0000
  S   S117      1.0  0.38416  0.58006  0.21336  1.0000
  C   C409      1.0  0.44966  0.58725  0.14104  1.0000
  H   H495      1.0  0.44954  0.59186  0.15107  1.0000
  C   C410      1.0  0.15029  0.63969  0.17942  1.0000
  H   H496      1.0  0.47562  0.58920  0.18829  1.0000
  C   C411      1.0  0.25216  0.56882  0.21013  1.0000
  C   C412      1.0  0.22794  0.57289  0.21232  1.0000
  C   C413      1.0  0.02336  0.47224  0.05550  1.0000
  H   H497      1.0  0.05885  0.40667  0.05190  1.0000
  H   H498      1.0  0.16722  0.57055  0.04408  1.0000
  C   C414      1.0  0.01333  0.36701  0.98338  1.0000
  C   C415      1.0  0.13762  0.60999  0.03685  1.0000
  H   H499      1.0  0.03054  0.43441  0.03925  1.0000
  C   C416      1.0  0.17354  0.61532  0.07767  1.0000
  C   C417      1.0  0.03750  0.39015  0.03515  1.0000
  H   H500      1.0  0.99449  0.43986  0.99394  1.0000
  H   H501      1.0  0.15965  0.52559  0.98993  1.0000
  H   H502      1.0  0.28324  0.56409  0.19542  1.0000
  C   C418      1.0  0.01834  0.36100  0.03031  1.0000
  C   C419      1.0  0.34007  0.63501  0.11182  1.0000
  C   C420      1.0  0.12029  0.49021  0.99630  1.0000
  H   H503      1.0  0.17209  0.56572  0.99238  1.0000
  S   S118      1.0  0.08823  0.59519  0.21565  1.0000
  H   H504      1.0  0.08727  0.59519  0.00209  1.0000
  C   C421      1.0  0.48661  0.56083  0.14099  1.0000
  H   H505      1.0  0.12985  0.62831  0.03771  1.0000
  C   C422      1.0  0.11230  0.59542  0.05637  1.0000
  N   N29       1.0  0.46172  0.56321  0.14000  1.0000
  H   H506      1.0  0.28177  0.64612  0.12138  1.0000
  C   C423      1.0  0.02224  0.44647  0.07697  1.0000
  H   H507      1.0  0.43108  0.59012  0.13972  1.0000
  Fe  Fe65      1.0  0.38348  0.64498  0.17399  1.0000
  C   C424      1.0  0.26437  0.56723  0.19712  1.0000
  H   H508      1.0  0.02259  0.40131  0.05466  1.0000
  C   C425      1.0  0.16845  0.63248  0.15676  1.0000
  H   H509      1.0  0.13866  0.57817  0.07740  1.0000
  H   H510      1.0  0.46547  0.53971  0.12584  1.0000
  H   H511      1.0  0.19667  0.65031  0.14765  1.0000
  C   C426      1.0  0.18391  0.64709  0.15653  1.0000
  C   C427      1.0  0.30217  0.64418  0.14405  1.0000
  C   C428      1.0  0.00362  0.36134  0.04271  1.0000
  C   C429      1.0  0.32018  0.64842  0.13299  1.0000
  H   H512      1.0  0.00496  0.58283  0.98645  1.0000
  H   H513      1.0  0.12077  0.54697  0.98521  1.0000
  C   C430      1.0  0.30404  0.64618  0.15723  1.0000
  H   H514      1.0  0.45137  0.62586  0.20379  1.0000
  H   H515      1.0  0.99911  0.41115  0.99032  1.0000
  H   H516      1.0  0.43355  0.59712  0.22008  1.0000
  C   C431      1.0  0.15131  0.51054  0.99469  1.0000
  H   H517      1.0  0.26148  0.56689  0.21855  1.0000
  H   H518      1.0  0.28651  0.63908  0.14283  1.0000
  S   S119      1.0  0.10660  0.65125  0.21691  1.0000
  C   C432      1.0  0.49312  0.56604  0.15259  1.0000
  H   H519      1.0  0.20111  0.64959  0.23015  1.0000
  S   S120      1.0  0.42287  0.47717  0.42529  1.0000
  C   C433      1.0  0.41969  0.55108  0.32221  1.0000
  H   H520      1.0  0.42509  0.42808  0.46787  1.0000
  C   C434      1.0  0.32341  0.48845  0.38542  1.0000
  C   C435      1.0  0.41177  0.54601  0.42540  1.0000
  Fe  Fe66      1.0  0.15420  0.61201  0.23668  1.0000
  C   C436      1.0  0.31621  0.45710  0.37647  1.0000
  N   N30       1.0  0.32725  0.47779  0.37297  1.0000
  H   H521      1.0  0.38325  0.48329  0.45590  1.0000
  C   C437      1.0  0.38265  0.51729  0.45905  1.0000
  S   S121      1.0  0.11604  0.61189  0.24428  1.0000
  C   C438      1.0  0.43501  0.52751  0.44289  1.0000
  H   H522      1.0  0.41189  0.35185  0.42029  1.0000
  H   H523      1.0  0.44034  0.51475  0.35683  1.0000
  C   C439      1.0  0.31995  0.48577  0.34882  1.0000
  H   H524      1.0  0.45540  0.36302  0.40254  1.0000
  Fe  Fe67      1.0  0.43923  0.57901  0.45691  1.0000
  S   S122      1.0  0.28042  0.61196  0.31035  1.0000
  Fe  Fe68      1.0  0.32171  0.62818  0.27694  1.0000
  S   S123      1.0  0.30633  0.59610  0.28109  1.0000
  C   C440      1.0  0.38383  0.58854  0.32656  1.0000
  Fe  Fe69      1.0  0.27274  0.61838  0.28895  1.0000
  S   S124      1.0  0.23570  0.62801  0.28425  1.0000
  Fe  Fe70      1.0  0.31554  0.59242  0.30220  1.0000
  S   S125      1.0  0.33453  0.55772  0.31207  1.0000
  H   H525      1.0  0.13204  0.58457  0.30907  1.0000
  S   S126      1.0  0.33315  0.62330  0.29722  1.0000
  Fe  Fe71      1.0  0.44375  0.47540  0.37616  1.0000
  S   S127      1.0  0.42412  0.50483  0.38666  1.0000
  S   S128      1.0  0.47862  0.47956  0.36378  1.0000
  Fe  Fe72      1.0  0.40529  0.44710  0.38628  1.0000
  S   S129      1.0  0.38285  0.47466  0.39765  1.0000
  S   S130      1.0  0.39139  0.41648  0.38337  1.0000
  Fe  Fe73      1.0  0.39305  0.49962  0.37888  1.0000
  S   S131      1.0  0.36753  0.53074  0.37025  1.0000
  Fe  Fe74      1.0  0.41616  0.47716  0.40413  1.0000
  C   C441      1.0  0.38893  0.53120  0.46665  1.0000
  S   S132      1.0  0.41345  0.47198  0.36713  1.0000
  S   S133      1.0  0.43780  0.44771  0.39400  1.0000
  H   H526      1.0  0.17792  0.63558  0.25490  1.0000
  S   S134      1.0  0.28785  0.65044  0.28325  1.0000
  C   C442      1.0  0.31151  0.50038  0.33768  1.0000
  H   H527      1.0  0.36950  0.60275  0.32830  1.0000
  C   C443      1.0  0.40233  0.35832  0.41190  1.0000
  H   H528      1.0  0.36848  0.56980  0.24197  1.0000
  H   H529      1.0  0.32024  0.44673  0.36811  1.0000
  C   C444      1.0  0.42275  0.54758  0.43608  1.0000
  Fe  Fe75      1.0  0.44351  0.61048  0.47614  1.0000
  H   H530      1.0  0.38552  0.54982  0.46377  1.0000
  H   H531      1.0  0.32250  0.44520  0.38541  1.0000
  H   H532      1.0  0.48362  0.32082  0.42222  1.0000
  C   C445      1.0  0.40926  0.64353  0.23567  1.0000
  C   C446      1.0  0.30672  0.51683  0.36209  1.0000
  C   C447      1.0  0.49274  0.47515  0.38834  1.0000
  H   H533      1.0  0.48590  0.37013  0.44891  1.0000
  C   C448      1.0  0.01027  0.61414  0.23196  1.0000
  H   H534      1.0  0.43434  0.36799  0.37625  1.0000
  C   C449      1.0  0.31783  0.49354  0.36140  1.0000
  H   H535      1.0  0.42703  0.32672  0.45866  1.0000
  C   C450      1.0  0.16995  0.62211  0.29557  1.0000
  H   H536      1.0  0.40671  0.60764  0.24052  1.0000
  C   C451      1.0  0.35266  0.47029  0.36921  1.0000
  C   C452      1.0  0.43016  0.32832  0.46851  1.0000
  C   C453      1.0  0.34434  0.55113  0.32806  1.0000
  C   C454      1.0  0.35954  0.53012  0.33123  1.0000
  C   C455      1.0  0.36714  0.52376  0.34395  1.0000
  C   C456      1.0  0.35938  0.53826  0.35378  1.0000
  C   C457      1.0  0.34429  0.55932  0.35058  1.0000
  C   C458      1.0  0.33687  0.56579  0.33780  1.0000
  H   H537      1.0  0.36537  0.51865  0.32379  1.0000
  H   H538      1.0  0.37881  0.50756  0.34613  1.0000
  H   H539      1.0  0.33815  0.57070  0.35807  1.0000
  H   H540      1.0  0.32513  0.58197  0.33554  1.0000
  H   H541      1.0  0.11314  0.63797  0.29080  1.0000
  C   C459      1.0  0.35503  0.60257  0.24886  1.0000
  Fe  Fe76      1.0  0.48633  0.58736  0.45902  1.0000
  H   H542      1.0  0.29477  0.53453  0.32994  1.0000
  H   H543      1.0  0.41555  0.36464  0.46658  1.0000
  H   H544      1.0  0.48574  0.35520  0.36177  1.0000
  H   H545      1.0  0.35120  0.59499  0.25939  1.0000
  H   H546      1.0  0.11000  0.59974  0.29915  1.0000
  H   H547      1.0  0.44322  0.52851  0.45128  1.0000
  C   C460      1.0  0.13761  0.60313  0.27510  1.0000
  H   H548      1.0  0.37449  0.52522  0.45022  1.0000
  H   H549      1.0  0.45191  0.38723  0.36574  1.0000
  C   C461      1.0  0.40294  0.38088  0.40463  1.0000
  S   S135      1.0  0.47258  0.55534  0.46033  1.0000
  H   H550      1.0  0.29696  0.46205  0.37888  1.0000
  C   C462      1.0  0.20139  0.60290  0.25474  1.0000
  C   C463      1.0  0.22166  0.58939  0.25923  1.0000
  C   C464      1.0  0.23337  0.59743  0.26760  1.0000
  C   C465      1.0  0.22469  0.61898  0.27166  1.0000
  C   C466      1.0  0.20503  0.63287  0.26669  1.0000
  C   C467      1.0  0.19349  0.62497  0.25821  1.0000
  H   H551      1.0  0.22789  0.57227  0.25663  1.0000
  H   H552      1.0  0.24844  0.58652  0.27142  1.0000
  H   H553      1.0  0.14995  0.61208  0.26736  1.0000
  C   C468      1.0  0.05085  0.61255  0.23380  1.0000
  C   C469      1.0  0.38872  0.34450  0.40853  1.0000
  H   H554      1.0  0.29034  0.54908  0.35150  1.0000
  C   C470      1.0  0.16677  0.57999  0.28773  1.0000
  C   C471      1.0  0.39039  0.38932  0.39379  1.0000
  C   C472      1.0  0.37712  0.37532  0.39046  1.0000
  C   C473      1.0  0.37603  0.35328  0.39787  1.0000
  C   C474      1.0  0.29815  0.53119  0.35091  1.0000
  H   H555      1.0  0.36745  0.38158  0.38210  1.0000
  H   H556      1.0  0.36538  0.34289  0.39523  1.0000
  H   H557      1.0  0.46022  0.38276  0.46934  1.0000
  H   H558      1.0  0.41317  0.39160  0.40734  1.0000
  C   C475      1.0  0.35090  0.62654  0.24511  1.0000
  H   H559      1.0  0.13666  0.58719  0.27137  1.0000
  S   S136      1.0  0.45401  0.61134  0.45368  1.0000
  H   H560      1.0  0.02144  0.62530  0.24807  1.0000
  H   H561      1.0  0.47532  0.33727  0.39862  1.0000
  C   C476      1.0  0.38760  0.57958  0.31453  1.0000
  H   H562      1.0  0.49352  0.33348  0.37577  1.0000
  N   N31       1.0  0.14531  0.59797  0.28856  1.0000
  C   C477      1.0  0.41475  0.62072  0.23346  1.0000
  H   H563      1.0  0.16402  0.56433  0.28441  1.0000
  H   H564      1.0  0.19825  0.64958  0.26976  1.0000
  H   H565      1.0  0.12014  0.61430  0.27515  1.0000
  C   C478      1.0  0.14857  0.61946  0.29239  1.0000
  C   C479      1.0  0.12724  0.58803  0.29873  1.0000
  C   C480      1.0  0.12988  0.63858  0.29314  1.0000
  C   C481      1.0  0.41248  0.52453  0.42172  1.0000
  C   C482      1.0  0.47739  0.37250  0.47017  1.0000
  H   H566      1.0  0.48169  0.51724  0.42469  1.0000
  N   N32       1.0  0.46885  0.36362  0.38130  1.0000
  H   H567      1.0  0.18909  0.64443  0.30109  1.0000
  S   S137      1.0  0.42584  0.57959  0.47911  1.0000
  H   H568      1.0  0.12472  0.57149  0.29637  1.0000
  C   C483      1.0  0.41605  0.55945  0.33472  1.0000
  C   C484      1.0  0.02698  0.61806  0.23881  1.0000
  N   N33       1.0  0.40437  0.45691  0.47702  1.0000
  H   H569      1.0  0.32855  0.46846  0.34743  1.0000
  H   H570      1.0  0.41179  0.52089  0.35226  1.0000
  H   H571      1.0  0.33063  0.47615  0.39393  1.0000
  H   H572      1.0  0.30496  0.52464  0.37101  1.0000
  H   H573      1.0  0.33231  0.50351  0.38369  1.0000
  H   H574      1.0  0.44412  0.49040  0.44496  1.0000
  H   H575      1.0  0.43692  0.45424  0.46345  1.0000
  H   H576      1.0  0.35726  0.46047  0.36059  1.0000
  C   C485      1.0  0.42392  0.50441  0.42885  1.0000
  C   C486      1.0  0.40044  0.52113  0.47760  1.0000
  H   H577      1.0  0.36043  0.45877  0.37776  1.0000
  H   H578      1.0  0.36151  0.48539  0.36633  1.0000
  C   C487      1.0  0.30059  0.52302  0.33873  1.0000
  C   C488      1.0  0.43540  0.50593  0.43935  1.0000
  C   C489      1.0  0.46125  0.35106  0.39495  1.0000
  C   C490      1.0  0.44779  0.37824  0.37630  1.0000
  H   H579      1.0  0.40224  0.56146  0.42012  1.0000
  C   C491      1.0  0.40550  0.56092  0.31236  1.0000
  N   N34       1.0  0.43099  0.54833  0.34512  1.0000
  C   C492      1.0  0.42407  0.55822  0.35792  1.0000
  C   C493      1.0  0.43000  0.52343  0.34866  1.0000
  C   C494      1.0  0.45543  0.55076  0.33972  1.0000
  H   H580      1.0  0.40804  0.55379  0.30307  1.0000
  C   C495      1.0  0.35601  0.63621  0.23146  1.0000
  H   H581      1.0  0.18530  0.60871  0.29521  1.0000
  C   C496      1.0  0.39767  0.57863  0.33659  1.0000
  C   C497      1.0  0.48393  0.40126  0.37799  1.0000
  C   C498      1.0  0.42360  0.34977  0.47303  1.0000
  H   H582      1.0  0.42547  0.57673  0.35623  1.0000
  H   H583      1.0  0.40593  0.55645  0.36268  1.0000
  H   H584      1.0  0.43535  0.54919  0.36561  1.0000
  H   H585      1.0  0.37445  0.45109  0.46994  1.0000
  H   H586      1.0  0.43719  0.51386  0.34003  1.0000
  H   H587      1.0  0.06353  0.61561  0.23919  1.0000
  H   H588      1.0  0.46254  0.54211  0.33069  1.0000
  H   H589      1.0  0.45693  0.56925  0.33671  1.0000
  H   H590      1.0  0.46712  0.54274  0.34737  1.0000
  S   S138      1.0  0.41951  0.57470  0.44107  1.0000
  H   H591      1.0  0.39321  0.58601  0.34581  1.0000
  H   H592      1.0  0.43332  0.53662  0.32004  1.0000
  C   C499      1.0  0.38779  0.49327  0.46241  1.0000
  H   H593      1.0  0.26908  0.63451  0.24830  1.0000
  H   H594      1.0  0.40342  0.52351  0.41370  1.0000
  H   H595      1.0  0.18104  0.58632  0.28016  1.0000
  C   C500      1.0  0.48663  0.37693  0.38206  1.0000
  H   H596      1.0  0.31390  0.49436  0.32804  1.0000
  H   H597      1.0  0.30458  0.49418  0.38902  1.0000
  S   S139      1.0  0.18503  0.59066  0.24622  1.0000
  H   H598      1.0  0.37619  0.58672  0.30704  1.0000
  C   C501      1.0  0.47892  0.34655  0.37201  1.0000
  C   C502      1.0  0.36487  0.58833  0.23901  1.0000
  H   H599      1.0  0.47581  0.47125  0.39281  1.0000
  H   H600      1.0  0.46577  0.33675  0.37083  1.0000
  S   S140      1.0  0.15003  0.65039  0.23248  1.0000
  C   C503      1.0  0.39919  0.48241  0.47365  1.0000
  C   C504      1.0  0.42053  0.44726  0.46562  1.0000
  H   H601      1.0  0.23622  0.64105  0.23644  1.0000
  H   H602      1.0  0.46875  0.41159  0.37407  1.0000
  H   H603      1.0  0.43936  0.39143  0.38290  1.0000
  S   S141      1.0  0.34054  0.64476  0.25736  1.0000
  Fe  Fe77      1.0  0.11186  0.65015  0.23818  1.0000
  C   C505      1.0  0.49179  0.36537  0.45868  1.0000
  H   H604      1.0  0.41300  0.45158  0.45605  1.0000
  H   H605      1.0  0.48877  0.49725  0.44472  1.0000
  C   C506      1.0  0.17243  0.64277  0.29898  1.0000
  Fe  Fe78      1.0  0.29755  0.64290  0.30385  1.0000
  H   H606      1.0  0.44657  0.34229  0.39502  1.0000
  H   H607      1.0  0.17294  0.57427  0.29770  1.0000
  C   C507      1.0  0.38259  0.44763  0.47924  1.0000
  H   H608      1.0  0.49186  0.48390  0.46850  1.0000
  H   H609      1.0  0.48085  0.55363  0.43129  1.0000
  C   C508      1.0  0.25998  0.65202  0.24553  1.0000
  H   H610      1.0  0.39694  0.64800  0.24453  1.0000
  Fe  Fe79      1.0  0.41717  0.41973  0.52912  1.0000
  H   H611      1.0  0.23767  0.35194  0.71456  1.0000
  C   C509      1.0  0.46920  0.47628  0.54992  1.0000
  S   S142      1.0  0.43154  0.35347  0.52968  1.0000
  Fe  Fe80      1.0  0.45352  0.37706  0.53322  1.0000
  H   H612      1.0  0.19611  0.36470  0.71687  1.0000
  S   S143      1.0  0.40558  0.45825  0.52756  1.0000
  S   S144      1.0  0.41813  0.37899  0.49135  1.0000
  S   S145      1.0  0.47390  0.52476  0.49570  1.0000
  H   H613      1.0  0.14355  0.39929  0.68712  1.0000
  C   C510      1.0  0.35061  0.33824  0.58068  1.0000
  C   C511      1.0  0.42466  0.47636  0.51829  1.0000
  H   H614      1.0  0.48011  0.35034  0.51054  1.0000
  H   H615      1.0  0.33251  0.32204  0.59941  1.0000
  C   C512      1.0  0.23125  0.35123  0.68226  1.0000
  N   N35       1.0  0.16773  0.37151  0.69660  1.0000
  H   H616      1.0  0.44040  0.33419  0.50409  1.0000
  C   C513      1.0  0.34919  0.32513  0.59380  1.0000
  H   H617      1.0  0.15815  0.36246  0.71826  1.0000
  C   C514      1.0  0.24223  0.34891  0.69346  1.0000
  C   C515      1.0  0.39228  0.33349  0.57902  1.0000
  Fe  Fe81      1.0  0.42221  0.38148  0.51253  1.0000
  C   C516      1.0  0.22917  0.35400  0.70577  1.0000
  S   S146      1.0  0.14948  0.33686  0.66146  1.0000
  H   H618      1.0  0.39593  0.32212  0.54177  1.0000
  C   C517      1.0  0.34750  0.36241  0.70267  1.0000
  H   H619      1.0  0.40378  0.45481  0.49851  1.0000
  C   C518      1.0  0.37696  0.34399  0.52072  1.0000
  S   S147      1.0  0.47726  0.58856  0.48134  1.0000
  H   H620      1.0  0.32397  0.38455  0.72361  1.0000
  C   C519      1.0  0.22044  0.32212  0.65678  1.0000
  H   H621      1.0  0.33490  0.34518  0.57632  1.0000
  H   H622      1.0  0.37449  0.35430  0.52904  1.0000
  C   C520      1.0  0.16253  0.39211  0.68619  1.0000
  H   H623      1.0  0.47296  0.37230  0.49137  1.0000
  C   C521      1.0  0.42711  0.35195  0.48590  1.0000
  C   C522      1.0  0.45531  0.49522  0.54276  1.0000
  H   H624      1.0  0.43665  0.49679  0.54398  1.0000
  C   C523      1.0  0.22640  0.34051  0.64687  1.0000
  C   C524      1.0  0.45448  0.50627  0.50377  1.0000
  H   H625      1.0  0.26090  0.34310  0.69259  1.0000
  C   C525      1.0  0.17926  0.33781  0.65630  1.0000
  C   C526      1.0  0.41604  0.50000  0.51488  1.0000
  H   H626      1.0  0.13680  0.38328  0.71033  1.0000
  C   C527      1.0  0.19683  0.32085  0.66157  1.0000
  H   H627      1.0  0.42939  0.46069  0.54895  1.0000
  H   H628      1.0  0.15978  0.33748  0.70196  1.0000
  H   H629      1.0  0.40895  0.33659  0.57340  1.0000
  H   H630      1.0  0.38240  0.33223  0.49755  1.0000
  H   H631      1.0  0.43238  0.45352  0.48839  1.0000
  C   C528      1.0  0.43085  0.51489  0.50746  1.0000
  H   H632      1.0  0.39782  0.50681  0.51791  1.0000
  H   H633      1.0  0.42412  0.53314  0.50496  1.0000
  H   H634      1.0  0.48545  0.44558  0.57185  1.0000
  C   C529      1.0  0.41522  0.44835  0.48948  1.0000
  H   H635      1.0  0.36204  0.37210  0.70087  1.0000
  S   S148      1.0  0.39195  0.39993  0.52539  1.0000
  S   S149      1.0  0.42575  0.39516  0.54792  1.0000
  H   H636      1.0  0.19948  0.35986  0.67438  1.0000
  C   C530      1.0  0.44825  0.46769  0.51444  1.0000
  H   H637      1.0  0.46637  0.42596  0.57282  1.0000
  C   C531      1.0  0.15728  0.35288  0.69402  1.0000
  C   C532      1.0  0.20506  0.36140  0.70696  1.0000
  C   C533      1.0  0.18537  0.35614  0.64649  1.0000
  H   H638      1.0  0.17194  0.36933  0.64238  1.0000
  H   H639      1.0  0.21324  0.37191  0.63430  1.0000
  C   C534      1.0  0.46318  0.48268  0.50735  1.0000
  H   H640      1.0  0.43415  0.45616  0.57836  1.0000
  H   H641      1.0  0.00644  0.33606  0.68089  1.0000
  C   C535      1.0  0.20877  0.35758  0.64190  1.0000
  N   N36       1.0  0.34203  0.35234  0.71719  1.0000
  H   H642      1.0  0.48855  0.32289  0.50465  1.0000
  H   H643      1.0  0.42788  0.48239  0.56694  1.0000
  H   H644      1.0  0.48740  0.43017  0.55799  1.0000
  Fe  Fe82      1.0  0.40291  0.37356  0.54305  1.0000
  S   S150      1.0  0.25545  0.34342  0.64056  1.0000
  C   C536      1.0  0.48476  0.36610  0.48282  1.0000
  C   C537      1.0  0.15593  0.37760  0.71002  1.0000
  S   S151      1.0  0.43108  0.33026  0.72321  1.0000
  H   H645      1.0  0.24146  0.34735  0.67264  1.0000
  H   H646      1.0  0.48155  0.47602  0.50475  1.0000
  H   H647      1.0  0.17160  0.40597  0.68707  1.0000
  C   C538      1.0  0.37211  0.34255  0.57323  1.0000
  H   H648      1.0  0.45191  0.47779  0.57598  1.0000
  S   S152      1.0  0.37284  0.35844  0.55655  1.0000
  S   S153      1.0  0.44672  0.40327  0.51487  1.0000
  H   H649      1.0  0.16792  0.38808  0.67569  1.0000
  C   C539      1.0  0.43752  0.33266  0.49419  1.0000
  C   C540      1.0  0.32118  0.34155  0.71966  1.0000
  H   H650      1.0  0.13821  0.35830  0.69396  1.0000
  H   H651      1.0  0.37811  0.34154  0.71960  1.0000
  H   H652      1.0  0.45515  0.44958  0.51720  1.0000
  H   H653      1.0  0.35357  0.34906  0.69595  1.0000
  N   N37       1.0  0.45820  0.45841  0.55956  1.0000
  C   C541      1.0  0.44445  0.44811  0.55249  1.0000
  C   C542      1.0  0.44236  0.46915  0.57069  1.0000
  H   H654      1.0  0.45533  0.44137  0.54342  1.0000
  H   H655      1.0  0.39349  0.34704  0.51404  1.0000
  H   H656      1.0  0.16497  0.34730  0.68409  1.0000
  C   C543      1.0  0.19325  0.36382  0.69574  1.0000
  H   H657      1.0  0.43704  0.43362  0.55918  1.0000
  H   H658      1.0  0.45434  0.52656  0.52820  1.0000
  C   C544      1.0  0.46524  0.51241  0.53371  1.0000
  C   C545      1.0  0.36196  0.33437  0.72086  1.0000
  H   H659      1.0  0.36226  0.35144  0.51500  1.0000
  H   H660      1.0  0.48019  0.41241  0.53041  1.0000
  C   C546      1.0  0.31910  0.32624  0.71115  1.0000
  S   S154      1.0  0.49028  0.36261  0.53653  1.0000
  H   H661      1.0  0.33209  0.37438  0.69910  1.0000
  C   C547      1.0  0.20714  0.35850  0.68335  1.0000
  H   H662      1.0  0.16261  0.39188  0.71256  1.0000
  C   C548      1.0  0.33956  0.37102  0.72530  1.0000
  C   C549      1.0  0.47515  0.43928  0.56580  1.0000
  H   H663      1.0  0.35506  0.37950  0.72279  1.0000
  H   H664      1.0  0.41837  0.42917  0.49190  1.0000
  H   H665      1.0  0.38488  0.32718  0.67265  1.0000
  C   C550      1.0  0.48920  0.51117  0.53139  1.0000
  H   H666      1.0  0.36959  0.45534  0.48734  1.0000
  H   H667      1.0  0.41464  0.49056  0.48962  1.0000
  H   H668      1.0  0.35235  0.32806  0.54340  1.0000
  H   H669      1.0  0.34036  0.32232  0.52976  1.0000
  Fe  Fe83      1.0  0.46089  0.55793  0.48230  1.0000
  S   S155      1.0  0.42596  0.64354  0.48468  1.0000
  H   H670      1.0  0.40567  0.53204  0.48334  1.0000
  H   H671      1.0  0.38575  0.42852  0.48241  1.0000
  H   H672      1.0  0.33253  0.32218  0.70274  1.0000
  C   C551      1.0  0.39089  0.32010  0.59207  1.0000
  H   H673      1.0  0.36588  0.32049  0.71455  1.0000
  C   C552      1.0  0.28239  0.31910  0.72448  1.0000
  C   C553      1.0  0.40556  0.49712  0.48110  1.0000
  C   C554      1.0  0.49360  0.47572  0.54746  1.0000
  N   N38       1.0  0.37758  0.31909  0.52606  1.0000
  Fe  Fe84      1.0  0.13526  0.60043  0.95117  1.0000
  S   S156      1.0  0.15446  0.60886  0.93023  1.0000
  H   H674      1.0  0.07037  0.38227  0.83977  1.0000
  Fe  Fe85      1.0  0.08967  0.60639  0.94085  1.0000
  S   S157      1.0  0.10536  0.61573  0.91908  1.0000
  S   S158      1.0  0.05280  0.60148  0.94783  1.0000
  Fe  Fe86      1.0  0.13421  0.58603  0.92416  1.0000
  S   S159      1.0  0.15244  0.55484  0.91420  1.0000
  C   C555      1.0  0.08867  0.37511  0.83997  1.0000
  C   C556      1.0  0.01354  0.43254  0.85955  1.0000
  S   S160      1.0  0.11723  0.57571  0.94544  1.0000
  C   C557      1.0  0.13676  0.48900  0.96810  1.0000
  Fe  Fe87      1.0  0.10203  0.43174  0.89469  1.0000
  S   S161      1.0  0.07995  0.46262  0.88456  1.0000
  S   S162      1.0  0.08710  0.42367  0.91662  1.0000
  Fe  Fe88      1.0  0.13647  0.42609  0.86888  1.0000
  S   S163      1.0  0.11715  0.45708  0.85678  1.0000
  S   S164      1.0  0.16997  0.40370  0.86038  1.0000
  Fe  Fe89      1.0  0.11327  0.47423  0.87508  1.0000
  S   S165      1.0  0.11094  0.51259  0.87375  1.0000
  Fe  Fe90      1.0  0.08540  0.44295  0.86746  1.0000
  S   S166      1.0  0.05552  0.44581  0.85642  1.0000
  S   S167      1.0  0.13533  0.44461  0.88648  1.0000
  S   S168      1.0  0.10478  0.41066  0.87833  1.0000
  Fe  Fe91      1.0  0.21295  0.34638  0.79281  1.0000
  C   C558      1.0  0.00497  0.51686  0.86913  1.0000
  S   S169      1.0  0.19130  0.37882  0.80059  1.0000
  H   H675      1.0  0.00866  0.61705  0.96979  1.0000
  H   H676      1.0  0.04665  0.51977  0.85435  1.0000
  C   C559      1.0  0.08943  0.51593  0.92938  1.0000
  C   C560      1.0  0.10112  0.36070  0.83072  1.0000
  H   H677      1.0  0.02687  0.55439  0.86555  1.0000
  H   H678      1.0  0.32979  0.35937  0.76061  1.0000
  S   S170      1.0  0.24263  0.34556  0.77511  1.0000
  C   C561      1.0  0.17502  0.39617  0.84393  1.0000
  C   C562      1.0  0.19444  0.37936  0.84024  1.0000
  C   C563      1.0  0.19934  0.37336  0.82713  1.0000
  C   C564      1.0  0.18502  0.38441  0.81752  1.0000
  C   C565      1.0  0.16542  0.40097  0.82127  1.0000
  C   C566      1.0  0.16038  0.40680  0.83441  1.0000
  H   H679      1.0  0.20586  0.37104  0.84753  1.0000
  H   H680      1.0  0.21453  0.36063  0.82437  1.0000
  H   H681      1.0  0.15419  0.40957  0.81393  1.0000
  H   H682      1.0  0.14537  0.41975  0.83710  1.0000
  C   C567      1.0  0.03392  0.43009  0.86502  1.0000
  C   C568      1.0  0.10611  0.47845  0.92361  1.0000
  C   C569      1.0  0.05682  0.45372  0.95632  1.0000
  H   H683      1.0  0.02381  0.46126  0.96910  1.0000
  C   C570      1.0  0.01940  0.40257  0.88379  1.0000
  C   C571      1.0  0.03674  0.41526  0.87723  1.0000
  H   H684      1.0  0.15421  0.35175  0.84099  1.0000
  C   C572      1.0  0.18735  0.44825  0.81254  1.0000
  H   H685      1.0  0.02186  0.39077  0.89310  1.0000
  H   H686      1.0  0.05237  0.41331  0.88155  1.0000
  C   C573      1.0  0.13962  0.54295  0.90361  1.0000
  C   C574      1.0  0.12025  0.55526  0.89782  1.0000
  C   C575      1.0  0.11143  0.54566  0.88878  1.0000
  C   C576      1.0  0.12153  0.52352  0.88575  1.0000
  C   C577      1.0  0.14038  0.51089  0.89191  1.0000
  C   C578      1.0  0.14952  0.52068  0.90070  1.0000
  H   H687      1.0  0.11250  0.57242  0.89999  1.0000
  H   H688      1.0  0.09686  0.55556  0.88404  1.0000
  H   H689      1.0  0.14835  0.49386  0.88961  1.0000
  H   H690      1.0  0.16453  0.51110  0.90513  1.0000
  C   C579      1.0  0.02755  0.56161  0.92165  1.0000
  C   C580      1.0  0.12517  0.35142  0.83063  1.0000
  H   H691      1.0  0.19551  0.62260  0.96334  1.0000
  C   C581      1.0  0.04448  0.58453  0.93806  1.0000
  C   C582      1.0  0.05632  0.58208  0.92499  1.0000
  C   C583      1.0  0.04785  0.57062  0.91677  1.0000
  C   C584      1.0  0.13555  0.37916  0.94505  1.0000
  H   H692      1.0  0.29669  0.34125  0.77345  1.0000
  H   H693      1.0  0.07152  0.58962  0.92099  1.0000
  H   H694      1.0  0.05660  0.56950  0.90650  1.0000
  C   C585      1.0  0.13592  0.35744  0.84042  1.0000
  C   C586      1.0  0.07257  0.50022  0.91431  1.0000
  H   H695      1.0  0.21826  0.64760  0.96586  1.0000
  C   C587      1.0  0.11243  0.38805  0.94994  1.0000
  C   C588      1.0  0.09782  0.40156  0.94104  1.0000
  C   C589      1.0  0.10622  0.40650  0.92723  1.0000
  C   C590      1.0  0.12944  0.39799  0.92226  1.0000
  H   H696      1.0  0.10570  0.38462  0.96059  1.0000
  H   H697      1.0  0.07991  0.40820  0.94487  1.0000
  H   H698      1.0  0.13601  0.40179  0.91156  1.0000
  H   H699      1.0  0.27067  0.33603  0.74197  1.0000
  S   S171      1.0  0.09843  0.34051  0.97591  1.0000
  H   H700      1.0  0.04632  0.31970  0.95632  1.0000
  H   H701      1.0  0.18785  0.44054  0.80368  1.0000
  H   H702      1.0  0.05925  0.38208  0.96047  1.0000
  C   C591      1.0  0.15340  0.50614  0.94576  1.0000
  H   H703      1.0  0.00199  0.55436  0.93917  1.0000
  C   C592      1.0  0.04332  0.37564  0.96447  1.0000
  N   N39       1.0  0.02600  0.51880  0.87422  1.0000
  H   H704      1.0  0.00172  0.46214  0.93386  1.0000
  H   H705      1.0  0.01512  0.47981  0.86859  1.0000
  N   N40       1.0  0.13806  0.33681  0.82043  1.0000
  Fe  Fe92      1.0  0.22255  0.32595  0.76639  1.0000
  C   C593      1.0  0.99599  0.42024  0.86627  1.0000
  S   S172      1.0  0.15735  0.59061  0.96770  1.0000
  C   C594      1.0  0.15665  0.65148  0.95852  1.0000
  C   C595      1.0  0.33248  0.34094  0.76397  1.0000
  H   H706      1.0  0.15889  0.50564  0.93500  1.0000
  H   H707      1.0  0.30380  0.35493  0.73842  1.0000
  H   H708      1.0  0.14730  0.34031  0.79869  1.0000
  H   H709      1.0  0.04303  0.54360  0.87929  1.0000
  C   C596      1.0  0.01127  0.35968  0.96110  1.0000
  H   H710      1.0  0.14623  0.36586  0.80562  1.0000
  H   H711      1.0  0.09000  0.39212  0.85641  1.0000
  C   C597      1.0  0.02507  0.57418  0.94319  1.0000
  N   N41       1.0  0.08377  0.49457  0.92664  1.0000
  H   H712      1.0  0.03916  0.36833  0.94526  1.0000
  C   C598      1.0  0.13782  0.35062  0.80669  1.0000
  C   C599      1.0  0.03043  0.49025  0.95379  1.0000
  H   H713      1.0  0.10910  0.32186  0.81854  1.0000
  H   H714      1.0  0.06333  0.51251  0.86803  1.0000
  H   H715      1.0  0.13187  0.37641  0.85692  1.0000
  C   C600      1.0  0.15594  0.52487  0.95112  1.0000
  C   C601      1.0  0.00207  0.35916  0.97485  1.0000
  C   C602      1.0  0.99806  0.65031  0.95108  1.0000
  H   H716      1.0  0.01636  0.57518  0.95345  1.0000
  C   C603      1.0  0.02695  0.54277  0.87549  1.0000
  H   H717      1.0  0.13944  0.32450  0.75219  1.0000
  S   S173      1.0  0.15332  0.36122  0.95627  1.0000
  S   S174      1.0  0.19189  0.32963  0.78286  1.0000
  C   C604      1.0  0.01669  0.56267  0.93502  1.0000
  C   C605      1.0  0.14413  0.38426  0.93119  1.0000
  H   H718      1.0  0.01218  0.54993  0.88293  1.0000
  C   C606      1.0  0.99455  0.45632  0.94427  1.0000
  C   C607      1.0  0.13875  0.50811  0.97386  1.0000
  H   H719      1.0  0.10206  0.52322  0.92097  1.0000
  S   S175      1.0  0.22232  0.32840  0.74403  1.0000
  C   C608      1.0  0.04594  0.49873  0.94278  1.0000
  Fe  Fe93      1.0  0.12376  0.63762  0.92752  1.0000
  H   H720      1.0  0.14987  0.63956  0.95385  1.0000
  S   S176      1.0  0.10572  0.63040  0.94894  1.0000
  H   H721      1.0  0.11995  0.35720  0.80431  1.0000
  C   C609      1.0  0.20339  0.43862  0.82130  1.0000
  C   C610      1.0  0.14878  0.52591  0.96493  1.0000
  H   H722      1.0  0.08442  0.50679  0.90520  1.0000
  H   H723      1.0  0.01572  0.63959  0.94917  1.0000
  C   C611      1.0  0.00194  0.43379  0.95039  1.0000
  H   H724      1.0  0.10338  0.46256  0.92057  1.0000
  H   H725      1.0  0.01137  0.44390  0.85007  1.0000
  H   H726      1.0  0.18892  0.61939  0.94764  1.0000
  H   H727      1.0  0.99896  0.40875  0.96811  1.0000
  C   C612      1.0  0.09971  0.38067  0.84940  1.0000
  H   H728      1.0  0.08821  0.45010  0.94244  1.0000
  C   C613      1.0  0.14402  0.48815  0.95425  1.0000
  H   H729      1.0  0.17286  0.34159  0.82057  1.0000
  C   C614      1.0  0.02670  0.50460  0.88782  1.0000
  H   H730      1.0  0.09180  0.35719  0.82349  1.0000
  S   S177      1.0  0.37795  0.34052  0.75176  1.0000
  C   C615      1.0  0.03591  0.46782  0.96059  1.0000
  H   H731      1.0  0.02782  0.48598  0.88758  1.0000
  H   H732      1.0  0.09715  0.51263  0.93884  1.0000
  Fe  Fe94      1.0  0.13077  0.35331  0.97633  1.0000
  H   H733      1.0  0.01403  0.50112  0.95704  1.0000
  H   H734      1.0  0.12982  0.47441  0.97408  1.0000
  C   C616      1.0  0.04717  0.51034  0.86486  1.0000
  C   C617      1.0  0.03191  0.36796  0.95588  1.0000
  H   H735      1.0  0.01088  0.51030  0.89507  1.0000
  H   H736      1.0  0.16333  0.53882  0.94446  1.0000
  N   N42       1.0  0.18501  0.47705  0.84861  1.0000
  C   C618      1.0  0.18231  0.45896  0.86067  1.0000
  C   C619      1.0  0.20719  0.48493  0.84783  1.0000
  C   C620      1.0  0.16576  0.49698  0.85078  1.0000
  C   C621      1.0  0.18543  0.46743  0.83621  1.0000
  C   C622      1.0  0.20251  0.44799  0.83295  1.0000
  C   C623      1.0  0.16921  0.47678  0.82709  1.0000
  C   C624      1.0  0.19540  0.63118  0.95262  1.0000
  C   C625      1.0  0.17026  0.46722  0.81545  1.0000
  H   H737      1.0  0.04931  0.49169  0.86438  1.0000
  H   H738      1.0  0.19725  0.44426  0.86070  1.0000
  H   H739      1.0  0.18045  0.46575  0.87032  1.0000
  H   H740      1.0  0.16668  0.45157  0.86098  1.0000
  H   H741      1.0  0.22240  0.47050  0.84746  1.0000
  H   H742      1.0  0.20724  0.49293  0.85682  1.0000
  H   H743      1.0  0.21027  0.49795  0.83860  1.0000
  H   H744      1.0  0.14844  0.49214  0.85183  1.0000
  H   H745      1.0  0.16565  0.50361  0.86029  1.0000
  H   H746      1.0  0.16714  0.51175  0.84237  1.0000
  H   H747      1.0  0.21509  0.43956  0.83953  1.0000
  H   H748      1.0  0.15537  0.49130  0.82877  1.0000
  H   H749      1.0  0.21616  0.42336  0.81921  1.0000
  H   H750      1.0  0.15756  0.47435  0.80872  1.0000
  C   C626      1.0  0.07250  0.46207  0.94532  1.0000
  C   C627      1.0  0.28418  0.33349  0.73327  1.0000
  H   H751      1.0  0.21353  0.63195  0.94751  1.0000
  C   C628      1.0  0.31371  0.33072  0.77130  1.0000
  H   H752      1.0  0.05671  0.51384  0.91528  1.0000
  C   C629      1.0  0.12324  0.37177  0.84967  1.0000
  C   C630      1.0  0.06762  0.48502  0.93828  1.0000
  H   H753      1.0  0.16203  0.37750  0.92736  1.0000
  H   H754      1.0  0.06086  0.43613  0.96153  1.0000
  H   H755      1.0  0.10881  0.60386  0.97882  1.0000
  H   H756      1.0  0.11554  0.47343  0.93245  1.0000
  H   H757      1.0  0.06747  0.48466  0.91220  1.0000
  H   H758      1.0  0.01503  0.42209  0.94476  1.0000
  H   H759      1.0  0.04079  0.51613  0.93774  1.0000
  H   H760      1.0  0.11800  0.48631  0.91501  1.0000
  H   H761      1.0  0.07396  0.52993  0.93046  1.0000
  S   S178      1.0  0.01536  0.54973  0.91094  1.0000
  C   C631      1.0  0.35470  0.32746  0.76117  1.0000
  H   H762      1.0  0.15113  0.54091  0.96854  1.0000
  H   H763      1.0  0.04203  0.50603  0.89212  1.0000
  H   H764      1.0  0.00117  0.61884  0.93488  1.0000
  C   C632      1.0  0.99901  0.40501  0.87832  1.0000
  H   H765      1.0  0.17177  0.32298  0.94162  1.0000
  H   H766      1.0  0.33854  0.36420  0.73632  1.0000
  C   C633      1.0  0.00216  0.49521  0.86673  1.0000
  H   H767      1.0  0.14258  0.47333  0.95010  1.0000
  S   S179      1.0  0.99716  0.34948  0.95058  1.0000
  H   H768      1.0  0.15645  0.64409  0.96944  1.0000
  C   C634      1.0  0.99436  0.60868  0.96982  1.0000
  C   C635      1.0  0.03381  0.37550  0.97816  1.0000
  C   C636      1.0  0.19716  0.32201  0.74022  1.0000
  C   C637      1.0  0.15581  0.32150  0.74543  1.0000
  H   H769      1.0  0.35832  0.32610  0.73163  1.0000
  H   H770      1.0  0.17503  0.33188  0.75828  1.0000
  C   C638      1.0  0.17601  0.32550  0.74896  1.0000
  C   C639      1.0  0.16275  0.32756  0.82205  1.0000
  H   H771      1.0  0.17383  0.65159  0.93199  1.0000
  H   H772      1.0  0.13867  0.31913  0.95834  1.0000
  C   C640      1.0  0.30331  0.34448  0.73101  1.0000
  H   H773      1.0  0.02688  0.83432  0.00893  1.0000
  C   C641      1.0  0.25707  0.72182  0.12815  1.0000
  H   H774      1.0  0.16178  0.73929  0.18451  1.0000
  H   H775      1.0  0.17470  0.81010  0.19777  1.0000
  Fe  Fe95      1.0  0.44638  0.75754  0.17628  1.0000
  S   S180      1.0  0.44404  0.79265  0.16382  1.0000
  H   H776      1.0  0.17698  0.86271  0.04125  1.0000
  Fe  Fe96      1.0  0.43149  0.77575  0.20293  1.0000
  S   S181      1.0  0.42815  0.81250  0.19249  1.0000
  H   H777      1.0  0.21820  0.73010  0.16190  1.0000
  Fe  Fe97      1.0  0.41053  0.80097  0.17799  1.0000
  S   S182      1.0  0.37472  0.81924  0.17347  1.0000
  Fe  Fe98      1.0  0.46205  0.79997  0.17965  1.0000
  H   H778      1.0  0.00756  0.96843  0.00270  1.0000
  S   S183      1.0  0.41183  0.76506  0.18947  1.0000
  S   S184      1.0  0.46645  0.76403  0.19112  1.0000
  Fe  Fe99      1.0  0.15249  0.95110  0.01837  1.0000
  S   S185      1.0  0.13171  0.92957  0.01181  1.0000
  H   H779      1.0  0.35268  0.65470  0.22849  1.0000
  Fe  Fe100     1.0  0.15468  0.92073  0.04618  1.0000
  S   S186      1.0  0.13320  0.89723  0.04204  1.0000
  S   S187      1.0  0.16674  0.91696  0.06651  1.0000
  Fe  Fe101     1.0  0.15554  0.89950  0.02157  1.0000
  S   S188      1.0  0.17203  0.86866  0.01150  1.0000
  Fe  Fe102     1.0  0.11116  0.92936  0.03267  1.0000
  S   S189      1.0  0.07203  0.93797  0.03644  1.0000
  S   S190      1.0  0.17856  0.92084  0.02625  1.0000
  S   S191      1.0  0.13035  0.95300  0.03870  1.0000
  Fe  Fe103     1.0  0.25335  0.82113  0.10870  1.0000
  S   S192      1.0  0.23061  0.80510  0.12685  1.0000
  S   S193      1.0  0.24407  0.83317  0.08739  1.0000
  Fe  Fe104     1.0  0.29565  0.81052  0.12356  1.0000
  S   S194      1.0  0.27625  0.79456  0.14267  1.0000
  S   S195      1.0  0.33442  0.80754  0.12266  1.0000
  Fe  Fe105     1.0  0.26177  0.77716  0.12958  1.0000
  S   S196      1.0  0.25986  0.74029  0.13884  1.0000
  Fe  Fe106     1.0  0.24669  0.82350  0.13870  1.0000
  S   S197      1.0  0.22511  0.83850  0.15672  1.0000
  S   S198      1.0  0.28338  0.79103  0.11047  1.0000
  S   S199      1.0  0.26739  0.84181  0.12044  1.0000
  H   H780      1.0  0.05021  0.71237  0.22891  1.0000
  H   H781      1.0  0.29793  0.86813  0.13003  1.0000
  H   H782      1.0  0.33721  0.85832  0.12029  1.0000
  H   H783      1.0  0.06454  0.89417  0.00196  1.0000
  C   C642      1.0  0.18862  0.89396  0.07217  1.0000
  C   C643      1.0  0.19014  0.88832  0.08608  1.0000
  C   C644      1.0  0.20715  0.86994  0.09093  1.0000
  C   C645      1.0  0.22295  0.85713  0.08188  1.0000
  C   C646      1.0  0.22168  0.86307  0.06794  1.0000
  C   C647      1.0  0.20463  0.88138  0.06310  1.0000
  H   H784      1.0  0.17794  0.89805  0.09317  1.0000
  H   H785      1.0  0.20793  0.86560  0.10167  1.0000
  H   H786      1.0  0.23400  0.85342  0.06086  1.0000
  H   H787      1.0  0.20397  0.88585  0.05236  1.0000
  C   C648      1.0  0.05668  0.92682  0.02690  1.0000
  C   C649      1.0  0.03229  0.93110  0.02951  1.0000
  C   C650      1.0  0.06832  0.91375  0.01681  1.0000
  H   H788      1.0  0.02322  0.94127  0.03728  1.0000
  H   H789      1.0  0.08709  0.91034  0.01474  1.0000
  C   C651      1.0  0.01156  0.82724  0.00929  1.0000
  C   C652      1.0  0.14129  0.83340  0.99242  1.0000
  H   H790      1.0  0.35412  0.88014  0.11305  1.0000
  H   H791      1.0  0.26506  0.74464  0.10949  1.0000
  H   H792      1.0  0.37622  0.87126  0.13090  1.0000
  H   H793      1.0  0.26479  0.86046  0.14690  1.0000
  H   H794      1.0  0.20361  0.73090  0.17903  1.0000
  H   H795      1.0  0.05134  0.65765  0.21928  1.0000
  H   H796      1.0  0.21680  0.83966  0.21576  1.0000
  C   C653      1.0  0.12606  0.84221  0.05542  1.0000
  C   C654      1.0  0.45719  0.68538  0.21081  1.0000
  N   N43       1.0  0.16990  0.83252  0.05540  1.0000
  H   H797      1.0  0.44629  0.69418  0.21915  1.0000
  C   C655      1.0  0.03123  0.90826  0.01255  1.0000
  H   H798      1.0  0.15301  0.83640  0.07582  1.0000
  C   C656      1.0  0.36353  0.81192  0.16037  1.0000
  C   C657      1.0  0.33947  0.81751  0.16021  1.0000
  C   C658      1.0  0.33024  0.81490  0.14902  1.0000
  C   C659      1.0  0.34509  0.80736  0.13771  1.0000
  C   C660      1.0  0.36907  0.80086  0.13807  1.0000
  C   C661      1.0  0.37826  0.80284  0.14944  1.0000
  H   H799      1.0  0.32796  0.82460  0.16857  1.0000
  H   H800      1.0  0.31174  0.81975  0.14892  1.0000
  H   H801      1.0  0.38069  0.79490  0.12937  1.0000
  H   H802      1.0  0.39684  0.79850  0.14944  1.0000
  C   C662      1.0  0.43381  0.71601  0.16461  1.0000
  C   C663      1.0  0.41160  0.72980  0.16628  1.0000
  C   C664      1.0  0.05557  0.90460  0.00961  1.0000
  H   H803      1.0  0.15711  0.86321  0.06473  1.0000
  H   H804      1.0  0.40972  0.74801  0.16639  1.0000
  H   H805      1.0  0.35369  0.91110  0.12549  1.0000
  H   H806      1.0  0.19781  0.80891  0.06429  1.0000
  C   C665      1.0  0.34162  0.65672  0.14923  1.0000
  H   H807      1.0  0.01088  0.73078  0.20199  1.0000
  H   H808      1.0  0.39294  0.80472  0.21438  1.0000
  H   H809      1.0  0.41250  0.69968  0.20768  1.0000
  C   C666      1.0  0.36682  0.72828  0.21564  1.0000
  C   C667      1.0  0.24415  0.81311  0.19940  1.0000
  C   C668      1.0  0.11081  0.85600  0.00640  1.0000
  H   H810      1.0  0.29841  0.68217  0.11703  1.0000
  H   H811      1.0  0.19159  0.66832  0.21570  1.0000
  H   H812      1.0  0.33115  0.88060  0.16172  1.0000
  H   H813      1.0  0.32320  0.88803  0.11580  1.0000
  H   H814      1.0  0.37461  0.73043  0.16992  1.0000
  C   C669      1.0  0.19926  0.78225  0.18969  1.0000
  C   C670      1.0  0.21711  0.77646  0.17913  1.0000
  C   C671      1.0  0.22439  0.79361  0.16879  1.0000
  C   C672      1.0  0.21467  0.81685  0.16919  1.0000
  C   C673      1.0  0.19685  0.82274  0.17979  1.0000
  C   C674      1.0  0.18893  0.80542  0.18992  1.0000
  H   H815      1.0  0.22544  0.75868  0.17888  1.0000
  H   H816      1.0  0.23763  0.78869  0.16056  1.0000
  H   H817      1.0  0.18896  0.84066  0.18007  1.0000
  C   C675      1.0  0.39173  0.71991  0.16808  1.0000
  N   N44       1.0  0.33739  0.73136  0.13447  1.0000
  C   C676      1.0  0.34748  0.74756  0.13986  1.0000
  C   C677      1.0  0.32035  0.74544  0.12587  1.0000
  C   C678      1.0  0.32438  0.71767  0.14597  1.0000
  C   C679      1.0  0.35620  0.71576  0.12712  1.0000
  C   C680      1.0  0.37431  0.70180  0.13382  1.0000
  C   C681      1.0  0.35732  0.71396  0.11326  1.0000
  C   C682      1.0  0.39237  0.68694  0.12720  1.0000
  C   C683      1.0  0.37551  0.69905  0.10669  1.0000
  C   C684      1.0  0.39299  0.68558  0.11364  1.0000
  H   H818      1.0  0.33374  0.76048  0.14477  1.0000
  H   H819      1.0  0.35851  0.73871  0.14765  1.0000
  H   H820      1.0  0.35838  0.75738  0.13158  1.0000
  H   H821      1.0  0.32873  0.75706  0.11732  1.0000
  H   H822      1.0  0.30650  0.75680  0.13176  1.0000
  H   H823      1.0  0.31114  0.73455  0.12191  1.0000
  H   H824      1.0  0.33553  0.70796  0.15357  1.0000
  H   H825      1.0  0.30968  0.72888  0.15152  1.0000
  H   H826      1.0  0.31675  0.70506  0.14238  1.0000
  H   H827      1.0  0.37470  0.70245  0.14427  1.0000
  H   H828      1.0  0.34455  0.72416  0.10723  1.0000
  H   H829      1.0  0.41318  0.68314  0.19465  1.0000
  C   C685      1.0  0.36113  0.70731  0.22244  1.0000
  H   H830      1.0  0.19500  0.66868  0.16766  1.0000
  N   N45       1.0  0.24961  0.81611  0.21251  1.0000
  C   C686      1.0  0.41639  0.68299  0.16543  1.0000
  C   C687      1.0  0.23570  0.83851  0.21585  1.0000
  H   H831      1.0  0.47161  0.67277  0.21508  1.0000
  C   C688      1.0  0.31539  0.81092  0.20110  1.0000
  H   H832      1.0  0.18517  0.95231  0.04519  1.0000
  H   H833      1.0  0.43885  0.80943  0.22051  1.0000
  N   N46       1.0  0.01393  0.97701  0.98086  1.0000
  C   C689      1.0  0.02501  0.80093  0.22937  1.0000
  H   H834      1.0  0.40607  0.67667  0.13263  1.0000
  H   H835      1.0  0.24390  0.66893  0.13040  1.0000
  H   H836      1.0  0.45326  0.68215  0.16203  1.0000
  H   H837      1.0  0.22192  0.65683  0.21527  1.0000
  H   H838      1.0  0.37627  0.69824  0.09606  1.0000
  C   C690      1.0  0.99926  0.82103  0.02219  1.0000
  N   N47       1.0  0.01538  0.83259  0.98354  1.0000
  H   H839      1.0  0.01362  0.65794  0.21826  1.0000
  H   H840      1.0  0.36345  0.86932  0.14830  1.0000
  H   H841      1.0  0.21101  0.71951  0.21895  1.0000
  H   H842      1.0  0.22862  0.69851  0.20902  1.0000
  H   H843      1.0  0.17633  0.83596  0.99363  1.0000
  H   H844      1.0  0.40722  0.67426  0.10849  1.0000
  H   H845      1.0  0.24153  0.85324  0.20853  1.0000
  Fe  Fe107     1.0  0.17014  0.77134  0.22169  1.0000
  N   N48       1.0  0.33868  0.88086  0.13408  1.0000
  C   C691      1.0  0.33919  0.90561  0.13327  1.0000
  C   C692      1.0  0.36071  0.86698  0.13822  1.0000
  C   C693      1.0  0.33817  0.87668  0.12023  1.0000
  C   C694      1.0  0.31840  0.87497  0.14411  1.0000
  C   C695      1.0  0.29881  0.86932  0.14035  1.0000
  C   C696      1.0  0.31719  0.87603  0.15806  1.0000
  C   C697      1.0  0.27955  0.86473  0.14999  1.0000
  C   C698      1.0  0.29791  0.87118  0.16763  1.0000
  C   C699      1.0  0.27913  0.86552  0.16359  1.0000
  H   H846      1.0  0.32262  0.91663  0.13058  1.0000
  H   H847      1.0  0.34159  0.90957  0.14308  1.0000
  H   H848      1.0  0.20813  0.72718  0.11913  1.0000
  H   H849      1.0  0.19107  0.83628  0.03549  1.0000
  H   H850      1.0  0.18092  0.84424  0.07149  1.0000
  C   C700      1.0  0.26069  0.72800  0.11405  1.0000
  H   H851      1.0  0.20180  0.84563  0.04827  1.0000
  C   C701      1.0  0.01957  0.92178  0.02238  1.0000
  S   S200      1.0  0.16558  0.66600  0.19371  1.0000
  C   C702      1.0  0.18243  0.80879  0.05960  1.0000
  H   H852      1.0  0.18920  0.79926  0.05091  1.0000
  H   H853      1.0  0.17083  0.79862  0.06715  1.0000
  C   C703      1.0  0.19546  0.73227  0.13985  1.0000
  C   C704      1.0  0.18561  0.84474  0.04468  1.0000
  C   C705      1.0  0.16486  0.84463  0.06735  1.0000
  C   C706      1.0  0.25884  0.71247  0.10580  1.0000
  H   H854      1.0  0.12285  0.85209  0.06360  1.0000
  C   C707      1.0  0.14881  0.83152  0.05003  1.0000
  H   H855      1.0  0.16741  0.81185  0.03400  1.0000
  C   C708      1.0  0.25125  0.70035  0.13397  1.0000
  H   H856      1.0  0.31002  0.67237  0.10113  1.0000
  C   C709      1.0  0.20293  0.72538  0.16932  1.0000
  H   H857      1.0  0.19497  0.76664  0.15479  1.0000
  C   C710      1.0  0.15068  0.81971  0.03896  1.0000
  H   H858      1.0  0.20522  0.70622  0.17119  1.0000
  H   H859      1.0  0.17677  0.76927  0.17055  1.0000
  H   H860      1.0  0.26203  0.71712  0.09488  1.0000
  H   H861      1.0  0.22520  0.81381  0.19999  1.0000
  C   C711      1.0  0.13107  0.81840  0.03375  1.0000
  C   C712      1.0  0.17903  0.76144  0.16122  1.0000
  H   H862      1.0  0.20760  0.74354  0.13929  1.0000
  S   S201      1.0  0.45829  0.72620  0.16632  1.0000
  H   H863      1.0  0.13300  0.80981  0.02505  1.0000
  C   C713      1.0  0.10659  0.84107  0.04998  1.0000
  C   C714      1.0  0.10908  0.82912  0.03922  1.0000
  H   H864      1.0  0.15384  0.70496  0.16069  1.0000
  N   N49       1.0  0.18068  0.73600  0.16434  1.0000
  H   H865      1.0  0.46563  0.67983  0.18493  1.0000
  C   C715      1.0  0.15111  0.85756  0.00619  1.0000
  H   H866      1.0  0.09403  0.82868  0.03484  1.0000
  H   H867      1.0  0.16398  0.76982  0.15591  1.0000
  C   C716      1.0  0.32240  0.81414  0.21275  1.0000
  H   H868      1.0  0.08948  0.84990  0.05397  1.0000
  H   H869      1.0  0.47472  0.65282  0.19509  1.0000
  C   C717      1.0  0.20585  0.66373  0.22194  1.0000
  C   C718      1.0  0.16146  0.73122  0.17557  1.0000
  C   C719      1.0  0.18014  0.72665  0.15201  1.0000
  H   H870      1.0  0.05912  0.68355  0.19810  1.0000
  S   S202      1.0  0.01595  0.89578  0.00368  1.0000
  H   H871      1.0  0.16286  0.71243  0.17946  1.0000
  H   H872      1.0  0.41392  0.67807  0.22841  1.0000
  H   H873      1.0  0.23670  0.84116  0.22619  1.0000
  H   H874      1.0  0.37151  0.73108  0.20469  1.0000
  H   H875      1.0  0.00521  0.82354  0.03111  1.0000
  H   H876      1.0  0.14418  0.73810  0.17233  1.0000
  H   H877      1.0  0.41870  0.66488  0.16529  1.0000
  C   C720      1.0  0.16565  0.71080  0.15186  1.0000
  H   H878      1.0  0.24823  0.69558  0.14488  1.0000
  C   C721      1.0  0.25296  0.69095  0.11163  1.0000
  C   C722      1.0  0.43615  0.69285  0.16356  1.0000
  H   H879      1.0  0.24888  0.82703  0.19103  1.0000
  H   H880      1.0  0.37141  0.76186  0.21766  1.0000
  H   H881      1.0  0.21318  0.98455  0.05265  1.0000
  C   C723      1.0  0.39414  0.69627  0.16805  1.0000
  C   C724      1.0  0.19605  0.72283  0.12825  1.0000
  H   H882      1.0  0.43035  0.70529  0.19185  1.0000
  C   C725      1.0  0.16658  0.70127  0.14023  1.0000
  N   N50       1.0  0.46262  0.83204  0.22007  1.0000
  H   H883      1.0  0.15390  0.96831  0.06003  1.0000
  S   S203      1.0  0.42397  0.76458  0.22544  1.0000
  H   H884      1.0  0.05188  0.71426  0.19756  1.0000
  H   H885      1.0  0.12205  0.87703  0.01780  1.0000
  C   C726      1.0  0.19514  0.98325  0.05777  1.0000
  H   H886      1.0  0.10160  0.97736  0.98313  1.0000
  H   H887      1.0  0.46429  0.83887  0.19831  1.0000
  C   C727      1.0  0.16615  0.65376  0.17934  1.0000
  S   S204      1.0  0.49280  0.81841  0.17364  1.0000
  C   C728      1.0  0.18181  0.70720  0.12847  1.0000
  H   H888      1.0  0.00079  0.92480  0.02465  1.0000
  C   C729      1.0  0.00571  0.67448  0.21329  1.0000
  H   H889      1.0  0.25292  0.79605  0.19651  1.0000
  C   C730      1.0  0.00405  0.71499  0.20413  1.0000
  H   H890      1.0  0.32869  0.68046  0.11059  1.0000
  N   N51       1.0  0.03773  0.69433  0.21614  1.0000
  H   H891      1.0  0.20457  0.96875  0.03399  1.0000
  S   S205      1.0  0.18993  0.76005  0.20214  1.0000
  H   H892      1.0  0.43611  0.84767  0.20757  1.0000
  C   C731      1.0  0.18622  0.96970  0.03912  1.0000
  H   H893      1.0  0.05016  0.82610  0.98830  1.0000
  H   H894      1.0  0.26409  0.86185  0.17094  1.0000
  H   H895      1.0  0.15581  0.68874  0.14044  1.0000
  S   S206      1.0  0.36964  0.68303  0.17172  1.0000
  C   C732      1.0  0.45752  0.80871  0.22087  1.0000
  C   C733      1.0  0.04432  0.81066  0.22974  1.0000
  C   C734      1.0  0.24881  0.68515  0.12575  1.0000
  C   C735      1.0  0.05624  0.69756  0.20431  1.0000
  H   H896      1.0  0.03487  0.85556  0.98836  1.0000
  C   C736      1.0  0.48764  0.83026  0.22051  1.0000
  S   S207      1.0  0.09640  0.83047  0.99145  1.0000
  S   S208      1.0  0.16349  0.98088  0.00303  1.0000
  C   C737      1.0  0.01578  0.69450  0.21133  1.0000
  H   H897      1.0  0.25221  0.78019  0.22112  1.0000
  H   H898      1.0  0.18284  0.69941  0.11957  1.0000
  H   H899      1.0  0.29756  0.87182  0.17824  1.0000
  C   C738      1.0  0.24180  0.79731  0.22298  1.0000
  H   H900      1.0  0.09256  0.86126  0.01018  1.0000
  H   H901      1.0  0.22314  0.79686  0.22319  1.0000
  C   C739      1.0  0.45503  0.84638  0.20753  1.0000
  H   H902      1.0  0.17486  0.97249  0.03125  1.0000
  C   C740      1.0  0.15804  0.84160  0.99717  1.0000
  C   C741      1.0  0.04593  0.67249  0.22498  1.0000
  C   C742      1.0  0.42404  0.69115  0.19946  1.0000
  H   H903      1.0  0.45805  0.86433  0.20637  1.0000
  H   H904      1.0  0.03221  0.73071  0.21773  1.0000
  C   C743      1.0  0.12748  0.86493  0.01071  1.0000
  S   S209      1.0  0.25273  0.67106  0.10107  1.0000
  H   H905      1.0  0.46495  0.69899  0.20339  1.0000
  C   C744      1.0  0.00355  0.82513  0.99738  1.0000
  H   H906      1.0  0.07311  0.69739  0.20753  1.0000
  C   C745      1.0  0.01681  0.97999  0.99451  1.0000
  C   C746      1.0  0.38846  0.80211  0.22526  1.0000
  H   H907      1.0  0.99538  0.86705  0.98242  1.0000
  C   C747      1.0  0.29187  0.81166  0.20079  1.0000
  H   H908      1.0  0.36145  0.83242  0.22536  1.0000
  N   N52       1.0  0.44363  0.67379  0.20436  1.0000
  C   C748      1.0  0.11768  0.84045  0.99715  1.0000
  H   H909      1.0  0.34063  0.81367  0.21285  1.0000
  H   H910      1.0  0.36111  0.84836  0.13867  1.0000
  C   C749      1.0  0.27462  0.81557  0.21233  1.0000
  H   H911      1.0  0.36136  0.69377  0.21673  1.0000
  H   H912      1.0  0.19759  0.70599  0.20952  1.0000
  C   C750      1.0  0.30599  0.81806  0.22420  1.0000
  H   H913      1.0  0.35699  0.66135  0.15133  1.0000
  C   C751      1.0  0.36659  0.74566  0.22295  1.0000
  H   H914      1.0  0.00979  0.81169  0.22569  1.0000
  H   H915      1.0  0.28772  0.80908  0.19140  1.0000
  H   H916      1.0  0.03111  0.79771  0.98090  1.0000
  C   C752      1.0  0.31376  0.67169  0.11153  1.0000
  H   H917      1.0  0.46799  0.80016  0.21232  1.0000
  C   C753      1.0  0.21175  0.70270  0.21576  1.0000
  H   H918      1.0  0.19554  0.96554  0.06373  1.0000
  H   H919      1.0  0.04364  0.82900  0.22656  1.0000
  C   C754      1.0  0.03472  0.71336  0.22406  1.0000
  H   H920      1.0  0.32839  0.80788  0.19225  1.0000
  S   S210      1.0  0.15428  0.80751  0.22489  1.0000
  H   H921      1.0  0.44980  0.65725  0.18659  1.0000
  C   C755      1.0  0.18280  0.65768  0.16782  1.0000
  C   C756      1.0  0.41893  0.66058  0.22632  1.0000
  H   H922      1.0  0.01109  0.94128  0.98782  1.0000
  C   C757      1.0  0.45910  0.66545  0.19229  1.0000
  C   C758      1.0  0.28245  0.81869  0.22405  1.0000
  C   C759      1.0  0.03761  0.84013  0.98329  1.0000
  H   H923      1.0  0.06799  0.98103  0.01773  1.0000
  N   N53       1.0  0.20877  0.68390  0.22744  1.0000
  H   H924      1.0  0.14025  0.90336  0.98677  1.0000
  C   C760      1.0  0.33983  0.65508  0.13598  1.0000
  H   H925      1.0  0.03548  0.97593  0.99572  1.0000
  H   H926      1.0  0.11013  0.93524  0.98691  1.0000
  H   H927      1.0  0.10082  0.90081  0.98608  1.0000
  H   H928      1.0  0.35397  0.65914  0.12814  1.0000
  H   H929      1.0  0.14665  0.82134  0.98529  1.0000
  H   H930      1.0  0.06133  0.67342  0.22938  1.0000
  C   C761      1.0  0.43439  0.65523  0.21437  1.0000
  H   H931      1.0  0.03998  0.94577  0.98149  1.0000
  H   H932      1.0  0.32515  0.65392  0.17005  1.0000
  C   C762      1.0  0.32370  0.65246  0.15981  1.0000
  Fe  Fe108     1.0  0.17184  0.79913  0.24336  1.0000
  S   S211      1.0  0.18959  0.76386  0.23923  1.0000
  S   S212      1.0  0.19605  0.82190  0.24568  1.0000
  C   C763      1.0  0.25508  0.69271  0.24599  1.0000
  Fe  Fe109     1.0  0.15748  0.75275  0.25152  1.0000
  S   S213      1.0  0.16185  0.71981  0.26629  1.0000
  S   S214      1.0  0.14063  0.78752  0.25707  1.0000
  H   H933      1.0  0.36437  0.75813  0.44784  1.0000
  Fe  Fe110     1.0  0.28719  0.80627  0.29350  1.0000
  S   S215      1.0  0.31596  0.78817  0.27959  1.0000
  S   S216      1.0  0.25198  0.79645  0.29538  1.0000
  Fe  Fe111     1.0  0.32103  0.82828  0.30430  1.0000
  S   S217      1.0  0.35232  0.81151  0.29105  1.0000
  S   S218      1.0  0.32180  0.84799  0.32121  1.0000
  Fe  Fe112     1.0  0.32929  0.82124  0.27499  1.0000
  S   S219      1.0  0.34093  0.83367  0.25297  1.0000
  Fe  Fe113     1.0  0.33595  0.77999  0.29685  1.0000
  S   S220      1.0  0.35600  0.74391  0.30129  1.0000
  S   S221      1.0  0.29885  0.84052  0.28767  1.0000
  S   S222      1.0  0.30639  0.79569  0.31133  1.0000
  N   N54       1.0  0.42181  0.95734  0.42958  1.0000
  C   C764      1.0  0.03677  0.81236  0.26341  1.0000
  Fe  Fe114     1.0  0.40848  0.91620  0.37794  1.0000
  S   S223      1.0  0.42864  0.88760  0.39110  1.0000
  Fe  Fe115     1.0  0.41258  0.88734  0.35552  1.0000
  S   S224      1.0  0.43386  0.85681  0.36673  1.0000
  S   S225      1.0  0.40582  0.88574  0.33445  1.0000
  Fe  Fe116     1.0  0.40829  0.86490  0.38517  1.0000
  S   S226      1.0  0.39131  0.83664  0.39833  1.0000
  Fe  Fe117     1.0  0.45245  0.88217  0.37156  1.0000
  C   C765      1.0  0.46551  0.96061  0.46631  1.0000
  S   S227      1.0  0.38564  0.89391  0.37370  1.0000
  S   S228      1.0  0.43374  0.91234  0.35868  1.0000
  C   C766      1.0  0.38944  0.83423  0.41595  1.0000
  C   C767      1.0  0.36949  0.82799  0.42427  1.0000
  C   C768      1.0  0.36781  0.82451  0.43838  1.0000
  C   C769      1.0  0.38645  0.82634  0.44431  1.0000
  C   C770      1.0  0.40656  0.83253  0.43604  1.0000
  C   C771      1.0  0.40792  0.83684  0.42183  1.0000
  H   H934      1.0  0.35521  0.82593  0.41976  1.0000
  H   H935      1.0  0.45392  0.86603  0.44308  1.0000
  H   H936      1.0  0.42104  0.83390  0.44059  1.0000
  H   H937      1.0  0.42350  0.84137  0.41542  1.0000
  S   S229      1.0  0.28678  0.67352  0.31467  1.0000
  C   C772      1.0  0.26997  0.74039  0.28044  1.0000
  C   C773      1.0  0.37325  0.76035  0.45602  1.0000
  H   H938      1.0  0.43588  0.91426  0.47469  1.0000
  C   C774      1.0  0.38938  0.68780  0.45625  1.0000
  C   C775      1.0  0.38565  0.81058  0.34272  1.0000
  C   C776      1.0  0.34582  0.85753  0.32482  1.0000
  C   C777      1.0  0.36589  0.85943  0.31527  1.0000
  C   C778      1.0  0.38411  0.86802  0.31839  1.0000
  C   C779      1.0  0.38272  0.87431  0.33117  1.0000
  C   C780      1.0  0.36288  0.87190  0.34083  1.0000
  C   C781      1.0  0.34448  0.86373  0.33761  1.0000
  H   H939      1.0  0.36711  0.85485  0.30536  1.0000
  H   H940      1.0  0.39935  0.86987  0.31084  1.0000
  H   H941      1.0  0.36156  0.87658  0.35072  1.0000
  H   H942      1.0  0.32906  0.86229  0.34508  1.0000
  C   C782      1.0  0.33695  0.72415  0.30510  1.0000
  C   C783      1.0  0.31304  0.73177  0.30851  1.0000
  C   C784      1.0  0.29786  0.71603  0.31163  1.0000
  C   C785      1.0  0.30636  0.69271  0.31076  1.0000
  C   C786      1.0  0.33022  0.68510  0.30693  1.0000
  C   C787      1.0  0.34556  0.70075  0.30435  1.0000
  H   H943      1.0  0.30614  0.74976  0.30899  1.0000
  H   H944      1.0  0.27946  0.72204  0.31465  1.0000
  H   H945      1.0  0.33690  0.66705  0.30639  1.0000
  H   H946      1.0  0.36406  0.69476  0.30174  1.0000
  C   C788      1.0  0.36376  0.81406  0.24554  1.0000
  C   C789      1.0  0.26418  0.75500  0.26872  1.0000
  C   C790      1.0  0.39392  0.77974  0.24724  1.0000
  C   C791      1.0  0.37536  0.79493  0.25344  1.0000
  C   C792      1.0  0.41826  0.96863  0.44176  1.0000
  H   H947      1.0  0.40317  0.76523  0.25339  1.0000
  H   H948      1.0  0.37029  0.79208  0.26433  1.0000
  C   C793      1.0  0.21157  0.81438  0.25952  1.0000
  C   C794      1.0  0.23075  0.82466  0.25913  1.0000
  C   C795      1.0  0.24355  0.81898  0.26994  1.0000
  C   C796      1.0  0.23683  0.80344  0.28141  1.0000
  C   C797      1.0  0.21759  0.79321  0.28182  1.0000
  C   C798      1.0  0.20516  0.79843  0.27084  1.0000
  H   H949      1.0  0.23555  0.83736  0.25055  1.0000
  H   H950      1.0  0.25821  0.82711  0.26959  1.0000
  H   H951      1.0  0.21236  0.78115  0.29066  1.0000
  H   H952      1.0  0.19036  0.79049  0.27128  1.0000
  C   C799      1.0  0.13928  0.70658  0.26486  1.0000
  C   C800      1.0  0.11817  0.72011  0.26175  1.0000
  H   H953      1.0  0.35221  0.81984  0.44471  1.0000
  C   C801      1.0  0.49348  0.85064  0.47487  1.0000
  C   C802      1.0  0.12675  0.67261  0.26169  1.0000
  C   C803      1.0  0.14323  0.68273  0.26530  1.0000
  H   H954      1.0  0.27041  0.82167  0.23323  1.0000
  C   C804      1.0  0.35433  0.72115  0.24434  1.0000
  H   H955      1.0  0.28390  0.74302  0.28509  1.0000
  H   H956      1.0  0.15941  0.67223  0.26782  1.0000
  H   H957      1.0  0.37796  0.93698  0.33113  1.0000
  C   C805      1.0  0.13255  0.65913  0.29660  1.0000
  Fe  Fe118     1.0  0.46829  0.81733  0.46306  1.0000
  H   H958      1.0  0.40084  0.95606  0.41474  1.0000
  H   H959      1.0  0.15593  0.67745  0.30177  1.0000
  Fe  Fe119     1.0  0.45699  0.76966  0.47622  1.0000
  H   H960      1.0  0.27354  0.76895  0.26434  1.0000
  N   N55       1.0  0.39833  0.74968  0.45387  1.0000
  C   C806      1.0  0.40260  0.72472  0.45318  1.0000
  H   H961      1.0  0.40110  0.74335  0.47505  1.0000
  H   H962      1.0  0.38298  0.78456  0.32317  1.0000
  C   C807      1.0  0.40052  0.78337  0.23314  1.0000
  C   C808      1.0  0.47980  0.96898  0.45460  1.0000
  H   H963      1.0  0.03821  0.86925  0.25973  1.0000
  H   H964      1.0  0.45807  0.97737  0.33702  1.0000
  C   C809      1.0  0.40857  0.75304  0.46531  1.0000
  H   H965      1.0  0.46069  0.92603  0.39809  1.0000
  H   H966      1.0  0.11501  0.73859  0.26149  1.0000
  H   H967      1.0  0.47408  0.88563  0.40579  1.0000
  H   H968      1.0  0.36059  0.75657  0.24201  1.0000
  C   C810      1.0  0.06508  0.77323  0.23849  1.0000
  H   H969      1.0  0.33457  0.75231  0.26191  1.0000
  C   C811      1.0  0.43014  0.68890  0.44935  1.0000
  H   H970      1.0  0.24037  0.76459  0.25437  1.0000
  H   H971      1.0  0.40532  0.78137  0.44111  1.0000
  C   C812      1.0  0.43909  0.96771  0.41902  1.0000
  S   S230      1.0  0.45052  0.79294  0.45667  1.0000
  H   H972      1.0  0.35893  0.94129  0.35343  1.0000
  C   C813      1.0  0.36342  0.98060  0.33525  1.0000
  H   H973      1.0  0.31886  0.70794  0.27430  1.0000
  H   H974      1.0  0.36462  0.74201  0.26424  1.0000
  H   H975      1.0  0.39881  0.82602  0.37036  1.0000
  H   H976      1.0  0.32215  0.78666  0.33813  1.0000
  C   C814      1.0  0.10611  0.68627  0.25797  1.0000
  H   H977      1.0  0.47479  0.89450  0.44734  1.0000
  C   C815      1.0  0.44764  0.88432  0.44017  1.0000
  H   H978      1.0  0.35636  0.75395  0.35602  1.0000
  H   H979      1.0  0.40520  0.77151  0.46648  1.0000
  H   H980      1.0  0.37552  0.67790  0.45917  1.0000
  H   H981      1.0  0.49297  0.84871  0.40546  1.0000
  C   C816      1.0  0.38454  0.71157  0.45645  1.0000
  C   C817      1.0  0.10143  0.70990  0.25846  1.0000
  C   C818      1.0  0.43979  0.98206  0.34106  1.0000
  H   H982      1.0  0.38539  0.95585  0.43189  1.0000
  H   H983      1.0  0.32464  0.78698  0.35524  1.0000
  H   H984      1.0  0.37069  0.77924  0.45605  1.0000
  C   C819      1.0  0.37129  0.95189  0.35472  1.0000
  H   H985      1.0  0.48760  0.85553  0.42253  1.0000
  C   C820      1.0  0.36038  0.74230  0.23706  1.0000
  H   H986      1.0  0.48766  0.95378  0.39304  1.0000
  N   N56       1.0  0.22203  0.70432  0.28853  1.0000
  C   C821      1.0  0.21961  0.68924  0.27915  1.0000
  C   C822      1.0  0.23052  0.68905  0.30059  1.0000
  C   C823      1.0  0.19873  0.71754  0.29317  1.0000
  C   C824      1.0  0.23746  0.72069  0.28148  1.0000
  C   C825      1.0  0.23216  0.73578  0.26945  1.0000
  C   C826      1.0  0.25706  0.72328  0.28669  1.0000
  C   C827      1.0  0.24548  0.75252  0.26314  1.0000
  C   C828      1.0  0.47861  0.92018  0.39968  1.0000
  H   H987      1.0  0.36160  0.96404  0.36171  1.0000
  H   H988      1.0  0.23684  0.67934  0.27522  1.0000
  C   C829      1.0  0.45962  0.70809  0.47751  1.0000
  H   H989      1.0  0.21125  0.69896  0.27038  1.0000
  H   H990      1.0  0.24815  0.67877  0.29786  1.0000
  H   H991      1.0  0.21907  0.67636  0.30538  1.0000
  H   H992      1.0  0.23129  0.69900  0.30860  1.0000
  H   H993      1.0  0.19031  0.72811  0.28458  1.0000
  H   H994      1.0  0.18660  0.70600  0.29880  1.0000
  H   H995      1.0  0.19993  0.72962  0.29993  1.0000
  H   H996      1.0  0.21703  0.73542  0.26517  1.0000
  H   H997      1.0  0.26234  0.71284  0.29586  1.0000
  C   C830      1.0  0.47045  0.93729  0.47274  1.0000
  H   H998      1.0  0.17147  0.69485  0.23156  1.0000
  H   H999      1.0  0.43478  0.96824  0.44534  1.0000
  H   H1000     1.0  0.37059  0.80147  0.38196  1.0000
  C   C831      1.0  0.43461  0.96513  0.37978  1.0000
  C   C832      1.0  0.35506  0.70372  0.23657  1.0000
  H   H1001     1.0  0.18447  0.67800  0.24571  1.0000
  H   H1002     1.0  0.99768  0.87252  0.25717  1.0000
  H   H1003     1.0  0.31156  0.82076  0.23324  1.0000
  C   C833      1.0  0.45092  0.92408  0.43910  1.0000
  H   H1004     1.0  0.41584  0.65797  0.45299  1.0000
  H   H1005     1.0  0.08038  0.76249  0.24213  1.0000
  C   C834      1.0  0.39087  0.81759  0.36446  1.0000
  H   H1006     1.0  0.01947  0.71294  0.23225  1.0000
  H   H1007     1.0  0.47838  0.92308  0.36592  1.0000
  C   C835      1.0  0.37488  0.80369  0.37099  1.0000
  H   H1008     1.0  0.06372  0.83102  0.26330  1.0000
  C   C836      1.0  0.01375  0.81377  0.26175  1.0000
  C   C837      1.0  0.48665  0.89680  0.40407  1.0000
  H   H1009     1.0  0.40407  0.91958  0.42555  1.0000
  H   H1010     1.0  0.42775  0.74710  0.46393  1.0000
  H   H1011     1.0  0.35952  0.80931  0.32266  1.0000
  H   H1012     1.0  0.31123  0.72411  0.25843  1.0000
  C   C838      1.0  0.41210  0.67651  0.45270  1.0000
  C   C839      1.0  0.04555  0.83229  0.26259  1.0000
  C   C840      1.0  0.36501  0.69751  0.26513  1.0000
  H   H1013     1.0  0.40852  0.83215  0.34537  1.0000
  C   C841      1.0  0.45926  0.90045  0.44264  1.0000
  H   H1014     1.0  0.20854  0.67638  0.28427  1.0000
  S   S231      1.0  0.13959  0.75634  0.23351  1.0000
  H   H1015     1.0  0.35035  0.97189  0.33287  1.0000
  H   H1016     1.0  0.46953  0.65414  0.46905  1.0000
  H   H1017     1.0  0.46058  0.93595  0.44112  1.0000
  C   C842      1.0  0.39634  0.82092  0.35039  1.0000
  H   H1018     1.0  0.35489  0.78184  0.32088  1.0000
  C   C843      1.0  0.43051  0.93223  0.43303  1.0000
  H   H1019     1.0  0.42863  0.75780  0.43956  1.0000
  H   H1020     1.0  0.04011  0.68522  0.26633  1.0000
  Fe  Fe120     1.0  0.41890  0.80999  0.46941  1.0000
  S   S232      1.0  0.00119  0.76447  0.23408  1.0000
  H   H1021     1.0  0.36110  0.69426  0.27641  1.0000
  H   H1022     1.0  0.00851  0.79760  0.26199  1.0000
  C   C844      1.0  0.39152  0.94608  0.33258  1.0000
  H   H1023     1.0  0.35465  0.75086  0.33918  1.0000
  C   C845      1.0  0.36426  0.79304  0.36345  1.0000
  H   H1024     1.0  0.35185  0.78256  0.36898  1.0000
  H   H1025     1.0  0.38190  0.75331  0.34332  1.0000
  C   C846      1.0  0.37040  0.81763  0.23147  1.0000
  S   S233      1.0  0.43588  0.83677  0.47387  1.0000
  C   C847      1.0  0.40936  0.76242  0.44112  1.0000
  H   H1026     1.0  0.26050  0.70680  0.24898  1.0000
  C   C848      1.0  0.22868  0.67887  0.23497  1.0000
  H   H1027     1.0  0.39019  0.81458  0.33185  1.0000
  C   C849      1.0  0.02314  0.68825  0.26325  1.0000
  C   C850      1.0  0.36922  0.79624  0.34906  1.0000
  H   H1028     1.0  0.38492  0.94020  0.36009  1.0000
  H   H1029     1.0  0.44177  0.94986  0.37515  1.0000
  H   H1030     1.0  0.32715  0.81218  0.34284  1.0000
  S   S234      1.0  0.39262  0.95024  0.38529  1.0000
  H   H1031     1.0  0.34174  0.73361  0.27697  1.0000
  C   C851      1.0  0.36406  0.79051  0.32639  1.0000
  H   H1032     1.0  0.44787  0.67988  0.44702  1.0000
  C   C852      1.0  0.01016  0.71051  0.26145  1.0000
  H   H1033     1.0  0.38294  0.70127  0.26223  1.0000
  S   S235      1.0  0.38461  0.81902  0.46199  1.0000
  H   H1034     1.0  0.36659  0.71909  0.45948  1.0000
  C   C853      1.0  0.33177  0.79300  0.34455  1.0000
  H   H1035     1.0  0.40653  0.96036  0.45029  1.0000
  H   H1036     1.0  0.08553  0.72051  0.25551  1.0000
  N   N57       1.0  0.35728  0.78517  0.34133  1.0000
  C   C854      1.0  0.36278  0.75974  0.34517  1.0000
  H   H1037     1.0  0.36499  0.68100  0.26176  1.0000
  H   H1038     1.0  0.13027  0.65431  0.26143  1.0000
  H   H1039     1.0  0.01713  0.72483  0.26306  1.0000
  C   C855      1.0  0.32451  0.71049  0.26308  1.0000
  H   H1040     1.0  0.04827  0.79571  0.26473  1.0000
  H   H1041     1.0  0.36416  0.75321  0.46606  1.0000
  H   H1042     1.0  0.44038  0.72106  0.44793  1.0000
  H   H1043     1.0  0.40496  0.93230  0.33696  1.0000
  H   H1044     1.0  0.03230  0.66840  0.23370  1.0000
  C   C856      1.0  0.42790  0.89169  0.43396  1.0000
  C   C857      1.0  0.00807  0.85545  0.25891  1.0000
  C   C858      1.0  0.39933  0.96290  0.42435  1.0000
  C   C859      1.0  0.34721  0.73711  0.26579  1.0000
  C   C860      1.0  0.42560  0.71255  0.44980  1.0000
  S   S236      1.0  0.08779  0.67421  0.25110  1.0000
  C   C861      1.0  0.01437  0.66991  0.26098  1.0000
  H   H1045     1.0  0.44184  0.96012  0.40958  1.0000
  C   C862      1.0  0.26726  0.67029  0.24899  1.0000
  C   C863      1.0  0.41942  0.91524  0.43036  1.0000
  N   N58       1.0  0.34789  0.71684  0.25930  1.0000
  H   H1046     1.0  0.46117  0.79711  0.23043  1.0000
  H   H1047     1.0  0.22659  0.71455  0.23749  1.0000
  H   H1048     1.0  0.39926  0.95378  0.32232  1.0000
  C   C864      1.0  0.46082  0.66885  0.47378  1.0000
  C   C865      1.0  0.41106  0.96946  0.38535  1.0000
  H   H1049     1.0  0.32403  0.69397  0.25988  1.0000
  C   C866      1.0  0.18710  0.69138  0.23664  1.0000
  C   C867      1.0  0.47109  0.68851  0.47169  1.0000
  H   H1050     1.0  0.28222  0.66694  0.25415  1.0000
  H   H1051     1.0  0.04621  0.74532  0.24183  1.0000
  S   S237      1.0  0.47366  0.73223  0.47463  1.0000
  C   C868      1.0  0.15383  0.66129  0.29942  1.0000
  Fe  Fe121     1.0  0.12461  0.79212  0.23807  1.0000
  H   H1052     1.0  0.48802  0.68849  0.46551  1.0000
  C   C869      1.0  0.04563  0.76355  0.23831  1.0000
  S   S238      1.0  0.49115  0.87266  0.37121  1.0000
  N   N59       1.0  0.38193  0.96374  0.34158  1.0000
  H   H1053     1.0  0.48703  0.80881  0.24048  1.0000
  C   C870      1.0  0.03119  0.85380  0.26045  1.0000
  H   H1054     1.0  0.45085  0.97284  0.47022  1.0000
  H   H1055     1.0  0.35091  0.68713  0.24140  1.0000
  C   C871      1.0  0.42360  0.97045  0.33843  1.0000
  C   C872      1.0  0.99871  0.83549  0.25930  1.0000
  H   H1056     1.0  0.40319  0.75921  0.43214  1.0000
  H   H1057     1.0  0.45625  0.96526  0.42234  1.0000
  H   H1058     1.0  0.45106  0.83148  0.24165  1.0000
  H   H1059     1.0  0.41896  0.87906  0.43197  1.0000
  H   H1060     1.0  0.18731  0.70753  0.24034  1.0000
  C   C873      1.0  0.23587  0.69697  0.23926  1.0000
  H   H1061     1.0  0.47623  0.84684  0.47731  1.0000
  C   C874      1.0  0.24099  0.65610  0.23864  1.0000
  C   C875      1.0  0.02547  0.77735  0.23379  1.0000
  H   H1062     1.0  0.43041  0.95704  0.33227  1.0000
  H   H1063     1.0  0.11822  0.67374  0.29670  1.0000
  C   C876      1.0  0.39960  0.97585  0.34393  1.0000
  C   C877      1.0  0.44879  0.98095  0.37987  1.0000
  C   C878      1.0  0.06446  0.79691  0.23432  1.0000
  H   H1064     1.0  0.39314  0.98188  0.42195  1.0000
  S   S239      1.0  0.08751  0.81036  0.23564  1.0000
  H   H1065     1.0  0.24311  0.79956  0.23338  1.0000
  C   C879      1.0  0.49019  0.92291  0.46654  1.0000
  H   H1066     1.0  0.46685  0.97785  0.37520  1.0000
  H   H1067     1.0  0.45235  0.85961  0.23191  1.0000
  C   C880      1.0  0.49377  0.93578  0.39677  1.0000
  C   C881      1.0  0.44829  0.84245  0.23177  1.0000
  H   H1068     1.0  0.42932  0.84485  0.23145  1.0000
  H   H1069     1.0  0.46030  0.89382  0.48025  1.0000
  H   H1070     1.0  0.02460  0.65262  0.26243  1.0000
  H   H1071     1.0  0.48139  0.74284  0.51266  1.0000
  C   C882      1.0  0.42756  0.68793  0.48766  1.0000
  C   C883      1.0  0.43777  0.70771  0.48554  1.0000
  C   C884      1.0  0.47102  0.91925  0.49614  1.0000
  H   H1072     1.0  0.41075  0.68770  0.49396  1.0000
  S   S240      1.0  0.41977  0.95607  0.55441  1.0000
  H   H1073     1.0  0.42898  0.72242  0.49037  1.0000
  H   H1074     1.0  0.48704  0.78197  0.51092  1.0000
  S   S241      1.0  0.48658  0.95461  0.55661  1.0000
  S   S242      1.0  0.40367  0.92077  0.52750  1.0000
  H   H1075     1.0  0.46496  0.85117  0.52559  1.0000
  Fe  Fe122     1.0  0.42017  0.94686  0.53380  1.0000
  H   H1076     1.0  0.44248  0.95981  0.49337  1.0000
  H   H1077     1.0  0.39003  0.89305  0.51176  1.0000
  H   H1078     1.0  0.46070  0.91288  0.50596  1.0000
  Fe  Fe123     1.0  0.44442  0.81099  0.49210  1.0000
  S   S243      1.0  0.45707  0.95099  0.52605  1.0000
  S   S244      1.0  0.44937  0.82223  0.51118  1.0000
  H   H1079     1.0  0.42496  0.98246  0.58839  1.0000
  C   C885      1.0  0.43774  0.85056  0.51456  1.0000
  C   C886      1.0  0.41682  0.86270  0.51047  1.0000
  C   C887      1.0  0.40668  0.88419  0.51453  1.0000
  C   C888      1.0  0.41772  0.89412  0.52230  1.0000
  C   C889      1.0  0.43909  0.88239  0.52598  1.0000
  C   C890      1.0  0.44891  0.86055  0.52225  1.0000
  H   H1080     1.0  0.40791  0.85504  0.50471  1.0000
  H   H1081     1.0  0.44757  0.88972  0.53212  1.0000
  H   H1082     1.0  0.42605  0.93760  0.50022  1.0000
  Fe  Fe124     1.0  0.45552  0.96384  0.54552  1.0000
  H   H1083     1.0  0.48515  0.90459  0.49366  1.0000
  C   C891      1.0  0.43641  0.94523  0.49072  1.0000
  S   S245      1.0  0.42418  0.78537  0.48880  1.0000
  N   N60       1.0  0.45624  0.92795  0.48539  1.0000
  S   S246      1.0  0.40469  0.98306  0.52512  1.0000
  H   H1084     1.0  0.43529  0.90160  0.49220  1.0000
  H   H1085     1.0  0.42402  0.95222  0.48339  1.0000
  C   C892      1.0  0.43912  0.66830  0.48185  1.0000
  C   C893      1.0  0.44658  0.90863  0.48298  1.0000
  H   H1086     1.0  0.45401  0.97016  0.58143  1.0000
  H   H1087     1.0  0.44792  0.97586  0.59837  1.0000
  H   H1088     1.0  0.47921  0.93315  0.49790  1.0000
  S   S247      1.0  0.47785  0.79277  0.48139  1.0000
  H   H1089     1.0  0.49111  0.86178  0.49398  1.0000
  C   C894      1.0  0.44364  0.98276  0.58805  1.0000
  Fe  Fe125     1.0  0.07971  0.83310  0.94594  1.0000
  S   S248      1.0  0.11076  0.81841  0.93173  1.0000
  S   S249      1.0  0.04363  0.84951  0.94241  1.0000
  Fe  Fe126     1.0  0.10542  0.82436  0.96983  1.0000
  S   S250      1.0  0.13907  0.80941  0.95789  1.0000
  C   C895      1.0  0.13453  0.89568  0.95559  1.0000
  Fe  Fe127     1.0  0.12951  0.83859  0.94115  1.0000
  S   S251      1.0  0.15335  0.86342  0.93063  1.0000
  Fe  Fe128     1.0  0.11755  0.79030  0.94960  1.0000
  S   S252      1.0  0.12591  0.75096  0.95261  1.0000
  S   S253      1.0  0.09782  0.85494  0.95396  1.0000
  S   S254      1.0  0.08454  0.80361  0.96285  1.0000
  H   H1090     1.0  0.10835  0.67912  0.94532  1.0000
  S   S255      1.0  0.10791  0.95342  0.89403  1.0000
  C   C896      1.0  0.13987  0.88897  0.92122  1.0000
  C   C897      1.0  0.11900  0.88989  0.91666  1.0000
  C   C898      1.0  0.10920  0.90992  0.90851  1.0000
  C   C899      1.0  0.11974  0.92942  0.90525  1.0000
  C   C900      1.0  0.14007  0.92889  0.91032  1.0000
  C   C901      1.0  0.15029  0.90858  0.91812  1.0000
  H   H1091     1.0  0.11085  0.87488  0.91900  1.0000
  H   H1092     1.0  0.09353  0.91018  0.90459  1.0000
  H   H1093     1.0  0.14844  0.94376  0.90774  1.0000
  H   H1094     1.0  0.16647  0.90793  0.92160  1.0000
  C   C902      1.0  0.12308  0.73201  0.94201  1.0000
  C   C903      1.0  0.11418  0.71198  0.94804  1.0000
  C   C904      1.0  0.11523  0.69440  0.94051  1.0000
  C   C905      1.0  0.13420  0.71664  0.92079  1.0000
  C   C906      1.0  0.13280  0.73444  0.92828  1.0000
  H   H1095     1.0  0.10692  0.70981  0.95870  1.0000
  C   C907      1.0  0.02567  0.72089  0.91405  1.0000
  H   H1096     1.0  0.14025  0.74951  0.92360  1.0000
  C   C908      1.0  0.03565  0.83618  0.93079  1.0000
  C   C909      1.0  0.01364  0.83038  0.93334  1.0000
  C   C910      1.0  0.00651  0.82083  0.92376  1.0000
  C   C911      1.0  0.02091  0.81804  0.91139  1.0000
  C   C912      1.0  0.04309  0.82361  0.90890  1.0000
  C   C913      1.0  0.05062  0.83241  0.91871  1.0000
  H   H1097     1.0  0.00214  0.83312  0.94274  1.0000
  H   H1098     1.0  0.10946  0.87734  0.97689  1.0000
  H   H1099     1.0  0.05433  0.82131  0.89937  1.0000
  H   H1100     1.0  0.06763  0.83707  0.91674  1.0000
  H   H1101     1.0  0.09239  0.73338  0.90980  1.0000
  C   C914      1.0  0.10602  0.89652  0.97566  1.0000
  H   H1102     1.0  0.12087  0.89984  0.94897  1.0000
  H   H1103     1.0  0.13886  0.87649  0.95786  1.0000
  S   S256      1.0  0.01116  0.80748  0.89915  1.0000
  H   H1104     1.0  0.99807  0.66630  0.94343  1.0000
  H   H1105     1.0  0.06561  0.74711  0.89289  1.0000
  C   C915      1.0  0.01883  0.69970  0.91511  1.0000
  H   H1106     1.0  0.15067  0.90121  0.94963  1.0000
  H   H1107     1.0  0.02904  0.66271  0.91879  1.0000
  C   C916      1.0  0.02061  0.92520  0.90306  1.0000
  C   C917      1.0  0.20796  0.66478  0.96487  1.0000
  C   C918      1.0  0.17608  0.69407  0.95755  1.0000
  C   C919      1.0  0.05648  0.67967  0.92025  1.0000
  H   H1108     1.0  0.09081  0.90284  0.97023  1.0000
  H   H1109     1.0  0.02160  0.76413  0.92156  1.0000
  C   C920      1.0  0.08173  0.98064  0.83728  1.0000
  H   H1110     1.0  0.03287  0.92391  0.91026  1.0000
  H   H1111     1.0  0.99551  0.65565  0.96121  1.0000
  H   H1112     1.0  0.14240  0.71833  0.91028  1.0000
  C   C921      1.0  0.06350  0.70075  0.91919  1.0000
  H   H1113     1.0  0.01947  0.94832  0.96997  1.0000
  C   C922      1.0  0.11032  0.98063  0.96144  1.0000
  H   H1114     1.0  0.03813  0.74917  0.93471  1.0000
  H   H1115     1.0  0.20781  0.71602  0.97449  1.0000
  C   C923      1.0  0.18832  0.67095  0.95802  1.0000
  C   C924      1.0  0.14565  0.89888  0.97639  1.0000
  H   H1116     1.0  0.09379  0.95429  0.85994  1.0000
  H   H1117     1.0  0.04529  0.77514  0.92420  1.0000
  H   H1118     1.0  0.01268  0.94371  0.90060  1.0000
  C   C925      1.0  0.07932  0.74303  0.91707  1.0000
  H   H1119     1.0  0.02846  0.88336  0.91749  1.0000
  H   H1120     1.0  0.16811  0.97894  0.93561  1.0000
  H   H1121     1.0  0.19728  0.66626  0.93166  1.0000
  C   C926      1.0  0.21485  0.68095  0.97071  1.0000
  H   H1122     1.0  0.00828  0.85853  0.96623  1.0000
  H   H1123     1.0  0.12896  0.93695  0.94328  1.0000
  H   H1124     1.0  0.05122  0.96564  0.96000  1.0000
  C   C927      1.0  0.99992  0.85228  0.97666  1.0000
  C   C928      1.0  0.04830  0.72209  0.91599  1.0000
  H   H1125     1.0  0.12007  0.97874  0.94021  1.0000
  C   C929      1.0  0.01513  0.88620  0.91074  1.0000
  C   C930      1.0  0.10744  0.96824  0.97452  1.0000
  C   C931      1.0  0.12060  0.93166  0.96557  1.0000
  H   H1126     1.0  0.14396  0.66795  0.95795  1.0000
  C   C932      1.0  0.18307  0.71005  0.96342  1.0000
  H   H1127     1.0  0.16092  0.90701  0.97152  1.0000
  H   H1128     1.0  0.03779  0.97216  0.88611  1.0000
  H   H1129     1.0  0.03079  0.81785  0.96541  1.0000
  H   H1130     1.0  0.12599  0.96669  0.86121  1.0000
  H   H1131     1.0  0.00275  0.87421  0.91505  1.0000
  C   C933      1.0  0.11798  0.96896  0.95038  1.0000
  H   H1132     1.0  0.05904  0.77440  0.89898  1.0000
  H   H1133     1.0  0.03612  0.76059  0.89799  1.0000
  H   H1134     1.0  0.99827  0.98283  0.91455  1.0000
  C   C934      1.0  0.11243  0.94413  0.97658  1.0000
  C   C935      1.0  0.20245  0.70352  0.96997  1.0000
  H   H1135     1.0  0.08407  0.76032  0.91590  1.0000
  C   C936      1.0  0.02066  0.81330  0.97561  1.0000
  H   H1136     1.0  0.00474  0.80851  0.97373  1.0000
  C   C937      1.0  0.12305  0.94483  0.95232  1.0000
  H   H1137     1.0  0.15180  0.87987  0.97772  1.0000
  H   H1138     1.0  0.08135  0.73445  0.92760  1.0000
  C   C938      1.0  0.05401  0.75717  0.90050  1.0000
  H   H1139     1.0  0.04633  0.84517  0.97275  1.0000
  C   C939      1.0  0.03939  0.75880  0.92418  1.0000
  C   C940      1.0  0.12858  0.98094  0.85314  1.0000
  N   N61       1.0  0.12661  0.90616  0.96813  1.0000
  H   H1140     1.0  0.02463  0.88075  0.90100  1.0000
  S   S257      1.0  0.12918  0.67374  0.91748  1.0000
  N   N62       1.0  0.00286  0.91061  0.90885  1.0000
  H   H1141     1.0  0.00154  0.69934  0.91338  1.0000
  C   C941      1.0  0.03423  0.67912  0.91816  1.0000
  H   H1142     1.0  0.16088  0.70008  0.95264  1.0000
  H   H1143     1.0  0.22990  0.67595  0.97585  1.0000
  H   H1144     1.0  0.01314  0.73636  0.91153  1.0000
  C   C942      1.0  0.12574  0.69639  0.92693  1.0000
  H   H1145     1.0  0.03103  0.92009  0.89343  1.0000
  H   H1146     1.0  0.08103  0.69980  0.92080  1.0000
  N   N63       1.0  0.05530  0.74476  0.91450  1.0000
  H   H1147     1.0  0.17327  0.72761  0.96285  1.0000
  H   H1148     1.0  0.16768  0.68020  0.93545  1.0000
  H   H1149     1.0  0.06394  0.97648  0.83916  1.0000
  H   H1150     1.0  0.09445  0.96475  0.83511  1.0000
  H   H1151     1.0  0.06854  0.66365  0.92255  1.0000
  H   H1152     1.0  0.00023  0.88677  0.93581  1.0000
  H   H1153     1.0  0.16397  0.97725  0.85637  1.0000
  H   H1154     1.0  0.08591  0.97670  0.87040  1.0000
  H   H1155     1.0  0.06432  0.96843  0.86337  1.0000
  C   C943      1.0  0.08257  0.97135  0.86118  1.0000
  H   H1156     1.0  0.99615  0.90584  0.88955  1.0000
  C   C944      1.0  0.17981  0.66349  0.93712  1.0000
  C   C945      1.0  0.02159  0.95209  0.97988  1.0000
  C   C946      1.0  0.04544  0.98382  0.96039  1.0000
  N   N64       1.0  0.18037  0.65445  0.95171  1.0000
  S   S258      1.0  0.92596  0.30164  0.99089  1.0000
  C   C947      1.0  0.92960  0.98764  0.00936  1.0000
  H   H1157     1.0  0.87388  0.98820  0.99621  1.0000
  H   H1158     1.0  0.91412  0.20209  0.99581  1.0000
  C   C948      1.0  0.94142  0.18385  0.98250  1.0000
  H   H1159     1.0  0.97824  0.99980  0.01699  1.0000
  H   H1160     1.0  0.98434  0.22080  0.00097  1.0000
  S   S259      1.0  0.97992  0.30710  0.98195  1.0000
  C   C949      1.0  0.93988  0.22308  0.98642  1.0000
  H   H1161     1.0  0.93234  0.04035  0.98994  1.0000
  H   H1162     1.0  0.90817  0.01001  0.99566  1.0000
  C   C950      1.0  0.93716  0.02489  0.99701  1.0000
  H   H1163     1.0  0.84307  0.01898  0.99473  1.0000
  H   H1164     1.0  0.93137  0.23743  0.99164  1.0000
  S   S260      1.0  0.97446  0.04318  0.99902  1.0000
  C   C951      1.0  0.93022  0.20298  0.98885  1.0000
  C   C952      1.0  0.95686  0.02213  0.00310  1.0000
  C   C953      1.0  0.85571  0.03039  0.98970  1.0000
  C   C954      1.0  0.92346  0.00776  0.00025  1.0000
  H   H1165     1.0  0.99366  0.25315  0.00213  1.0000
  H   H1166     1.0  0.86984  0.02736  0.99590  1.0000
  H   H1167     1.0  0.99363  0.19075  0.00354  1.0000
  H   H1168     1.0  0.84644  0.04847  0.99015  1.0000
  C   C955      1.0  0.96315  0.00191  0.01213  1.0000
  S   S261      1.0  0.92877  0.15887  0.98588  1.0000
  Fe  Fe129     1.0  0.96265  0.07380  0.98363  1.0000
  S   S262      1.0  0.97986  0.10420  0.98145  1.0000
  H   H1169     1.0  0.98115  0.00115  0.98128  1.0000
  S   S263      1.0  0.92751  0.09572  0.98111  1.0000
  H   H1170     1.0  0.99173  0.20634  0.01726  1.0000
  Fe  Fe130     1.0  0.63614  0.10138  0.44431  1.0000
  S   S264      1.0  0.64460  0.11529  0.42219  1.0000
  S   S265      1.0  0.66551  0.09193  0.45636  1.0000
  Fe  Fe131     1.0  0.58550  0.10614  0.44308  1.0000
  S   S266      1.0  0.58987  0.12040  0.42093  1.0000
  S   S267      1.0  0.54941  0.10397  0.45402  1.0000
  Fe  Fe132     1.0  0.62136  0.09227  0.41923  1.0000
  S   S268      1.0  0.62974  0.07270  0.40133  1.0000
  Fe  Fe133     1.0  0.61235  0.14197  0.42607  1.0000
  S   S269      1.0  0.60943  0.17988  0.41685  1.0000
  S   S270      1.0  0.61551  0.07637  0.44118  1.0000
  S   S271      1.0  0.60552  0.12962  0.44842  1.0000
  H   H1171     1.0  0.51352  0.03000  0.40086  1.0000
  S   S272      1.0  0.60999  0.25683  0.45172  1.0000
  C   C956      1.0  0.49978  0.19274  0.41973  1.0000
  C   C957      1.0  0.58581  0.06254  0.38104  1.0000
  H   H1172     1.0  0.53446  0.23296  0.40951  1.0000
  H   H1173     1.0  0.52918  0.17207  0.45314  1.0000
  C   C958      1.0  0.52971  0.19020  0.45231  1.0000
  C   C959      1.0  0.59419  0.04228  0.47584  1.0000
  C   C960      1.0  0.54954  0.27087  0.43815  1.0000
  C   C961      1.0  0.66780  0.21099  0.42012  1.0000
  C   C962      1.0  0.54885  0.22265  0.44275  1.0000
  H   H1174     1.0  0.54285  0.00572  0.36942  1.0000
  C   C963      1.0  0.50964  0.27735  0.44833  1.0000
  C   C964      1.0  0.58821  0.04740  0.37189  1.0000
  H   H1175     1.0  0.66926  0.23532  0.43267  1.0000
  C   C965      1.0  0.67169  0.20078  0.44388  1.0000
  H   H1176     1.0  0.69353  0.17464  0.46560  1.0000
  C   C966      1.0  0.62545  0.04407  0.40250  1.0000
  C   C967      1.0  0.61408  0.03256  0.41434  1.0000
  C   C968      1.0  0.61045  0.01005  0.41474  1.0000
  H   H1177     1.0  0.63600  0.16431  0.46181  1.0000
  C   C969      1.0  0.62918  0.01043  0.39144  1.0000
  C   C970      1.0  0.63308  0.03285  0.39109  1.0000
  H   H1178     1.0  0.60802  0.04104  0.42315  1.0000
  H   H1179     1.0  0.56159  0.18820  0.43815  1.0000
  S   S273      1.0  0.62742  0.31559  0.45276  1.0000
  H   H1180     1.0  0.64190  0.04163  0.38190  1.0000
  C   C971      1.0  0.60982  0.20115  0.42657  1.0000
  C   C972      1.0  0.60964  0.19573  0.44056  1.0000
  C   C973      1.0  0.60994  0.21294  0.44807  1.0000
  C   C974      1.0  0.61045  0.23576  0.44167  1.0000
  C   C975      1.0  0.61053  0.24127  0.42766  1.0000
  C   C976      1.0  0.61010  0.22403  0.42016  1.0000
  H   H1181     1.0  0.60902  0.17832  0.44561  1.0000
  H   H1182     1.0  0.60964  0.20859  0.45891  1.0000
  H   H1183     1.0  0.61089  0.25879  0.42261  1.0000
  H   H1184     1.0  0.61020  0.22837  0.40934  1.0000
  H   H1185     1.0  0.52218  0.11277  0.42293  1.0000
  C   C977      1.0  0.53902  0.08406  0.44751  1.0000
  C   C978      1.0  0.55417  0.07006  0.43886  1.0000
  C   C979      1.0  0.56980  0.06068  0.39292  1.0000
  H   H1186     1.0  0.57228  0.07133  0.43627  1.0000
  H   H1187     1.0  0.56772  0.26304  0.43949  1.0000
  H   H1188     1.0  0.54856  0.28981  0.43706  1.0000
  N   N65       1.0  0.53258  0.26219  0.44969  1.0000
  C   C980      1.0  0.54593  0.05423  0.43352  1.0000
  H   H1189     1.0  0.60173  0.00127  0.42397  1.0000
  N   N66       1.0  0.67313  0.15921  0.45586  1.0000
  C   C981      1.0  0.69252  0.13985  0.45285  1.0000
  H   H1190     1.0  0.57771  0.01889  0.36719  1.0000
  C   C982      1.0  0.65111  0.15027  0.45971  1.0000
  C   C983      1.0  0.67157  0.17720  0.44370  1.0000
  C   C984      1.0  0.66983  0.21732  0.43222  1.0000
  C   C985      1.0  0.66914  0.17146  0.43123  1.0000
  H   H1191     1.0  0.69233  0.08752  0.47726  1.0000
  C   C986      1.0  0.66740  0.18812  0.41963  1.0000
  H   H1192     1.0  0.54052  0.12846  0.42777  1.0000
  H   H1193     1.0  0.70928  0.14599  0.44923  1.0000
  C   C987      1.0  0.58189  0.03756  0.46672  1.0000
  H   H1194     1.0  0.68960  0.13074  0.44499  1.0000
  H   H1195     1.0  0.52701  0.25939  0.47146  1.0000
  C   C988      1.0  0.51464  0.30218  0.41179  1.0000
  H   H1196     1.0  0.58923  0.03878  0.45606  1.0000
  H   H1197     1.0  0.50211  0.15125  0.40163  1.0000
  H   H1198     1.0  0.50368  0.09349  0.45725  1.0000
  H   H1199     1.0  0.62168  0.08687  0.47417  1.0000
  C   C989      1.0  0.61791  0.99892  0.40330  1.0000
  H   H1200     1.0  0.66794  0.15411  0.43041  1.0000
  C   C990      1.0  0.50699  0.06740  0.44478  1.0000
  H   H1201     1.0  0.66480  0.18340  0.41036  1.0000
  H   H1202     1.0  0.63518  0.00199  0.38261  1.0000
  S   S274      1.0  0.50139  0.28042  0.40915  1.0000
  H   H1203     1.0  0.56861  0.07196  0.40025  1.0000
  H   H1204     1.0  0.49832  0.19717  0.46648  1.0000
  H   H1205     1.0  0.51051  0.29593  0.44724  1.0000
  C   C991      1.0  0.55790  0.02807  0.38657  1.0000
  H   H1206     1.0  0.69459  0.12628  0.46191  1.0000
  H   H1207     1.0  0.53128  0.99994  0.47551  1.0000
  C   C992      1.0  0.52953  0.21613  0.41209  1.0000
  H   H1208     1.0  0.55785  0.04321  0.42698  1.0000
  C   C993      1.0  0.53964  0.26465  0.46241  1.0000
  C   C994      1.0  0.52846  0.12949  0.42053  1.0000
  H   H1209     1.0  0.60118  0.04855  0.36285  1.0000
  H   H1210     1.0  0.56452  0.19767  0.40778  1.0000
  H   H1211     1.0  0.66574  0.22398  0.41121  1.0000
  H   H1212     1.0  0.53841  0.13036  0.41007  1.0000
  C   C995      1.0  0.52230  0.05315  0.43631  1.0000
  H   H1213     1.0  0.65136  0.13679  0.46891  1.0000
  C   C996      1.0  0.51647  0.17207  0.41875  1.0000
  C   C997      1.0  0.51836  0.02095  0.39193  1.0000
  H   H1214     1.0  0.67881  0.15342  0.47666  1.0000
  N   N67       1.0  0.54333  0.01005  0.38991  1.0000
  H   H1215     1.0  0.55092  0.02872  0.46366  1.0000
  C   C998      1.0  0.55594  0.04384  0.39563  1.0000
  H   H1216     1.0  0.56356  0.22844  0.43608  1.0000
  H   H1217     1.0  0.54645  0.26726  0.42841  1.0000
  H   H1218     1.0  0.59700  0.07522  0.37919  1.0000
  Fe  Fe134     1.0  0.60751  0.29533  0.44420  1.0000
  H   H1219     1.0  0.66240  0.18109  0.47127  1.0000
  H   H1220     1.0  0.55409  0.15993  0.41335  1.0000
  C   C999      1.0  0.51338  0.22764  0.45896  1.0000
  H   H1221     1.0  0.54489  0.00411  0.41142  1.0000
  C   C1000     1.0  0.53140  0.23767  0.45017  1.0000
  C   C1001     1.0  0.67718  0.16758  0.46783  1.0000
  N   N68       1.0  0.50898  0.14941  0.42182  1.0000
  C   C1002     1.0  0.51243  0.20434  0.45983  1.0000
  C   C1003     1.0  0.54795  0.19931  0.44387  1.0000
  C   C1004     1.0  0.54638  0.19625  0.41110  1.0000
  H   H1222     1.0  0.55700  0.25368  0.46369  1.0000
  H   H1223     1.0  0.50336  0.27507  0.43917  1.0000
  C   C1005     1.0  0.54009  0.17450  0.41439  1.0000
  S   S275      1.0  0.51223  0.03393  0.42907  1.0000
  C   C1006     1.0  0.51544  0.08264  0.45056  1.0000
  C   C1007     1.0  0.57458  0.03031  0.37457  1.0000
  H   H1224     1.0  0.54392  0.04301  0.40502  1.0000
  C   C1008     1.0  0.53836  0.30166  0.40702  1.0000
  C   C1009     1.0  0.54871  0.99470  0.40262  1.0000
  C   C1010     1.0  0.54696  0.99536  0.37925  1.0000
  H   H1225     1.0  0.64779  0.14207  0.45159  1.0000
  H   H1226     1.0  0.54104  0.28276  0.46249  1.0000
  H   H1227     1.0  0.67268  0.20705  0.45294  1.0000
  S   S276      1.0  0.57322  0.31796  0.45023  1.0000
  H   H1228     1.0  0.50677  0.00807  0.39371  1.0000
  H   H1229     1.0  0.54836  0.28805  0.40156  1.0000
  H   H1230     1.0  0.51384  0.03376  0.38291  1.0000
  H   H1231     1.0  0.50785  0.14588  0.44336  1.0000
  S   S277      1.0  0.61326  0.31467  0.42288  1.0000
  C   C1011     1.0  0.49639  0.14591  0.43592  1.0000
  C   C1012     1.0  0.55992  0.03177  0.47121  1.0000
  C   C1013     1.0  0.65770  0.08748  0.47407  1.0000
  H   H1232     1.0  0.51239  0.03984  0.47101  1.0000
  H   H1233     1.0  0.61108  0.04715  0.47228  1.0000
  C   C1014     1.0  0.50629  0.21437  0.41640  1.0000
  C   C1015     1.0  0.54937  0.31829  0.40971  1.0000
  H   H1234     1.0  0.56782  0.31758  0.40628  1.0000
  H   H1235     1.0  0.49991  0.23762  0.46533  1.0000
  H   H1236     1.0  0.49609  0.27420  0.45726  1.0000
  H   H1237     1.0  0.56745  0.98666  0.40160  1.0000
  H   H1238     1.0  0.65792  0.98609  0.46265  1.0000
  C   C1016     1.0  0.63490  0.08585  0.48030  1.0000
  Fe  Fe135     1.0  0.93517  0.24817  0.68196  1.0000
  H   H1239     1.0  0.59066  0.23367  0.70872  1.0000
  Fe  Fe136     1.0  0.87164  0.12939  0.68880  1.0000
  S   S278      1.0  0.84901  0.14635  0.70591  1.0000
  Fe  Fe137     1.0  0.87681  0.09916  0.66745  1.0000
  S   S279      1.0  0.85647  0.07513  0.66232  1.0000
  S   S280      1.0  0.85973  0.13590  0.66864  1.0000
  Fe  Fe138     1.0  0.72116  0.08431  0.60692  1.0000
  S   S281      1.0  0.69174  0.09821  0.62246  1.0000
  S   S282      1.0  0.71828  0.06818  0.58881  1.0000
  Fe  Fe139     1.0  0.75774  0.10152  0.61823  1.0000
  S   S283      1.0  0.73117  0.11624  0.63449  1.0000
  S   S284      1.0  0.79362  0.11019  0.61596  1.0000
  Fe  Fe140     1.0  0.71707  0.08391  0.63710  1.0000
  S   S285      1.0  0.70744  0.06819  0.65885  1.0000
  Fe  Fe141     1.0  0.70843  0.12950  0.61863  1.0000
  S   S286      1.0  0.68865  0.16596  0.61866  1.0000
  S   S287      1.0  0.74561  0.06759  0.62201  1.0000
  S   S288      1.0  0.73581  0.11718  0.60190  1.0000
  Fe  Fe142     1.0  0.74046  0.26706  0.62697  1.0000
  S   S289      1.0  0.76135  0.29522  0.62112  1.0000
  S   S290      1.0  0.75627  0.23276  0.62055  1.0000
  H   H1240     1.0  0.56654  0.28071  0.71351  1.0000
  S   S291      1.0  0.73346  0.27010  0.64887  1.0000
  S   S292      1.0  0.70683  0.28952  0.62239  1.0000
  C   C1017     1.0  0.67607  0.09389  0.54569  1.0000
  S   S293      1.0  0.60533  0.04829  0.55092  1.0000
  S   S294      1.0  0.90572  0.14035  0.68046  1.0000
  C   C1018     1.0  0.83844  0.29053  0.66730  1.0000
  Fe  Fe143     1.0  0.89530  0.14342  0.66013  1.0000
  C   C1019     1.0  0.64619  0.08242  0.50243  1.0000
  H   H1241     1.0  0.81849  0.20036  0.69796  1.0000
  Fe  Fe144     1.0  0.63633  0.13324  0.71419  1.0000
  S   S295      1.0  0.89856  0.30739  0.68880  1.0000
  S   S296      1.0  0.64795  0.14523  0.69207  1.0000
  C   C1020     1.0  0.53452  0.00763  0.54695  1.0000
  C   C1021     1.0  0.64229  0.13475  0.58471  1.0000
  C   C1022     1.0  0.95474  0.04975  0.65684  1.0000
  C   C1023     1.0  0.91000  0.03893  0.66738  1.0000
  S   S297      1.0  0.63909  0.08142  0.52006  1.0000
  H   H1242     1.0  0.79146  0.24594  0.66468  1.0000
  H   H1243     1.0  0.90389  0.22116  0.71769  1.0000
  C   C1024     1.0  0.91936  0.18722  0.65186  1.0000
  C   C1025     1.0  0.63927  0.08742  0.55852  1.0000
  H   H1244     1.0  0.68515  0.07860  0.55193  1.0000
  H   H1245     1.0  0.98891  0.05795  0.66984  1.0000
  S   S298      1.0  0.61242  0.99207  0.55334  1.0000
  H   H1246     1.0  0.64752  0.03325  0.60197  1.0000
  H   H1247     1.0  0.79707  0.11846  0.72690  1.0000
  S   S299      1.0  0.63883  0.09683  0.72515  1.0000
  S   S300      1.0  0.65001  0.14579  0.72971  1.0000
  H   H1248     1.0  0.96294  0.08868  0.63952  1.0000
  H   H1249     1.0  0.89519  0.14448  0.72533  1.0000
  C   C1026     1.0  0.52139  0.13159  0.71937  1.0000
  C   C1027     1.0  0.79437  0.14114  0.68915  1.0000
  C   C1028     1.0  0.51768  0.02389  0.50421  1.0000
  H   H1250     1.0  0.91829  0.21262  0.70197  1.0000
  C   C1029     1.0  0.83913  0.30798  0.64377  1.0000
  C   C1030     1.0  0.98197  0.11661  0.67176  1.0000
  C   C1031     1.0  0.55504  0.26874  0.71291  1.0000
  S   S301      1.0  0.88652  0.09198  0.68838  1.0000
  Fe  Fe145     1.0  0.58899  0.02317  0.54407  1.0000
  H   H1251     1.0  0.66561  0.18630  0.69322  1.0000
  C   C1032     1.0  0.66333  0.03042  0.58130  1.0000
  C   C1033     1.0  0.68183  0.03539  0.57115  1.0000
  C   C1034     1.0  0.69850  0.04674  0.57373  1.0000
  C   C1035     1.0  0.69668  0.05376  0.58635  1.0000
  C   C1036     1.0  0.67804  0.04901  0.59647  1.0000
  C   C1037     1.0  0.93738  0.05320  0.64848  1.0000
  H   H1252     1.0  0.68359  0.03008  0.56139  1.0000
  H   H1253     1.0  0.71304  0.05002  0.56591  1.0000
  H   H1254     1.0  0.67646  0.05418  0.60626  1.0000
  H   H1255     1.0  0.69218  0.24890  0.67433  1.0000
  C   C1038     1.0  0.70728  0.18448  0.61952  1.0000
  C   C1039     1.0  0.73139  0.17701  0.61740  1.0000
  C   C1040     1.0  0.74622  0.19189  0.61790  1.0000
  C   C1041     1.0  0.73706  0.21426  0.62067  1.0000
  C   C1042     1.0  0.71292  0.22171  0.62303  1.0000
  C   C1043     1.0  0.69805  0.20688  0.62233  1.0000
  H   H1256     1.0  0.73872  0.15987  0.61507  1.0000
  H   H1257     1.0  0.76486  0.18604  0.61600  1.0000
  H   H1258     1.0  0.70571  0.23895  0.62516  1.0000
  H   H1259     1.0  0.67941  0.21274  0.62389  1.0000
  C   C1044     1.0  0.66493  0.12375  0.68305  1.0000
  C   C1045     1.0  0.67488  0.10241  0.68979  1.0000
  C   C1046     1.0  0.68778  0.08523  0.68233  1.0000
  C   C1047     1.0  0.69095  0.08950  0.66814  1.0000
  C   C1048     1.0  0.68127  0.11097  0.66144  1.0000
  C   C1049     1.0  0.66826  0.12804  0.66888  1.0000
  H   H1260     1.0  0.67273  0.09910  0.70072  1.0000
  H   H1261     1.0  0.69540  0.06868  0.68753  1.0000
  H   H1262     1.0  0.68349  0.11435  0.65048  1.0000
  H   H1263     1.0  0.66046  0.14444  0.66360  1.0000
  C   C1050     1.0  0.84462  0.12790  0.72143  1.0000
  S   S302      1.0  0.77278  0.29943  0.65938  1.0000
  H   H1264     1.0  0.89273  0.03530  0.67143  1.0000
  H   H1265     1.0  0.51611  0.04118  0.50708  1.0000
  S   S303      1.0  0.66882  0.29252  0.65858  1.0000
  H   H1266     1.0  0.85342  0.09650  0.71287  1.0000
  C   C1051     1.0  0.83981  0.08470  0.64904  1.0000
  C   C1052     1.0  0.82459  0.07111  0.64723  1.0000
  C   C1053     1.0  0.81020  0.07879  0.63719  1.0000
  C   C1054     1.0  0.81147  0.09982  0.62862  1.0000
  C   C1055     1.0  0.82715  0.11312  0.63020  1.0000
  C   C1056     1.0  0.84105  0.10576  0.64050  1.0000
  H   H1267     1.0  0.82374  0.05468  0.65371  1.0000
  H   H1268     1.0  0.79837  0.06830  0.63594  1.0000
  H   H1269     1.0  0.82832  0.12933  0.62353  1.0000
  H   H1270     1.0  0.85285  0.11628  0.64173  1.0000
  C   C1057     1.0  0.80302  0.29867  0.65716  1.0000
  H   H1271     1.0  0.53704  0.27831  0.71540  1.0000
  H   H1272     1.0  0.98930  0.02707  0.64093  1.0000
  C   C1058     1.0  0.94449  0.20413  0.66703  1.0000
  C   C1059     1.0  0.92787  0.21927  0.65997  1.0000
  C   C1060     1.0  0.91530  0.21082  0.65237  1.0000
  H   H1273     1.0  0.92428  0.23746  0.66057  1.0000
  H   H1274     1.0  0.90180  0.22243  0.64743  1.0000
  C   C1061     1.0  0.52092  0.23764  0.72126  1.0000
  C   C1062     1.0  0.58464  0.04102  0.48951  1.0000
  H   H1275     1.0  0.52926  0.01096  0.51050  1.0000
  N   N69       1.0  0.52630  0.02410  0.48949  1.0000
  C   C1063     1.0  0.62920  0.08302  0.49453  1.0000
  H   H1276     1.0  0.62153  0.12793  0.57170  1.0000
  H   H1277     1.0  0.67254  0.08746  0.53687  1.0000
  H   H1278     1.0  0.65950  0.19896  0.71505  1.0000
  C   C1064     1.0  0.91135  0.20584  0.71262  1.0000
  C   C1065     1.0  0.90497  0.17349  0.70439  1.0000
  C   C1066     1.0  0.63910  0.12583  0.57363  1.0000
  H   H1279     1.0  0.66700  0.13895  0.59652  1.0000
  H   H1280     1.0  0.51779  0.09288  0.68115  1.0000
  H   H1281     1.0  0.91072  0.18148  0.69375  1.0000
  C   C1067     1.0  0.81542  0.30722  0.64478  1.0000
  C   C1068     1.0  0.52708  0.00072  0.48655  1.0000
  H   H1282     1.0  0.85975  0.19508  0.70841  1.0000
  C   C1069     1.0  0.84164  0.20547  0.66453  1.0000
  H   H1283     1.0  0.79049  0.23762  0.64249  1.0000
  C   C1070     1.0  0.65818  0.11414  0.56532  1.0000
  C   C1071     1.0  0.50912  0.04087  0.48201  1.0000
  C   C1072     1.0  0.94855  0.04083  0.67077  1.0000
  C   C1073     1.0  0.50269  0.11979  0.72337  1.0000
  C   C1074     1.0  0.92649  0.03555  0.67589  1.0000
  N   N70       1.0  0.65430  0.10495  0.55363  1.0000
  H   H1284     1.0  0.78044  0.10946  0.71668  1.0000
  N   N71       1.0  0.60525  0.08560  0.69079  1.0000
  C   C1075     1.0  0.60529  0.10611  0.69680  1.0000
  C   C1076     1.0  0.61199  0.06457  0.70064  1.0000
  C   C1077     1.0  0.62350  0.08513  0.67856  1.0000
  C   C1078     1.0  0.58161  0.08676  0.68787  1.0000
  C   C1079     1.0  0.57636  0.09090  0.67446  1.0000
  C   C1080     1.0  0.56271  0.08493  0.69864  1.0000
  C   C1081     1.0  0.55358  0.09291  0.67213  1.0000
  C   C1082     1.0  0.54003  0.08708  0.69620  1.0000
  C   C1083     1.0  0.53546  0.09107  0.68297  1.0000
  H   H1285     1.0  0.59332  0.10661  0.70664  1.0000
  H   H1286     1.0  0.62289  0.10636  0.69879  1.0000
  H   H1287     1.0  0.59987  0.12239  0.68991  1.0000
  H   H1288     1.0  0.60138  0.06504  0.71090  1.0000
  H   H1289     1.0  0.63033  0.06244  0.70226  1.0000
  H   H1290     1.0  0.61018  0.04879  0.69706  1.0000
  H   H1291     1.0  0.62390  0.07043  0.67330  1.0000
  H   H1292     1.0  0.62114  0.10154  0.67128  1.0000
  H   H1293     1.0  0.64118  0.08307  0.68116  1.0000
  H   H1294     1.0  0.58948  0.09281  0.66560  1.0000
  H   H1295     1.0  0.56527  0.08215  0.70908  1.0000
  H   H1296     1.0  0.54991  0.09608  0.66183  1.0000
  H   H1297     1.0  0.52586  0.08589  0.70463  1.0000
  H   H1298     1.0  0.86596  0.22074  0.71243  1.0000
  H   H1299     1.0  0.77201  0.11030  0.64806  1.0000
  S   S304      1.0  0.95715  0.21400  0.67839  1.0000
  C   C1084     1.0  0.74179  0.10673  0.67034  1.0000
  C   C1085     1.0  0.76887  0.12389  0.67937  1.0000
  S   S305      1.0  0.55044  0.02998  0.54383  1.0000
  H   H1300     1.0  0.73810  0.15750  0.70302  1.0000
  C   C1086     1.0  0.65083  0.30333  0.68389  1.0000
  C   C1087     1.0  0.68056  0.11164  0.56893  1.0000
  C   C1088     1.0  0.83942  0.19749  0.67846  1.0000
  S   S306      1.0  0.65584  0.01892  0.53854  1.0000
  C   C1089     1.0  0.93712  0.17241  0.65810  1.0000
  C   C1090     1.0  0.97992  0.09755  0.68190  1.0000
  C   C1091     1.0  0.82009  0.20666  0.68716  1.0000
  H   H1301     1.0  0.80524  0.28328  0.67795  1.0000
  C   C1092     1.0  0.77427  0.12027  0.65569  1.0000
  H   H1302     1.0  0.70075  0.11830  0.58265  1.0000
  H   H1303     1.0  0.77836  0.07476  0.66543  1.0000
  H   H1304     1.0  0.79921  0.08621  0.67107  1.0000
  H   H1305     1.0  0.89245  0.16255  0.70385  1.0000
  Fe  Fe146     1.0  0.62878  0.04805  0.53093  1.0000
  H   H1306     1.0  0.96729  0.12502  0.66676  1.0000
  H   H1307     1.0  0.80816  0.25089  0.62817  1.0000
  H   H1308     1.0  0.73021  0.12342  0.66739  1.0000
  S   S307      1.0  0.91194  0.10713  0.65722  1.0000
  S   S308      1.0  0.61049  0.02551  0.52336  1.0000
  C   C1093     1.0  0.78029  0.08609  0.67246  1.0000
  H   H1309     1.0  0.74064  0.09531  0.66316  1.0000
  C   C1094     1.0  0.51535  0.01090  0.54034  1.0000
  S   S309      1.0  0.87233  0.26368  0.72027  1.0000
  H   H1310     1.0  0.59076  0.22182  0.72643  1.0000
  C   C1095     1.0  0.80600  0.24605  0.63940  1.0000
  C   C1096     1.0  0.54961  0.03034  0.48507  1.0000
  H   H1311     1.0  0.68541  0.26069  0.69657  1.0000
  H   H1312     1.0  0.66925  0.23597  0.71704  1.0000
  H   H1313     1.0  0.51929  0.14799  0.71272  1.0000
  H   H1314     1.0  0.63529  0.29784  0.68277  1.0000
  H   H1315     1.0  0.79306  0.12112  0.65396  1.0000
  Fe  Fe147     1.0  0.75167  0.30031  0.64292  1.0000
  H   H1316     1.0  0.55643  0.03451  0.50489  1.0000
  Fe  Fe148     1.0  0.63131  0.01764  0.55823  1.0000
  S   S310      1.0  0.95406  0.08587  0.68617  1.0000
  H   H1317     1.0  0.53237  0.31090  0.49459  1.0000
  H   H1318     1.0  0.59567  0.25028  0.72038  1.0000
  C   C1097     1.0  0.56273  0.03504  0.49416  1.0000
  H   H1319     1.0  0.62748  0.14347  0.59098  1.0000
  H   H1320     1.0  0.78832  0.23170  0.68875  1.0000
  C   C1098     1.0  0.80505  0.23210  0.66799  1.0000
  H   H1321     1.0  0.60226  0.98596  0.50571  1.0000
  H   H1322     1.0  0.96260  0.16904  0.67109  1.0000
  H   H1323     1.0  0.50999  0.99516  0.49011  1.0000
  Fe  Fe149     1.0  0.70178  0.29536  0.64395  1.0000
  H   H1324     1.0  0.68817  0.10618  0.54157  1.0000
  N   N72       1.0  0.97755  0.05655  0.65118  1.0000
  H   H1325     1.0  0.50951  0.05891  0.48298  1.0000
  C   C1099     1.0  0.68353  0.12073  0.57998  1.0000
  H   H1326     1.0  0.62143  0.09485  0.56311  1.0000
  C   C1100     1.0  0.50691  0.22298  0.71941  1.0000
  C   C1101     1.0  0.80307  0.22410  0.68195  1.0000
  Fe  Fe150     1.0  0.63505  0.99596  0.53295  1.0000
  C   C1102     1.0  0.98811  0.04613  0.63880  1.0000
  H   H1327     1.0  0.80209  0.26261  0.64343  1.0000
  N   N73       1.0  0.82708  0.23061  0.64396  1.0000
  C   C1103     1.0  0.84659  0.24340  0.63999  1.0000
  C   C1104     1.0  0.83248  0.21058  0.63658  1.0000
  H   H1328     1.0  0.96014  0.03844  0.67807  1.0000
  H   H1329     1.0  0.61156  0.08196  0.49936  1.0000
  H   H1330     1.0  0.62491  0.13162  0.54882  1.0000
  C   C1105     1.0  0.82428  0.22262  0.65880  1.0000
  H   H1331     1.0  0.86341  0.23218  0.64200  1.0000
  H   H1332     1.0  0.84886  0.25068  0.62900  1.0000
  H   H1333     1.0  0.84371  0.25798  0.64577  1.0000
  H   H1334     1.0  0.84981  0.19965  0.63777  1.0000
  H   H1335     1.0  0.83298  0.21611  0.62545  1.0000
  H   H1336     1.0  0.81917  0.19939  0.64015  1.0000
  H   H1337     1.0  0.92195  0.02933  0.68661  1.0000
  C   C1106     1.0  0.87362  0.20538  0.70738  1.0000
  C   C1107     1.0  0.50151  0.99408  0.54275  1.0000
  N   N74       1.0  0.73022  0.27414  0.58021  1.0000
  C   C1108     1.0  0.71916  0.25696  0.59048  1.0000
  C   C1109     1.0  0.74740  0.26121  0.57043  1.0000
  C   C1110     1.0  0.74328  0.28570  0.58700  1.0000
  C   C1111     1.0  0.71211  0.29154  0.57386  1.0000
  C   C1112     1.0  0.69412  0.30486  0.58197  1.0000
  C   C1113     1.0  0.71178  0.29598  0.55964  1.0000
  H   H1338     1.0  0.54042  0.98778  0.49163  1.0000
  C   C1114     1.0  0.69449  0.31274  0.55402  1.0000
  H   H1339     1.0  0.57006  0.99073  0.52486  1.0000
  H   H1340     1.0  0.70834  0.24852  0.58592  1.0000
  H   H1341     1.0  0.73236  0.24311  0.59510  1.0000
  H   H1342     1.0  0.70779  0.26473  0.59905  1.0000
  H   H1343     1.0  0.76057  0.24815  0.57561  1.0000
  H   H1344     1.0  0.75726  0.27290  0.56275  1.0000
  H   H1345     1.0  0.73882  0.25158  0.56517  1.0000
  H   H1346     1.0  0.73193  0.29464  0.59510  1.0000
  H   H1347     1.0  0.75712  0.27320  0.59192  1.0000
  H   H1348     1.0  0.75150  0.29912  0.57970  1.0000
  H   H1349     1.0  0.69345  0.30288  0.59281  1.0000
  H   H1350     1.0  0.72469  0.28686  0.55260  1.0000
  C   C1115     1.0  0.99206  0.30541  0.68920  1.0000
  H   H1351     1.0  0.69455  0.31604  0.54315  1.0000
  H   H1352     1.0  0.97628  0.17673  0.70139  1.0000
  N   N75       1.0  0.68356  0.20966  0.66770  1.0000
  C   C1116     1.0  0.67010  0.22776  0.65862  1.0000
  C   C1117     1.0  0.70861  0.20731  0.66187  1.0000
  C   C1118     1.0  0.67640  0.18748  0.66769  1.0000
  C   C1119     1.0  0.67971  0.21634  0.68136  1.0000
  C   C1120     1.0  0.68519  0.23740  0.68296  1.0000
  C   C1121     1.0  0.67043  0.20254  0.69335  1.0000
  C   C1122     1.0  0.68143  0.24432  0.69568  1.0000
  C   C1123     1.0  0.66681  0.20961  0.70604  1.0000
  C   C1124     1.0  0.67226  0.23045  0.70720  1.0000
  H   H1353     1.0  0.65136  0.23130  0.66308  1.0000
  H   H1354     1.0  0.67637  0.24439  0.65663  1.0000
  H   H1355     1.0  0.67139  0.22273  0.64850  1.0000
  H   H1356     1.0  0.71485  0.22392  0.66021  1.0000
  H   H1357     1.0  0.71228  0.20151  0.65179  1.0000
  H   H1358     1.0  0.71947  0.19456  0.66866  1.0000
  H   H1359     1.0  0.65750  0.18821  0.67156  1.0000
  H   H1360     1.0  0.67945  0.18298  0.65728  1.0000
  H   H1361     1.0  0.68633  0.17281  0.67396  1.0000
  C   C1125     1.0  0.81469  0.29006  0.66835  1.0000
  H   H1362     1.0  0.55752  0.26601  0.70219  1.0000
  C   C1126     1.0  0.64258  0.12388  0.54417  1.0000
  S   S311      1.0  0.90014  0.17556  0.64538  1.0000
  S   S312      1.0  0.89630  0.25497  0.68437  1.0000
  H   H1363     1.0  0.54813  0.17535  0.71483  1.0000
  S   S313      1.0  0.59889  0.14432  0.72275  1.0000
  H   H1364     1.0  0.73449  0.09849  0.68057  1.0000
  H   H1365     1.0  0.77508  0.07757  0.68300  1.0000
  S   S314      1.0  0.93652  0.26240  0.70041  1.0000
  C   C1127     1.0  0.66163  0.03716  0.59400  1.0000
  C   C1128     1.0  0.84789  0.10400  0.72204  1.0000
  S   S315      1.0  0.93876  0.28056  0.66737  1.0000
  C   C1129     1.0  0.54061  0.19288  0.71646  1.0000
  H   H1366     1.0  0.85727  0.19821  0.65829  1.0000
  C   C1130     1.0  0.75296  0.14898  0.69668  1.0000
  H   H1367     1.0  0.85286  0.18415  0.68251  1.0000
  C   C1131     1.0  0.66885  0.08428  0.49614  1.0000
  H   H1368     1.0  0.98314  0.27254  0.69844  1.0000
  C   C1132     1.0  0.94966  0.18080  0.66575  1.0000
  H   H1369     1.0  0.94054  0.15428  0.65739  1.0000
  H   H1370     1.0  0.51117  0.02658  0.53332  1.0000
  S   S316      1.0  0.64273  0.01492  0.57869  1.0000
  H   H1371     1.0  0.73198  0.13360  0.68787  1.0000
  Fe  Fe151     1.0  0.89782  0.27249  0.70156  1.0000
  H   H1372     1.0  0.90218  0.05105  0.64725  1.0000
  H   H1373     1.0  0.92065  0.16220  0.70805  1.0000
  H   H1374     1.0  0.51235  0.25466  0.72340  1.0000
  H   H1375     1.0  0.50004  0.01927  0.50718  1.0000
  N   N76       1.0  0.55991  0.24651  0.72215  1.0000
  H   H1376     1.0  0.64667  0.07367  0.56635  1.0000
  H   H1377     1.0  0.92635  0.19599  0.71757  1.0000
  H   H1378     1.0  0.94030  0.06090  0.63795  1.0000
  H   H1379     1.0  0.59422  0.04500  0.49651  1.0000
  H   H1380     1.0  0.69610  0.10229  0.56362  1.0000
  C   C1133     1.0  0.85064  0.29994  0.65507  1.0000
  C   C1134     1.0  0.74969  0.13514  0.68788  1.0000
  H   H1381     1.0  0.77773  0.16271  0.70411  1.0000
  H   H1382     1.0  0.90349  0.29186  0.72414  1.0000
  S   S317      1.0  0.88003  0.30235  0.65362  1.0000
  C   C1135     1.0  0.51678  0.20073  0.71689  1.0000
  H   H1383     1.0  0.63732  0.07896  0.55011  1.0000
  H   H1384     1.0  0.76447  0.13812  0.65323  1.0000
  C   C1136     1.0  0.91543  0.04774  0.65371  1.0000
  C   C1137     1.0  0.66449  0.13224  0.58786  1.0000
  C   C1138     1.0  0.54542  0.23051  0.72038  1.0000
  H   H1385     1.0  0.65291  0.13789  0.54070  1.0000
  C   C1139     1.0  0.55482  0.20741  0.71824  1.0000
  H   H1386     1.0  0.87826  0.21199  0.69640  1.0000
  N   N77       1.0  0.76614  0.10954  0.66971  1.0000
  Fe  Fe152     1.0  0.89966  0.28896  0.67138  1.0000
  Fe  Fe153     1.0  0.93767  0.29568  0.68601  1.0000
  H   H1387     1.0  0.68198  0.08388  0.50221  1.0000
  C   C1140     1.0  0.53977  0.98737  0.55612  1.0000
  N   N78       1.0  0.89404  0.19115  0.71321  1.0000
  H   H1388     1.0  0.64021  0.11763  0.53500  1.0000
  C   C1141     1.0  0.79131  0.12739  0.68027  1.0000
  C   C1142     1.0  0.77523  0.15198  0.69730  1.0000
  H   H1389     1.0  0.81173  0.14348  0.68966  1.0000
  H   H1390     1.0  0.80674  0.11960  0.67400  1.0000
  Fe  Fe154     1.0  0.92017  0.10353  0.67834  1.0000
  C   C1143     1.0  0.88643  0.18124  0.72746  1.0000
  H   H1391     1.0  0.55710  0.13142  0.72041  1.0000
  H   H1392     1.0  0.84851  0.31522  0.63427  1.0000
  C   C1144     1.0  0.54290  0.12221  0.72372  1.0000
  H   H1393     1.0  0.50590  0.18945  0.71538  1.0000
  C   C1145     1.0  0.65100  0.31341  0.69520  1.0000
  H   H1394     1.0  0.96518  0.09035  0.65651  1.0000
  H   H1395     1.0  0.84716  0.28417  0.67604  1.0000
  C   C1146     1.0  0.97404  0.08201  0.64755  1.0000
  C   C1147     1.0  0.67033  0.30147  0.67372  1.0000
  C   C1148     1.0  0.58532  0.23760  0.71924  1.0000
  H   H1396     1.0  0.57307  0.20007  0.71799  1.0000
  H   H1397     1.0  0.85402  0.31405  0.71961  1.0000
  S   S318      1.0  0.49778  0.31212  0.72503  1.0000
  H   H1398     1.0  0.99022  0.24345  0.66671  1.0000
  Fe  Fe155     1.0  0.72689  0.31844  0.61784  1.0000
  H   H1399     1.0  0.80660  0.31395  0.63610  1.0000
  C   C1149     1.0  0.67467  0.08644  0.48202  1.0000
  C   C1150     1.0  0.54094  0.31636  0.72860  1.0000
  H   H1400     1.0  0.63554  0.31584  0.70271  1.0000
  H   H1401     1.0  0.74597  0.09210  0.72730  1.0000
  C   C1151     1.0  0.69041  0.30850  0.67523  1.0000
  H   H1402     1.0  0.98807  0.27232  0.66963  1.0000
  H   H1403     1.0  0.79673  0.08865  0.72822  1.0000
  H   H1404     1.0  0.70574  0.30664  0.66760  1.0000
  C   C1152     1.0  0.78563  0.10615  0.72689  1.0000
  H   H1405     1.0  0.98960  0.20091  0.70057  1.0000
  C   C1153     1.0  0.99150  0.18195  0.70398  1.0000
  H   H1406     1.0  0.99030  0.17882  0.71521  1.0000
  S   S319      1.0  0.96403  0.31819  0.68525  1.0000
  H   H1407     1.0  0.97807  0.05303  0.63031  1.0000
  H   H1408     1.0  0.99079  0.08821  0.64390  1.0000
  C   C1154     1.0  0.69048  0.31881  0.68642  1.0000
  H   H1409     1.0  0.69710  0.16255  0.73040  1.0000
  Fe  Fe156     1.0  0.93907  0.09381  0.95890  1.0000
  S   S320      1.0  0.91617  0.09171  0.94414  1.0000
  S   S321      1.0  0.95469  0.12579  0.95452  1.0000
  H   H1410     1.0  0.94561  0.25545  0.94808  1.0000
  C   C1155     1.0  0.58974  0.23749  0.78025  1.0000
  C   C1156     1.0  0.97693  0.01663  0.91269  1.0000
  C   C1157     1.0  0.68823  0.12932  0.76125  1.0000
  C   C1158     1.0  0.69301  0.10536  0.76196  1.0000
  H   H1411     1.0  0.71527  0.19512  0.73177  1.0000
  Fe  Fe157     1.0  0.80789  0.14508  0.78990  1.0000
  S   S322      1.0  0.77940  0.13742  0.80701  1.0000
  S   S323      1.0  0.82591  0.17561  0.78467  1.0000
  Fe  Fe158     1.0  0.81073  0.10100  0.77909  1.0000
  S   S324      1.0  0.78270  0.08910  0.79548  1.0000
  S   S325      1.0  0.82830  0.08151  0.76196  1.0000
  Fe  Fe159     1.0  0.76373  0.12582  0.79160  1.0000
  S   S326      1.0  0.72684  0.14026  0.78734  1.0000
  Fe  Fe160     1.0  0.80091  0.10145  0.80950  1.0000
  S   S327      1.0  0.80568  0.08291  0.83085  1.0000
  S   S328      1.0  0.79060  0.13664  0.77437  1.0000
  S   S329      1.0  0.83041  0.11007  0.79331  1.0000
  S   S330      1.0  0.78890  0.26289  0.81410  1.0000
  H   H1412     1.0  0.54458  0.12001  0.75658  1.0000
  H   H1413     1.0  0.81607  0.04305  0.81690  1.0000
  Fe  Fe161     1.0  0.66111  0.31374  0.75897  1.0000
  C   C1159     1.0  0.72826  0.20779  0.76466  1.0000
  S   S331      1.0  0.68490  0.30001  0.74133  1.0000
  H   H1414     1.0  0.89968  0.23645  0.94881  1.0000
  Fe  Fe162     1.0  0.91086  0.02001  0.87156  1.0000
  S   S332      1.0  0.90122  0.04928  0.85448  1.0000
  C   C1160     1.0  0.76382  0.19798  0.77411  1.0000
  S   S333      1.0  0.93582  0.02109  0.88549  1.0000
  H   H1415     1.0  0.86047  0.19860  0.75798  1.0000
  C   C1161     1.0  0.83263  0.07270  0.83697  1.0000
  C   C1162     1.0  0.85383  0.07613  0.82895  1.0000
  C   C1163     1.0  0.87468  0.06859  0.83441  1.0000
  C   C1164     1.0  0.87469  0.05705  0.84781  1.0000
  C   C1165     1.0  0.85356  0.05310  0.85573  1.0000
  C   C1166     1.0  0.83265  0.06105  0.85036  1.0000
  H   H1416     1.0  0.85423  0.08467  0.81857  1.0000
  H   H1417     1.0  0.89092  0.07179  0.82821  1.0000
  H   H1418     1.0  0.85327  0.04451  0.86612  1.0000
  H   H1419     1.0  0.81635  0.05832  0.85665  1.0000
  C   C1167     1.0  0.81538  0.19944  0.79316  1.0000
  C   C1168     1.0  0.79564  0.20023  0.80317  1.0000
  C   C1169     1.0  0.78771  0.21968  0.80969  1.0000
  C   C1170     1.0  0.79940  0.23840  0.80616  1.0000
  C   C1171     1.0  0.81912  0.23752  0.79618  1.0000
  C   C1172     1.0  0.82708  0.21809  0.78970  1.0000
  H   H1420     1.0  0.78635  0.18603  0.80579  1.0000
  H   H1421     1.0  0.77240  0.22035  0.81740  1.0000
  H   H1422     1.0  0.82847  0.25169  0.79355  1.0000
  H   H1423     1.0  0.84241  0.21753  0.78200  1.0000
  Fe  Fe163     1.0  0.84477  0.31118  0.78439  1.0000
  H   H1424     1.0  0.70943  0.28278  0.78880  1.0000
  C   C1173     1.0  0.71955  0.10255  0.77800  1.0000
  C   C1174     1.0  0.71474  0.12652  0.77727  1.0000
  C   C1175     1.0  0.69918  0.13986  0.76879  1.0000
  C   C1176     1.0  0.61469  0.22257  0.74886  1.0000
  C   C1177     1.0  0.62999  0.20601  0.78758  1.0000
  H   H1425     1.0  0.73132  0.09205  0.78461  1.0000
  H   H1426     1.0  0.69574  0.15841  0.76795  1.0000
  H   H1427     1.0  0.98213  0.02527  0.87315  1.0000
  C   C1178     1.0  0.90658  0.27096  0.96985  1.0000
  H   H1428     1.0  0.53843  0.19339  0.74998  1.0000
  S   S334      1.0  0.59599  0.18545  0.74802  1.0000
  H   H1429     1.0  0.76272  0.07238  0.73888  1.0000
  Fe  Fe164     1.0  0.98709  0.10138  0.95936  1.0000
  H   H1430     1.0  0.77398  0.22411  0.78147  1.0000
  H   H1431     1.0  0.70942  0.25261  0.79384  1.0000
  C   C1179     1.0  0.52740  0.08883  0.73603  1.0000
  S   S335      1.0  0.68092  0.09166  0.75185  1.0000
  C   C1180     1.0  0.91823  0.06625  0.93759  1.0000
  C   C1181     1.0  0.92927  0.04487  0.94371  1.0000
  C   C1182     1.0  0.92801  0.02462  0.93916  1.0000
  C   C1183     1.0  0.91648  0.02581  0.92819  1.0000
  C   C1184     1.0  0.90676  0.04728  0.92157  1.0000
  C   C1185     1.0  0.90735  0.06742  0.92639  1.0000
  H   H1432     1.0  0.93772  0.04385  0.95235  1.0000
  H   H1433     1.0  0.93560  0.00801  0.94430  1.0000
  H   H1434     1.0  0.89780  0.04830  0.91313  1.0000
  H   H1435     1.0  0.89888  0.08395  0.92160  1.0000
  Fe  Fe165     1.0  0.80536  0.29353  0.80391  1.0000
  C   C1186     1.0  0.50653  0.18105  0.75123  1.0000
  H   H1436     1.0  0.78226  0.08492  0.75331  1.0000
  H   H1437     1.0  0.63463  0.18360  0.81252  1.0000
  C   C1187     1.0  0.76058  0.22034  0.77697  1.0000
  C   C1188     1.0  0.89256  0.28748  0.73370  1.0000
  H   H1438     1.0  0.86644  0.27209  0.95027  1.0000
  S   S336      1.0  0.88697  0.00244  0.88828  1.0000
  C   C1189     1.0  0.97203  0.20510  0.97125  1.0000
  C   C1190     1.0  0.83245  0.03105  0.81738  1.0000
  C   C1191     1.0  0.53036  0.17840  0.75142  1.0000
  H   H1439     1.0  0.82873  0.13061  0.75504  1.0000
  H   H1440     1.0  0.57474  0.24969  0.77709  1.0000
  C   C1192     1.0  0.54396  0.15645  0.75339  1.0000
  C   C1193     1.0  0.75286  0.26421  0.78555  1.0000
  C   C1194     1.0  0.83325  0.12314  0.74588  1.0000
  H   H1441     1.0  0.73645  0.09002  0.74537  1.0000
  C   C1195     1.0  0.65588  0.22057  0.74826  1.0000
  H   H1442     1.0  0.74865  0.28191  0.78824  1.0000
  C   C1196     1.0  0.88120  0.04274  0.96956  1.0000
  C   C1197     1.0  0.87621  0.19597  0.73723  1.0000
  S   S337      1.0  0.97397  0.24886  0.97425  1.0000
  C   C1198     1.0  0.93618  0.26956  0.94177  1.0000
  H   H1443     1.0  0.60524  0.26371  0.78449  1.0000
  H   H1444     1.0  0.90608  0.30820  0.74426  1.0000
  C   C1199     1.0  0.64078  0.18572  0.75013  1.0000
  C   C1200     1.0  0.65248  0.16594  0.78947  1.0000
  C   C1201     1.0  0.88065  0.14840  0.74554  1.0000
  N   N79       1.0  0.83157  0.14941  0.83220  1.0000
  C   C1202     1.0  0.80847  0.14456  0.83926  1.0000
  C   C1203     1.0  0.83097  0.17447  0.83125  1.0000
  C   C1204     1.0  0.83481  0.14381  0.81834  1.0000
  C   C1205     1.0  0.85115  0.13602  0.83907  1.0000
  C   C1206     1.0  0.87428  0.13905  0.83363  1.0000
  C   C1207     1.0  0.84809  0.11963  0.85108  1.0000
  C   C1208     1.0  0.89315  0.12635  0.83976  1.0000
  C   C1209     1.0  0.86708  0.10725  0.85720  1.0000
  C   C1210     1.0  0.88955  0.11044  0.85150  1.0000
  H   H1445     1.0  0.80459  0.14880  0.84971  1.0000
  H   H1446     1.0  0.79415  0.15487  0.83382  1.0000
  H   H1447     1.0  0.80738  0.12612  0.83976  1.0000
  H   H1448     1.0  0.83041  0.17906  0.84140  1.0000
  H   H1449     1.0  0.81548  0.18511  0.82704  1.0000
  H   H1450     1.0  0.84629  0.18026  0.82444  1.0000
  H   H1451     1.0  0.85080  0.14867  0.81183  1.0000
  H   H1452     1.0  0.83587  0.12502  0.81869  1.0000
  H   H1453     1.0  0.82017  0.15312  0.81295  1.0000
  H   H1454     1.0  0.87797  0.15104  0.82446  1.0000
  H   H1455     1.0  0.83132  0.11558  0.85579  1.0000
  H   H1456     1.0  0.91072  0.12856  0.83528  1.0000
  H   H1457     1.0  0.86453  0.09434  0.86614  1.0000
  H   H1458     1.0  0.90422  0.10009  0.85605  1.0000
  H   H1459     1.0  0.97100  0.17051  0.96866  1.0000
  C   C1211     1.0  0.61856  0.19877  0.74926  1.0000
  H   H1460     1.0  0.66875  0.15441  0.79230  1.0000
  C   C1212     1.0  0.51005  0.13951  0.75491  1.0000
  C   C1213     1.0  0.96233  0.18506  0.97365  1.0000
  C   C1214     1.0  0.59194  0.21407  0.77996  1.0000
  C   C1215     1.0  0.73845  0.27715  0.76439  1.0000
  H   H1461     1.0  0.75827  0.10611  0.75938  1.0000
  H   H1462     1.0  0.77106  0.26223  0.78007  1.0000
  H   H1463     1.0  0.65253  0.16535  0.77860  1.0000
  N   N80       1.0  0.65094  0.18994  0.79175  1.0000
  C   C1216     1.0  0.85849  0.00189  0.83071  1.0000
  H   H1464     1.0  0.95972  0.05164  0.91070  1.0000
  C   C1217     1.0  0.70878  0.09204  0.77034  1.0000
  S   S338      1.0  0.64241  0.28393  0.76403  1.0000
  C   C1218     1.0  0.60712  0.24539  0.78436  1.0000
  H   H1465     1.0  0.52975  0.07212  0.74239  1.0000
  H   H1466     1.0  0.71258  0.07347  0.77097  1.0000
  S   S339      1.0  0.91230  0.00032  0.92379  1.0000
  Fe  Fe166     1.0  0.91397  0.00022  0.90147  1.0000
  Fe  Fe167     1.0  0.66392  0.27218  0.74535  1.0000
  H   H1467     1.0  0.78560  0.11394  0.75159  1.0000
  H   H1468     1.0  0.63979  0.23703  0.79119  1.0000
  C   C1219     1.0  0.74063  0.23702  0.77405  1.0000
  N   N81       1.0  0.89886  0.26617  0.95790  1.0000
  C   C1220     1.0  0.90336  0.24078  0.95822  1.0000
  C   C1221     1.0  0.84511  0.03232  0.96793  1.0000
  C   C1222     1.0  0.87328  0.27440  0.95924  1.0000
  C   C1223     1.0  0.91194  0.27751  0.94543  1.0000
  C   C1224     1.0  0.97241  0.08279  0.92359  1.0000
  H   H1469     1.0  0.82360  0.02001  0.83837  1.0000
  H   H1470     1.0  0.97629  0.08307  0.89673  1.0000
  H   H1471     1.0  0.89155  0.98930  0.81854  1.0000
  C   C1225     1.0  0.74758  0.19161  0.76810  1.0000
  Fe  Fe168     1.0  0.64984  0.11036  0.74164  1.0000
  Fe  Fe169     1.0  0.61267  0.15301  0.73961  1.0000
  H   H1472     1.0  0.56242  0.15441  0.75351  1.0000
  H   H1473     1.0  0.85076  0.03205  0.95689  1.0000
  H   H1474     1.0  0.86839  0.29294  0.96050  1.0000
  C   C1226     1.0  0.94893  0.28011  0.93011  1.0000
  H   H1475     1.0  0.86447  0.15650  0.76525  1.0000
  H   H1476     1.0  0.88549  0.00842  0.95232  1.0000
  H   H1477     1.0  0.55750  0.23453  0.74360  1.0000
  H   H1478     1.0  0.69869  0.26827  0.77861  1.0000
  C   C1227     1.0  0.86385  0.27687  0.75839  1.0000
  H   H1479     1.0  0.62991  0.25158  0.74885  1.0000
  H   H1480     1.0  0.72468  0.27755  0.75833  1.0000
  H   H1481     1.0  0.84537  0.04044  0.79623  1.0000
  C   C1228     1.0  0.86845  0.18707  0.75069  1.0000
  C   C1229     1.0  0.53556  0.29829  0.75612  1.0000
  C   C1230     1.0  0.61174  0.19848  0.78349  1.0000
  C   C1231     1.0  0.77306  0.10311  0.75103  1.0000
  C   C1232     1.0  0.96077  0.22426  0.97751  1.0000
  C   C1233     1.0  0.87655  0.27315  0.73466  1.0000
  C   C1234     1.0  0.54608  0.10076  0.73205  1.0000
  C   C1235     1.0  0.75117  0.13185  0.73577  1.0000
  S   S340      1.0  0.97250  0.06940  0.96181  1.0000
  H   H1482     1.0  0.96207  0.01064  0.91089  1.0000
  C   C1236     1.0  0.65065  0.18920  0.80641  1.0000
  H   H1483     1.0  0.66594  0.17695  0.81002  1.0000
  H   H1484     1.0  0.65108  0.20635  0.80881  1.0000
  C   C1237     1.0  0.84897  0.02964  0.80573  1.0000
  H   H1485     1.0  0.67653  0.13971  0.75463  1.0000
  C   C1238     1.0  0.87925  0.29187  0.75735  1.0000
  H   H1486     1.0  0.88632  0.04327  0.95845  1.0000
  Fe  Fe170     1.0  0.60192  0.10881  0.73481  1.0000
  H   H1487     1.0  0.70975  0.24227  0.76443  1.0000
  C   C1239     1.0  0.90149  0.29716  0.93694  1.0000
  H   H1488     1.0  0.59738  0.23270  0.74883  1.0000
  S   S341      1.0  0.83874  0.30202  0.80714  1.0000
  H   H1489     1.0  0.90279  0.28976  0.97020  1.0000
  H   H1490     1.0  0.96743  0.27379  0.92758  1.0000
  H   H1491     1.0  0.95604  0.08372  0.91968  1.0000
  C   C1240     1.0  0.50569  0.09838  0.73179  1.0000
  C   C1241     1.0  0.55697  0.30434  0.74961  1.0000
  S   S342      1.0  0.67934  0.23457  0.74651  1.0000
  H   H1492     1.0  0.50068  0.29615  0.75396  1.0000
  H   H1493     1.0  0.67690  0.18653  0.74952  1.0000
  H   H1494     1.0  0.50354  0.12372  0.75607  1.0000
  C   C1242     1.0  0.51698  0.30105  0.74887  1.0000
  H   H1495     1.0  0.82288  0.30387  0.74570  1.0000
  H   H1496     1.0  0.83499  0.04997  0.96887  1.0000
  H   H1497     1.0  0.99037  0.10473  0.89969  1.0000
  H   H1498     1.0  0.75243  0.25203  0.79531  1.0000
  C   C1243     1.0  0.83714  0.13743  0.73336  1.0000
  H   H1499     1.0  0.88344  0.30517  0.93916  1.0000
  H   H1500     1.0  0.73691  0.29503  0.76626  1.0000
  C   C1244     1.0  0.65961  0.19662  0.74926  1.0000
  S   S343      1.0  0.63802  0.29061  0.73175  1.0000
  Fe  Fe171     1.0  0.61729  0.30443  0.75032  1.0000
  H   H1501     1.0  0.83307  0.01985  0.97172  1.0000
  H   H1502     1.0  0.75559  0.27256  0.75797  1.0000
  S   S344      1.0  0.81314  0.29980  0.78122  1.0000
  C   C1245     1.0  0.83580  0.09931  0.74651  1.0000
  H   H1503     1.0  0.67256  0.20018  0.77302  1.0000
  C   C1246     1.0  0.72483  0.23022  0.76749  1.0000
  C   C1247     1.0  0.93804  0.29899  0.92185  1.0000
  H   H1504     1.0  0.71587  0.20291  0.75976  1.0000
  H   H1505     1.0  0.77908  0.18554  0.77660  1.0000
  C   C1248     1.0  0.99171  0.08580  0.90040  1.0000
  H   H1506     1.0  0.92161  0.23253  0.95936  1.0000
  H   H1507     1.0  0.85312  0.27230  0.76796  1.0000
  H   H1508     1.0  0.61246  0.18073  0.78263  1.0000
  H   H1509     1.0  0.63789  0.15801  0.79572  1.0000
  C   C1249     1.0  0.62691  0.22996  0.78804  1.0000
  C   C1250     1.0  0.67240  0.19788  0.78411  1.0000
  H   H1510     1.0  0.56489  0.26270  0.73824  1.0000
  C   C1251     1.0  0.63328  0.23336  0.74865  1.0000
  H   H1511     1.0  0.92560  0.26511  0.96963  1.0000
  S   S345      1.0  0.94932  0.30968  0.95822  1.0000
  S   S346      1.0  0.57347  0.08794  0.73703  1.0000
  H   H1512     1.0  0.57859  0.20802  0.77648  1.0000
  C   C1252     1.0  0.86255  0.26745  0.74707  1.0000
  C   C1253     1.0  0.71251  0.26619  0.78492  1.0000
  H   H1513     1.0  0.67429  0.21458  0.78644  1.0000
  H   H1514     1.0  0.68843  0.18532  0.78642  1.0000
  H   H1515     1.0  0.53336  0.29136  0.76682  1.0000
  C   C1254     1.0  0.51965  0.30999  0.73504  1.0000
  Fe  Fe172     1.0  0.95714  0.28554  0.97724  1.0000
  H   H1516     1.0  0.64331  0.16720  0.75162  1.0000
  C   C1255     1.0  0.75190  0.08998  0.73725  1.0000
  C   C1256     1.0  0.49561  0.16167  0.75301  1.0000
  S   S347      1.0  0.61312  0.11839  0.75255  1.0000
  C   C1257     1.0  0.87014  0.01449  0.80632  1.0000
  H   H1517     1.0  0.89252  0.23196  0.96702  1.0000
  C   C1258     1.0  0.89397  0.29677  0.74508  1.0000
  C   C1259     1.0  0.83704  0.01752  0.82973  1.0000
  S   S348      1.0  0.58011  0.29963  0.75902  1.0000
  N   N82       1.0  0.73634  0.26070  0.77724  1.0000
  H   H1518     1.0  0.74998  0.17414  0.76608  1.0000
  H   H1519     1.0  0.82896  0.98669  0.85396  1.0000
  H   H1520     1.0  0.84551  0.07130  0.73497  1.0000
  C   C1260     1.0  0.53383  0.13708  0.75517  1.0000
  H   H1521     1.0  0.85040  0.25607  0.74790  1.0000
  C   C1261     1.0  0.72771  0.13672  0.73342  1.0000
  H   H1522     1.0  0.88191  0.12994  0.74876  1.0000
  C   C1262     1.0  0.87069  0.16334  0.75483  1.0000
  C   C1263     1.0  0.88695  0.99613  0.96153  1.0000
  C   C1264     1.0  0.84335  0.08974  0.73456  1.0000
  N   N83       1.0  0.76500  0.10815  0.73768  1.0000
  H   H1523     1.0  0.89743  0.03781  0.97415  1.0000
  H   H1524     1.0  0.97119  0.07181  0.93372  1.0000
  H   H1525     1.0  0.88391  0.01078  0.84709  1.0000
  H   H1526     1.0  0.77883  0.14865  0.73816  1.0000
  H   H1527     1.0  0.98832  0.20569  0.96444  1.0000
  Fe  Fe173     1.0  0.94584  0.12620  0.97693  1.0000
  C   C1265     1.0  0.81543  0.30533  0.73628  1.0000
  C   C1266     1.0  0.74830  0.17353  0.73486  1.0000
  H   H1528     1.0  0.53573  0.25907  0.73898  1.0000
  H   H1529     1.0  0.86385  0.26489  0.96838  1.0000
  C   C1267     1.0  0.55425  0.25088  0.73634  1.0000
  H   H1530     1.0  0.83490  0.15587  0.73299  1.0000
  H   H1531     1.0  0.97225  0.10066  0.92515  1.0000
  C   C1268     1.0  0.55957  0.31340  0.73580  1.0000
  H   H1532     1.0  0.84214  0.00906  0.85730  1.0000
  S   S349      1.0  0.87965  0.30527  0.77112  1.0000
  C   C1269     1.0  0.76111  0.15101  0.73636  1.0000
  H   H1533     1.0  0.79692  0.30369  0.73959  1.0000
  C   C1270     1.0  0.87731  0.00257  0.97444  1.0000
  H   H1534     1.0  0.75615  0.18783  0.73558  1.0000
  C   C1271     1.0  0.97577  0.04012  0.91261  1.0000
  N   N84       1.0  0.86503  0.02651  0.97553  1.0000
  C   C1272     1.0  0.72531  0.17767  0.73268  1.0000
  H   H1535     1.0  0.87332  0.06082  0.97103  1.0000
  H   H1536     1.0  0.94798  0.30725  0.91286  1.0000
  C   C1273     1.0  0.87486  0.00074  0.81859  1.0000
  C   C1274     1.0  0.88554  0.99213  0.84679  1.0000
  C   C1275     1.0  0.71511  0.15932  0.73190  1.0000
  C   C1276     1.0  0.84548  0.99095  0.85539  1.0000
  H   H1537     1.0  0.87394  0.21453  0.73447  1.0000
  C   C1277     1.0  0.91440  0.30751  0.92528  1.0000
  H   H1538     1.0  0.88299  0.01351  0.79723  1.0000
  Fe  Fe174     1.0  0.95431  0.98680  0.87998  1.0000
  H   H1539     1.0  0.71843  0.12332  0.73307  1.0000
  H   H1540     1.0  0.82448  0.29023  0.73121  1.0000
  H   H1541     1.0  0.49669  0.19843  0.74961  1.0000
  H   H1542     1.0  0.89772  0.26228  0.97952  1.0000
  S   S350      1.0  0.93167  0.98720  0.86470  1.0000
  N   N85       1.0  0.86407  0.98725  0.84357  1.0000
  C   C1278     1.0  0.88831  0.15709  0.73203  1.0000
  H   H1543     1.0  0.90119  0.98709  0.83934  1.0000
  N   N86       1.0  0.99346  0.07361  0.91438  1.0000
  H   H1544     1.0  0.93093  0.31752  0.79552  1.0000
  H   H1545     1.0  0.91985  0.31886  0.78035  1.0000
  H   H1546     1.0  0.57588  0.31825  0.73070  1.0000
  Fe  Fe175     1.0  0.64010  0.60511  0.18007  1.0000
  S   S351      1.0  0.63643  0.64172  0.18290  1.0000
  S   S352      1.0  0.67598  0.58284  0.17646  1.0000
  H   H1547     1.0  0.95034  0.48663  0.10753  1.0000
  C   C1279     1.0  0.53138  0.59820  0.18494  1.0000
  S   S353      1.0  0.61196  0.61201  0.16702  1.0000
  S   S354      1.0  0.99239  0.44201  0.06116  1.0000
  C   C1280     1.0  0.98596  0.50364  0.08648  1.0000
  H   H1548     1.0  0.81439  0.49714  0.05105  1.0000
  H   H1549     1.0  0.79225  0.60098  0.19575  1.0000
  Fe  Fe176     1.0  0.79764  0.60457  0.13814  1.0000
  S   S355      1.0  0.80859  0.56735  0.14670  1.0000
  S   S356      1.0  0.76047  0.62438  0.13888  1.0000
  Fe  Fe177     1.0  0.84744  0.61334  0.13292  1.0000
  S   S357      1.0  0.86215  0.57689  0.14137  1.0000
  H   H1550     1.0  0.97919  0.41873  0.00485  1.0000
  Fe  Fe178     1.0  0.83875  0.56722  0.12933  1.0000
  S   S358      1.0  0.85160  0.53505  0.11923  1.0000
  Fe  Fe179     1.0  0.83109  0.58023  0.15769  1.0000
  S   S359      1.0  0.82917  0.57224  0.18036  1.0000
  S   S360      1.0  0.82593  0.60375  0.11975  1.0000
  S   S361      1.0  0.81834  0.61740  0.15024  1.0000
  Fe  Fe180     1.0  0.92690  0.45740  0.03511  1.0000
  S   S362      1.0  0.91794  0.49559  0.02802  1.0000
  S   S363      1.0  0.90561  0.43528  0.02905  1.0000
  Fe  Fe181     1.0  0.96707  0.46246  0.04767  1.0000
  S   S364      1.0  0.96224  0.50064  0.04107  1.0000
  S   S365      1.0  0.95486  0.33763  0.01209  1.0000
  Fe  Fe182     1.0  0.92428  0.50007  0.04835  1.0000
  S   S366      1.0  0.90305  0.53019  0.05851  1.0000
  Fe  Fe183     1.0  0.95631  0.49293  0.02144  1.0000
  C   C1281     1.0  0.96453  0.52934  0.07018  1.0000
  S   S367      1.0  0.92944  0.46205  0.05616  1.0000
  S   S368      1.0  0.96499  0.45452  0.02735  1.0000
  C   C1282     1.0  0.95747  0.51449  0.98759  1.0000
  H   H1551     1.0  0.81297  0.53742  0.10023  1.0000
  H   H1552     1.0  0.91205  0.63644  0.14334  1.0000
  Fe  Fe184     1.0  0.58712  0.60666  0.18664  1.0000
  H   H1553     1.0  0.75470  0.62715  0.17038  1.0000
  C   C1283     1.0  0.93470  0.51053  0.98954  1.0000
  C   C1284     1.0  0.83805  0.50880  0.06762  1.0000
  C   C1285     1.0  0.75202  0.59995  0.21509  1.0000
  H   H1554     1.0  0.86865  0.61491  0.17170  1.0000
  H   H1555     1.0  0.92621  0.50462  0.99956  1.0000
  H   H1556     1.0  0.98670  0.48833  0.09460  1.0000
  C   C1286     1.0  0.86674  0.53408  0.10248  1.0000
  C   C1287     1.0  0.86868  0.55411  0.09305  1.0000
  C   C1288     1.0  0.88014  0.55254  0.07970  1.0000
  C   C1289     1.0  0.88982  0.53099  0.07564  1.0000
  C   C1290     1.0  0.88814  0.51094  0.08511  1.0000
  C   C1291     1.0  0.87659  0.51251  0.09844  1.0000
  H   H1557     1.0  0.86111  0.57080  0.09601  1.0000
  H   H1558     1.0  0.88128  0.56815  0.07245  1.0000
  H   H1559     1.0  0.89537  0.49422  0.08216  1.0000
  H   H1560     1.0  0.87510  0.49694  0.10567  1.0000
  H   H1561     1.0  0.73719  0.63748  0.18530  1.0000
  H   H1562     1.0  0.87787  0.47189  0.04934  1.0000
  H   H1563     1.0  0.91530  0.60957  0.17964  1.0000
  C   C1292     1.0  0.98565  0.42529  0.99407  1.0000
  H   H1564     1.0  0.86826  0.52269  0.04441  1.0000
  H   H1565     1.0  0.83256  0.47707  0.08143  1.0000
  H   H1566     1.0  0.88212  0.48897  0.06105  1.0000
  C   C1293     1.0  0.94130  0.36526  0.01610  1.0000
  C   C1294     1.0  0.91933  0.37598  0.01289  1.0000
  C   C1295     1.0  0.90852  0.39738  0.01696  1.0000
  C   C1296     1.0  0.91976  0.40846  0.02401  1.0000
  C   C1297     1.0  0.94199  0.39802  0.02689  1.0000
  C   C1298     1.0  0.95257  0.37644  0.02305  1.0000
  H   H1567     1.0  0.91039  0.36747  0.00762  1.0000
  H   H1568     1.0  0.89131  0.40529  0.01470  1.0000
  H   H1569     1.0  0.95081  0.40626  0.03237  1.0000
  C   C1299     1.0  0.53136  0.61499  0.17333  1.0000
  C   C1300     1.0  0.69897  0.59449  0.16553  1.0000
  C   C1301     1.0  0.72085  0.58026  0.16310  1.0000
  C   C1302     1.0  0.73974  0.58912  0.15480  1.0000
  C   C1303     1.0  0.73688  0.61233  0.14883  1.0000
  C   C1304     1.0  0.71492  0.62653  0.15114  1.0000
  C   C1305     1.0  0.69606  0.61768  0.15949  1.0000
  H   H1570     1.0  0.72319  0.56225  0.16763  1.0000
  H   H1571     1.0  0.75643  0.57793  0.15296  1.0000
  C   C1306     1.0  0.51642  0.56457  0.15365  1.0000
  H   H1572     1.0  0.67927  0.62878  0.16122  1.0000
  H   H1573     1.0  0.78998  0.61793  0.17957  1.0000
  H   H1574     1.0  0.60183  0.53396  0.21136  1.0000
  H   H1575     1.0  0.86204  0.50446  0.03427  1.0000
  H   H1576     1.0  0.79658  0.54891  0.21559  1.0000
  C   C1307     1.0  0.85483  0.57236  0.18630  1.0000
  C   C1308     1.0  0.85368  0.58402  0.19711  1.0000
  C   C1309     1.0  0.87611  0.55982  0.18096  1.0000
  H   H1577     1.0  0.83716  0.59335  0.20146  1.0000
  H   H1578     1.0  0.87702  0.55050  0.17273  1.0000
  N   N87       1.0  0.84805  0.49736  0.05559  1.0000
  H   H1579     1.0  0.93356  0.45633  0.98716  1.0000
  H   H1580     1.0  0.93790  0.49687  0.07558  1.0000
  C   C1310     1.0  0.83099  0.48507  0.05266  1.0000
  H   H1581     1.0  0.94181  0.44295  0.00317  1.0000
  H   H1582     1.0  0.63937  0.60522  0.21929  1.0000
  H   H1583     1.0  0.92924  0.64378  0.15395  1.0000
  C   C1311     1.0  0.74531  0.59811  0.20271  1.0000
  H   H1584     1.0  0.86577  0.46626  0.06681  1.0000
  H   H1585     1.0  0.96954  0.36829  0.02551  1.0000
  C   C1312     1.0  0.56388  0.60981  0.22520  1.0000
  S   S369      1.0  0.55665  0.58765  0.19260  1.0000
  C   C1313     1.0  0.86932  0.48037  0.05832  1.0000
  N   N88       1.0  0.96255  0.51144  0.08244  1.0000
  C   C1314     1.0  0.94880  0.45009  0.99258  1.0000
  H   H1586     1.0  0.93452  0.55549  0.08443  1.0000
  H   H1587     1.0  0.94761  0.40622  0.99678  1.0000
  C   C1315     1.0  0.94561  0.51965  0.09398  1.0000
  C   C1316     1.0  0.93301  0.54270  0.09343  1.0000
  C   C1317     1.0  0.94144  0.50438  0.10634  1.0000
  C   C1318     1.0  0.91732  0.54983  0.10460  1.0000
  C   C1319     1.0  0.92541  0.51163  0.11736  1.0000
  C   C1320     1.0  0.91338  0.53430  0.11648  1.0000
  H   H1588     1.0  0.76757  0.60613  0.21543  1.0000
  S   S370      1.0  0.97322  0.50921  0.00115  1.0000
  C   C1321     1.0  0.62460  0.53822  0.22429  1.0000
  H   H1589     1.0  0.51100  0.57608  0.19933  1.0000
  C   C1322     1.0  0.80972  0.54795  0.22179  1.0000
  Fe  Fe185     1.0  0.91864  0.64897  0.20906  1.0000
  C   C1323     1.0  0.60383  0.54319  0.21908  1.0000
  C   C1324     1.0  0.52827  0.55213  0.13183  1.0000
  H   H1590     1.0  0.90746  0.56733  0.10390  1.0000
  H   H1591     1.0  0.92195  0.49955  0.12657  1.0000
  H   H1592     1.0  0.90047  0.53972  0.12489  1.0000
  H   H1593     1.0  0.72980  0.61530  0.17841  1.0000
  H   H1594     1.0  0.89042  0.62937  0.18617  1.0000
  H   H1595     1.0  0.82683  0.47095  0.06100  1.0000
  H   H1596     1.0  0.77803  0.58719  0.17249  1.0000
  C   C1325     1.0  0.85461  0.51359  0.04312  1.0000
  H   H1597     1.0  0.83933  0.52667  0.04026  1.0000
  C   C1326     1.0  0.83084  0.49556  0.08030  1.0000
  N   N89       1.0  0.75918  0.60422  0.18925  1.0000
  C   C1327     1.0  0.76754  0.58333  0.18270  1.0000
  C   C1328     1.0  0.74459  0.62180  0.18051  1.0000
  C   C1329     1.0  0.77989  0.61374  0.18986  1.0000
  H   H1598     1.0  0.77875  0.56972  0.18888  1.0000
  H   H1599     1.0  0.75305  0.57569  0.18120  1.0000
  Fe  Fe186     1.0  0.60683  0.64830  0.17114  1.0000
  C   C1330     1.0  0.51108  0.58913  0.19037  1.0000
  C   C1331     1.0  0.87376  0.58326  0.20253  1.0000
  H   H1600     1.0  0.87246  0.59182  0.21107  1.0000
  C   C1332     1.0  0.53396  0.55767  0.14328  1.0000
  C   C1333     1.0  0.85019  0.53980  0.22466  1.0000
  C   C1334     1.0  0.51145  0.62213  0.16699  1.0000
  H   H1601     1.0  0.83774  0.47685  0.04340  1.0000
  S   S371      1.0  0.61580  0.59622  0.19935  1.0000
  H   H1602     1.0  0.69552  0.57681  0.21678  1.0000
  H   H1603     1.0  0.88899  0.55382  0.22873  1.0000
  Fe  Fe187     1.0  0.61013  0.63366  0.20100  1.0000
  H   H1604     1.0  0.92847  0.61416  0.15415  1.0000
  H   H1605     1.0  0.81690  0.49541  0.10154  1.0000
  C   C1335     1.0  0.89504  0.57052  0.19733  1.0000
  C   C1336     1.0  0.89614  0.55868  0.18659  1.0000
  H   H1606     1.0  0.91251  0.54862  0.18260  1.0000
  S   S372      1.0  0.92027  0.56856  0.20434  1.0000
  C   C1337     1.0  0.71133  0.58327  0.21632  1.0000
  S   S373      1.0  0.94878  0.61985  0.20663  1.0000
  C   C1338     1.0  0.81936  0.52957  0.09115  1.0000
  C   C1339     1.0  0.95552  0.41257  0.98630  1.0000
  H   H1607     1.0  0.83799  0.53594  0.20676  1.0000
  H   H1608     1.0  0.95534  0.47665  0.08674  1.0000
  Fe  Fe188     1.0  0.92129  0.59805  0.21475  1.0000
  C   C1340     1.0  0.83548  0.53297  0.06726  1.0000
  C   C1341     1.0  0.82173  0.50586  0.09187  1.0000
  H   H1609     1.0  0.84116  0.54443  0.05827  1.0000
  S   S374      1.0  0.89109  0.62757  0.21550  1.0000
  Fe  Fe189     1.0  0.95050  0.61951  0.22854  1.0000
  H   H1610     1.0  0.91719  0.63894  0.17877  1.0000
  C   C1342     1.0  0.88440  0.61485  0.16379  1.0000
  H   H1611     1.0  0.55200  0.55673  0.14414  1.0000
  H   H1612     1.0  0.57024  0.56401  0.21889  1.0000
  H   H1613     1.0  0.71831  0.58751  0.19481  1.0000
  C   C1343     1.0  0.90540  0.62757  0.17779  1.0000
  C   C1344     1.0  0.83308  0.54059  0.21685  1.0000
  C   C1345     1.0  0.82612  0.54309  0.07888  1.0000
  H   H1614     1.0  0.94762  0.53541  0.06631  1.0000
  H   H1615     1.0  0.54689  0.62204  0.16902  1.0000
  C   C1346     1.0  0.72451  0.58958  0.20374  1.0000
  N   N90       1.0  0.89724  0.63308  0.16445  1.0000
  C   C1347     1.0  0.50497  0.55365  0.13062  1.0000
  C   C1348     1.0  0.95554  0.49176  0.07851  1.0000
  S   S375      1.0  0.87174  0.63883  0.12759  1.0000
  H   H1616     1.0  0.57972  0.61666  0.21997  1.0000
  Fe  Fe190     1.0  0.94801  0.32611  0.99359  1.0000
  H   H1617     1.0  0.82489  0.56145  0.07850  1.0000
  H   H1618     1.0  0.51182  0.63468  0.15780  1.0000
  H   H1619     1.0  0.71243  0.64446  0.14647  1.0000
  H   H1620     1.0  0.89535  0.59736  0.16537  1.0000
  C   C1349     1.0  0.91768  0.63181  0.15352  1.0000
  H   H1621     1.0  0.97391  0.56094  0.98739  1.0000
  H   H1622     1.0  0.77489  0.62986  0.19438  1.0000
  H   H1623     1.0  0.55760  0.60266  0.21762  1.0000
  S   S376      1.0  0.92224  0.65058  0.23027  1.0000
  S   S377      1.0  0.57997  0.64353  0.18963  1.0000
  H   H1624     1.0  0.50185  0.54926  0.12144  1.0000
  H   H1625     1.0  0.87910  0.61679  0.15370  1.0000
  H   H1626     1.0  0.96779  0.48536  0.06977  1.0000
  H   H1627     1.0  0.54204  0.54679  0.12378  1.0000
  C   C1350     1.0  0.71839  0.58525  0.22824  1.0000
  H   H1628     1.0  0.96814  0.39757  0.98285  1.0000
  H   H1629     1.0  0.52088  0.56909  0.16251  1.0000
  N   N91       1.0  0.96654  0.43261  0.98587  1.0000
  H   H1630     1.0  0.97055  0.54443  0.07221  1.0000
  H   H1631     1.0  0.99369  0.37657  0.06090  1.0000
  H   H1632     1.0  0.95636  0.46505  0.99336  1.0000
  C   C1351     1.0  0.73863  0.59364  0.22762  1.0000
  H   H1633     1.0  0.86810  0.53443  0.22021  1.0000
  S   S378      1.0  0.60783  0.64899  0.21983  1.0000
  H   H1634     1.0  0.97737  0.52261  0.06170  1.0000
  C   C1352     1.0  0.58581  0.56054  0.22346  1.0000
  H   H1635     1.0  0.55035  0.62481  0.22792  1.0000
  H   H1636     1.0  0.69553  0.63199  0.22025  1.0000
  H   H1637     1.0  0.99061  0.35044  0.04556  1.0000
  C   C1353     1.0  0.64051  0.61193  0.22817  1.0000
  H   H1638     1.0  0.63869  0.52503  0.22069  1.0000
  H   H1639     1.0  0.85199  0.64824  0.15781  1.0000
  C   C1354     1.0  0.68460  0.64892  0.21947  1.0000
  H   H1640     1.0  0.99137  0.51758  0.09019  1.0000
  H   H1641     1.0  0.67361  0.64609  0.20103  1.0000
  C   C1355     1.0  0.70089  0.52845  0.31544  1.0000
  Fe  Fe191     1.0  0.63054  0.33669  0.43192  1.0000
  S   S379      1.0  0.59839  0.36213  0.43682  1.0000
  S   S380      1.0  0.66360  0.34995  0.42312  1.0000
  C   C1356     1.0  0.71513  0.52519  0.32524  1.0000
  C   C1357     1.0  0.51751  0.50375  0.46875  1.0000
  C   C1358     1.0  0.68173  0.51763  0.31804  1.0000
  H   H1642     1.0  0.55366  0.48964  0.37274  1.0000
  H   H1643     1.0  0.66388  0.46141  0.36515  1.0000
  H   H1644     1.0  0.86817  0.55227  0.26496  1.0000
  C   C1359     1.0  0.50275  0.49568  0.46250  1.0000
  C   C1360     1.0  0.50044  0.51589  0.42027  1.0000
  H   H1645     1.0  0.70812  0.58036  0.23799  1.0000
  N   N92       1.0  0.56901  0.59244  0.23726  1.0000
  S   S381      1.0  0.55036  0.47906  0.40227  1.0000
  C   C1361     1.0  0.63199  0.46521  0.47010  1.0000
  S   S382      1.0  0.86855  0.63255  0.25442  1.0000
  H   H1646     1.0  0.89314  0.56022  0.24431  1.0000
  C   C1362     1.0  0.50889  0.47469  0.39674  1.0000
  H   H1647     1.0  0.62956  0.38441  0.44872  1.0000
  H   H1648     1.0  0.65004  0.48436  0.35388  1.0000
  Fe  Fe192     1.0  0.63570  0.48122  0.39507  1.0000
  S   S383      1.0  0.66755  0.45347  0.39588  1.0000
  Fe  Fe193     1.0  0.60699  0.52177  0.40811  1.0000
  S   S384      1.0  0.58339  0.53132  0.39240  1.0000
  S   S385      1.0  0.59494  0.53689  0.42743  1.0000
  Fe  Fe194     1.0  0.61603  0.52426  0.37721  1.0000
  S   S386      1.0  0.61978  0.54508  0.35595  1.0000
  S   S387      1.0  0.60538  0.48427  0.41165  1.0000
  S   S388      1.0  0.63971  0.51825  0.39278  1.0000
  H   H1649     1.0  0.53325  0.59623  0.24711  1.0000
  S   S389      1.0  0.71998  0.58089  0.28203  1.0000
  Fe  Fe195     1.0  0.63509  0.61416  0.46720  1.0000
  C   C1363     1.0  0.52064  0.48550  0.36865  1.0000
  S   S390      1.0  0.65097  0.59747  0.44848  1.0000
  S   S391      1.0  0.67864  0.62494  0.28982  1.0000
  H   H1650     1.0  0.54173  0.52653  0.46630  1.0000
  H   H1651     1.0  0.53264  0.63626  0.41993  1.0000
  H   H1652     1.0  0.67137  0.38713  0.44327  1.0000
  C   C1364     1.0  0.57434  0.60473  0.24727  1.0000
  C   C1365     1.0  0.71030  0.51108  0.33767  1.0000
  H   H1653     1.0  0.50777  0.64714  0.47759  1.0000
  C   C1366     1.0  0.49895  0.55327  0.42575  1.0000
  C   C1367     1.0  0.62927  0.64200  0.24213  1.0000
  H   H1654     1.0  0.72133  0.50994  0.34511  1.0000
  C   C1368     1.0  0.66593  0.40566  0.44453  1.0000
  H   H1655     1.0  0.72120  0.47597  0.35857  1.0000
  C   C1369     1.0  0.53084  0.48002  0.39118  1.0000
  H   H1656     1.0  0.62434  0.33746  0.47606  1.0000
  Fe  Fe196     1.0  0.69149  0.60530  0.27233  1.0000
  C   C1370     1.0  0.55611  0.43702  0.44616  1.0000
  N   N93       1.0  0.64468  0.40953  0.45478  1.0000
  H   H1657     1.0  0.67086  0.46084  0.34725  1.0000
  S   S392      1.0  0.73440  0.62595  0.28942  1.0000
  H   H1658     1.0  0.62503  0.50003  0.45949  1.0000
  C   C1371     1.0  0.63689  0.44172  0.46906  1.0000
  S   S393      1.0  0.67194  0.58894  0.26118  1.0000
  S   S394      1.0  0.71443  0.62978  0.26095  1.0000
  Fe  Fe197     1.0  0.58056  0.33887  0.42979  1.0000
  C   C1372     1.0  0.54239  0.40124  0.44531  1.0000
  S   S395      1.0  0.70676  0.58674  0.32121  1.0000
  C   C1373     1.0  0.80336  0.55412  0.23467  1.0000
  C   C1374     1.0  0.81616  0.60978  0.24405  1.0000
  C   C1375     1.0  0.62537  0.40289  0.45011  1.0000
  C   C1376     1.0  0.67673  0.50343  0.33044  1.0000
  H   H1659     1.0  0.74398  0.59520  0.23696  1.0000
  H   H1660     1.0  0.66252  0.51242  0.36313  1.0000
  H   H1661     1.0  0.81285  0.60382  0.23537  1.0000
  H   H1662     1.0  0.68075  0.41111  0.44741  1.0000
  C   C1377     1.0  0.53077  0.51975  0.46134  1.0000
  H   H1663     1.0  0.70420  0.54015  0.30604  1.0000
  H   H1664     1.0  0.57765  0.59292  0.25684  1.0000
  S   S396      1.0  0.61384  0.48683  0.37873  1.0000
  C   C1378     1.0  0.66259  0.55872  0.35269  1.0000
  Fe  Fe198     1.0  0.70887  0.60218  0.29884  1.0000
  H   H1665     1.0  0.56945  0.55133  0.47400  1.0000
  H   H1666     1.0  0.52877  0.45382  0.42649  1.0000
  H   H1667     1.0  0.66316  0.58136  0.31418  1.0000
  C   C1379     1.0  0.63860  0.43419  0.45641  1.0000
  C   C1380     1.0  0.55440  0.60902  0.45517  1.0000
  C   C1381     1.0  0.65604  0.60704  0.24913  1.0000
  C   C1382     1.0  0.64377  0.62893  0.25133  1.0000
  H   H1668     1.0  0.55129  0.56886  0.25213  1.0000
  C   C1383     1.0  0.51260  0.33699  0.42099  1.0000
  H   H1669     1.0  0.54758  0.51288  0.42004  1.0000
  Fe  Fe199     1.0  0.89716  0.62629  0.23665  1.0000
  H   H1670     1.0  0.64471  0.63530  0.26040  1.0000
  H   H1671     1.0  0.62167  0.41308  0.44018  1.0000
  C   C1384     1.0  0.69106  0.49956  0.34063  1.0000
  C   C1385     1.0  0.87554  0.52095  0.24846  1.0000
  C   C1386     1.0  0.64391  0.55722  0.34665  1.0000
  C   C1387     1.0  0.66689  0.47240  0.35503  1.0000
  C   C1388     1.0  0.68199  0.57618  0.33086  1.0000
  C   C1389     1.0  0.66309  0.57515  0.32489  1.0000
  C   C1390     1.0  0.64420  0.56567  0.33275  1.0000
  C   C1391     1.0  0.57423  0.62625  0.39907  1.0000
  H   H1672     1.0  0.57935  0.62258  0.46243  1.0000
  H   H1673     1.0  0.62978  0.56476  0.32800  1.0000
  C   C1392     1.0  0.61224  0.55145  0.43368  1.0000
  C   C1393     1.0  0.63418  0.55501  0.42682  1.0000
  C   C1394     1.0  0.64632  0.56859  0.43168  1.0000
  C   C1395     1.0  0.63654  0.57870  0.44333  1.0000
  C   C1396     1.0  0.61490  0.57455  0.45030  1.0000
  C   C1397     1.0  0.60291  0.56085  0.44555  1.0000
  H   H1674     1.0  0.64160  0.54775  0.41768  1.0000
  H   H1675     1.0  0.66313  0.57168  0.42625  1.0000
  H   H1676     1.0  0.60718  0.58242  0.45914  1.0000
  H   H1677     1.0  0.58591  0.55819  0.45079  1.0000
  C   C1398     1.0  0.53639  0.33600  0.41663  1.0000
  C   C1399     1.0  0.56551  0.41935  0.42584  1.0000
  N   N94       1.0  0.54765  0.42382  0.43787  1.0000
  H   H1678     1.0  0.55799  0.38986  0.44898  1.0000
  H   H1679     1.0  0.54442  0.54310  0.42050  1.0000
  C   C1400     1.0  0.84187  0.62430  0.25469  1.0000
  C   C1401     1.0  0.82505  0.62490  0.26642  1.0000
  C   C1402     1.0  0.80392  0.61767  0.26702  1.0000
  C   C1403     1.0  0.79967  0.60963  0.25592  1.0000
  C   C1404     1.0  0.82030  0.55308  0.24265  1.0000
  C   C1405     1.0  0.56993  0.47178  0.44801  1.0000
  C   C1406     1.0  0.57272  0.46308  0.46142  1.0000
  H   H1680     1.0  0.79132  0.61751  0.27623  1.0000
  H   H1681     1.0  0.60840  0.60139  0.42285  1.0000
  N   N95       1.0  0.68599  0.48521  0.35404  1.0000
  H   H1682     1.0  0.61079  0.59408  0.40642  1.0000
  H   H1683     1.0  0.66235  0.55291  0.36344  1.0000
  H   H1684     1.0  0.53650  0.39158  0.43873  1.0000
  C   C1407     1.0  0.56751  0.44150  0.46732  1.0000
  H   H1685     1.0  0.66124  0.49618  0.33189  1.0000
  H   H1686     1.0  0.67027  0.52089  0.31054  1.0000
  Fe  Fe200     1.0  0.74235  0.60684  0.27168  1.0000
  H   H1687     1.0  0.56794  0.43540  0.41861  1.0000
  C   C1408     1.0  0.52928  0.52779  0.44765  1.0000
  H   H1688     1.0  0.57481  0.58215  0.41160  1.0000
  C   C1409     1.0  0.51381  0.35218  0.45974  1.0000
  C   C1410     1.0  0.53669  0.48561  0.37711  1.0000
  H   H1689     1.0  0.69234  0.51077  0.36450  1.0000
  C   C1411     1.0  0.70693  0.46791  0.35716  1.0000
  C   C1412     1.0  0.67909  0.50026  0.36459  1.0000
  H   H1690     1.0  0.66408  0.39707  0.47146  1.0000
  H   H1691     1.0  0.55981  0.61893  0.25004  1.0000
  H   H1692     1.0  0.51903  0.42778  0.42697  1.0000
  H   H1693     1.0  0.56079  0.40772  0.41993  1.0000
  C   C1413     1.0  0.66323  0.37902  0.41562  1.0000
  C   C1414     1.0  0.64258  0.39507  0.41412  1.0000
  C   C1415     1.0  0.64346  0.41820  0.40821  1.0000
  C   C1416     1.0  0.66503  0.42512  0.40367  1.0000
  C   C1417     1.0  0.68549  0.40906  0.40522  1.0000
  C   C1418     1.0  0.68459  0.38620  0.41119  1.0000
  H   H1694     1.0  0.62604  0.38962  0.41723  1.0000
  H   H1695     1.0  0.62759  0.43050  0.40689  1.0000
  H   H1696     1.0  0.70218  0.41427  0.40176  1.0000
  H   H1697     1.0  0.70059  0.37395  0.41228  1.0000
  H   H1698     1.0  0.65384  0.37523  0.46592  1.0000
  C   C1419     1.0  0.54452  0.64278  0.42430  1.0000
  C   C1420     1.0  0.52077  0.63677  0.47118  1.0000
  S   S397      1.0  0.98052  0.62265  0.23840  1.0000
  H   H1699     1.0  0.53923  0.54093  0.44255  1.0000
  H   H1700     1.0  0.88911  0.51927  0.25490  1.0000
  C   C1421     1.0  0.63451  0.45162  0.44507  1.0000
  H   H1701     1.0  0.72935  0.53458  0.32338  1.0000
  H   H1702     1.0  0.61403  0.62231  0.40790  1.0000
  C   C1422     1.0  0.54781  0.58278  0.24340  1.0000
  H   H1703     1.0  0.50252  0.35080  0.42624  1.0000
  C   C1423     1.0  0.55931  0.42856  0.45987  1.0000
  S   S398      1.0  0.77505  0.59740  0.25684  1.0000
  Fe  Fe201     1.0  0.58338  0.49348  0.39520  1.0000
  C   C1424     1.0  0.84435  0.54615  0.23779  1.0000
  C   C1425     1.0  0.56178  0.45899  0.44047  1.0000
  C   C1426     1.0  0.52135  0.40149  0.38381  1.0000
  H   H1704     1.0  0.71371  0.45729  0.34894  1.0000
  H   H1705     1.0  0.70308  0.45598  0.36684  1.0000
  H   H1706     1.0  0.52512  0.34705  0.45070  1.0000
  H   H1707     1.0  0.58189  0.64206  0.39520  1.0000
  H   H1708     1.0  0.63959  0.42987  0.47831  1.0000
  H   H1709     1.0  0.58271  0.41117  0.42886  1.0000
  H   H1710     1.0  0.81400  0.55819  0.25250  1.0000
  C   C1427     1.0  0.68159  0.56799  0.34480  1.0000
  C   C1428     1.0  0.53088  0.60909  0.45562  1.0000
  H   H1711     1.0  0.56980  0.58838  0.42846  1.0000
  H   H1712     1.0  0.57422  0.48852  0.44340  1.0000
  H   H1713     1.0  0.51807  0.49814  0.47948  1.0000
  S   S399      1.0  0.92554  0.59488  0.23660  1.0000
  H   H1714     1.0  0.78516  0.55993  0.23854  1.0000
  H   H1715     1.0  0.84197  0.54182  0.26581  1.0000
  H   H1716     1.0  0.51225  0.44168  0.44182  1.0000
  H   H1717     1.0  0.67642  0.49007  0.37493  1.0000
  H   H1718     1.0  0.60165  0.63857  0.42722  1.0000
  N   N96       1.0  0.86282  0.54506  0.24589  1.0000
  S   S400      1.0  0.54972  0.35686  0.42004  1.0000
  H   H1719     1.0  0.49867  0.43176  0.37574  1.0000
  C   C1429     1.0  0.51412  0.62344  0.46331  1.0000
  H   H1720     1.0  0.54049  0.36858  0.39154  1.0000
  C   C1430     1.0  0.51454  0.51983  0.44090  1.0000
  C   C1431     1.0  0.56886  0.63426  0.42195  1.0000
  H   H1721     1.0  0.63545  0.44728  0.43512  1.0000
  Fe  Fe202     1.0  0.59348  0.33978  0.45688  1.0000
  C   C1432     1.0  0.83712  0.61726  0.24340  1.0000
  C   C1433     1.0  0.62958  0.47505  0.44624  1.0000
  H   H1722     1.0  0.57351  0.57858  0.47672  1.0000
  H   H1723     1.0  0.55581  0.41192  0.46508  1.0000
  H   H1724     1.0  0.86342  0.50910  0.25368  1.0000
  H   H1725     1.0  0.69607  0.56888  0.34951  1.0000
  C   C1434     1.0  0.56113  0.62257  0.46289  1.0000
  H   H1726     1.0  0.53869  0.33571  0.47250  1.0000
  H   H1727     1.0  0.84964  0.61733  0.23421  1.0000
  C   C1435     1.0  0.58299  0.64397  0.42824  1.0000
  H   H1728     1.0  0.56743  0.59833  0.44910  1.0000
  H   H1729     1.0  0.87053  0.57792  0.23561  1.0000
  H   H1730     1.0  0.53501  0.53412  0.40723  1.0000
  H   H1731     1.0  0.56010  0.46640  0.43007  1.0000
  H   H1732     1.0  0.66341  0.41529  0.43429  1.0000
  H   H1733     1.0  0.82860  0.63043  0.27518  1.0000
  H   H1734     1.0  0.52837  0.40336  0.45418  1.0000
  H   H1735     1.0  0.64357  0.54660  0.23799  1.0000
  C   C1436     1.0  0.54428  0.63598  0.47115  1.0000
  H   H1736     1.0  0.63367  0.39484  0.47554  1.0000
  C   C1437     1.0  0.62734  0.55044  0.23398  1.0000
  S   S401      1.0  0.57706  0.36062  0.47354  1.0000
  C   C1438     1.0  0.50759  0.36550  0.38693  1.0000
  C   C1439     1.0  0.52598  0.43737  0.43313  1.0000
  C   C1440     1.0  0.50116  0.50355  0.44879  1.0000
  H   H1737     1.0  0.52530  0.48942  0.35776  1.0000
  H   H1738     1.0  0.57907  0.47303  0.46723  1.0000
  H   H1739     1.0  0.61300  0.57686  0.24577  1.0000
  H   H1740     1.0  0.58978  0.61299  0.24307  1.0000
  C   C1441     1.0  0.65436  0.59859  0.23756  1.0000
  N   N97       1.0  0.51242  0.52940  0.42655  1.0000
  H   H1741     1.0  0.58199  0.61368  0.39195  1.0000
  H   H1742     1.0  0.54134  0.57527  0.23602  1.0000
  C   C1442     1.0  0.53581  0.52990  0.41829  1.0000
  Fe  Fe203     1.0  0.70480  0.64725  0.27928  1.0000
  C   C1443     1.0  0.62846  0.48183  0.45871  1.0000
  H   H1743     1.0  0.60911  0.40523  0.45760  1.0000
  H   H1744     1.0  0.88468  0.51456  0.23892  1.0000
  S   S402      1.0  0.52203  0.59008  0.44763  1.0000
  N   N98       1.0  0.57859  0.61652  0.41306  1.0000
  C   C1444     1.0  0.56734  0.59602  0.41788  1.0000
  H   H1745     1.0  0.51096  0.34704  0.39017  1.0000
  C   C1445     1.0  0.87954  0.55985  0.23830  1.0000
  C   C1446     1.0  0.50109  0.41322  0.37890  1.0000
  C   C1447     1.0  0.52464  0.37767  0.38776  1.0000
  H   H1746     1.0  0.54834  0.59999  0.41774  1.0000
  H   H1747     1.0  0.50696  0.56443  0.43030  1.0000
  H   H1748     1.0  0.66358  0.58155  0.23595  1.0000
  C   C1448     1.0  0.60946  0.56791  0.23840  1.0000
  H   H1749     1.0  0.55534  0.63105  0.39847  1.0000
  C   C1449     1.0  0.60405  0.60832  0.41252  1.0000
  C   C1450     1.0  0.85387  0.55285  0.25924  1.0000
  H   H1750     1.0  0.62689  0.48810  0.43740  1.0000
  C   C1451     1.0  0.58815  0.57368  0.23313  1.0000
  H   H1751     1.0  0.84442  0.57106  0.25803  1.0000
  C   C1452     1.0  0.64926  0.39360  0.46749  1.0000
  C   C1453     1.0  0.52132  0.34559  0.47238  1.0000
  H   H1752     1.0  0.53455  0.41089  0.38452  1.0000
  H   H1753     1.0  0.50901  0.49744  0.42134  1.0000
  H   H1754     1.0  0.49765  0.56149  0.41509  1.0000
  H   H1755     1.0  0.56995  0.43468  0.47773  1.0000
  H   H1756     1.0  0.50422  0.47020  0.40758  1.0000
  S   S403      1.0  0.61643  0.65101  0.46535  1.0000
  C   C1454     1.0  0.49861  0.48029  0.37428  1.0000
  H   H1757     1.0  0.50075  0.52217  0.40920  1.0000
  H   H1758     1.0  0.49598  0.62394  0.46331  1.0000
  H   H1759     1.0  0.63133  0.47055  0.47980  1.0000
  C   C1455     1.0  0.50187  0.31989  0.41876  1.0000
  C   C1456     1.0  0.62758  0.63346  0.23057  1.0000
  C   C1457     1.0  0.62221  0.53465  0.52553  1.0000
  C   C1458     1.0  0.57357  0.56037  0.48152  1.0000
  C   C1459     1.0  0.66535  0.38741  0.64585  1.0000
  H   H1760     1.0  0.55234  0.56705  0.51425  1.0000
  C   C1460     1.0  0.70349  0.36674  0.57673  1.0000
  S   S404      1.0  0.64472  0.36684  0.51280  1.0000
  S   S405      1.0  0.63863  0.40428  0.57292  1.0000
  H   H1761     1.0  0.67624  0.43298  0.56954  1.0000
  Fe  Fe204     1.0  0.62612  0.60729  0.49810  1.0000
  H   H1762     1.0  0.62022  0.49871  0.53241  1.0000
  C   C1461     1.0  0.57627  0.49549  0.50808  1.0000
  C   C1462     1.0  0.57606  0.51899  0.50351  1.0000
  N   N99       1.0  0.68475  0.46438  0.54531  1.0000
  H   H1763     1.0  0.78206  0.32912  0.68199  1.0000
  H   H1764     1.0  0.77311  0.32656  0.72487  1.0000
  H   H1765     1.0  0.49677  0.52434  0.52415  1.0000
  H   H1766     1.0  0.52209  0.49171  0.53633  1.0000
  S   S406      1.0  0.60720  0.39201  0.54512  1.0000
  H   H1767     1.0  0.61366  0.53993  0.53512  1.0000
  S   S407      1.0  0.60794  0.44682  0.54472  1.0000
  C   C1463     1.0  0.59573  0.36160  0.48469  1.0000
  C   C1464     1.0  0.55652  0.48633  0.50866  1.0000
  C   C1465     1.0  0.81277  0.32984  0.68991  1.0000
  H   H1768     1.0  0.67763  0.49626  0.55328  1.0000
  H   H1769     1.0  0.84078  0.32960  0.69981  1.0000
  C   C1466     1.0  0.65052  0.40422  0.62448  1.0000
  S   S408      1.0  0.71905  0.32628  0.63925  1.0000
  C   C1467     1.0  0.63772  0.50432  0.51179  1.0000
  S   S409      1.0  0.54883  0.43816  0.53716  1.0000
  C   C1468     1.0  0.49767  0.40711  0.53270  1.0000
  C   C1469     1.0  0.64453  0.52098  0.50090  1.0000
  S   S410      1.0  0.55257  0.65076  0.48194  1.0000
  C   C1470     1.0  0.58795  0.37577  0.49468  1.0000
  H   H1770     1.0  0.66005  0.44137  0.55071  1.0000
  H   H1771     1.0  0.71120  0.46070  0.52759  1.0000
  Fe  Fe205     1.0  0.63136  0.44605  0.52468  1.0000
  C   C1471     1.0  0.73955  0.44362  0.56153  1.0000
  C   C1472     1.0  0.70941  0.42477  0.57549  1.0000
  C   C1473     1.0  0.78931  0.32903  0.69099  1.0000
  C   C1474     1.0  0.64579  0.39812  0.66766  1.0000
  S   S411      1.0  0.60936  0.42837  0.51625  1.0000
  S   S412      1.0  0.65589  0.61824  0.48258  1.0000
  H   H1772     1.0  0.67734  0.35433  0.60934  1.0000
  C   C1475     1.0  0.82241  0.32927  0.70147  1.0000
  H   H1773     1.0  0.64934  0.46903  0.54188  1.0000
  H   H1774     1.0  0.52098  0.49348  0.50534  1.0000
  C   C1476     1.0  0.62604  0.51127  0.52404  1.0000
  H   H1775     1.0  0.55674  0.46811  0.51224  1.0000
  H   H1776     1.0  0.50570  0.46199  0.55230  1.0000
  H   H1777     1.0  0.73054  0.46699  0.54400  1.0000
  C   C1477     1.0  0.64841  0.35962  0.66320  1.0000
  H   H1778     1.0  0.57049  0.38577  0.49562  1.0000
  C   C1478     1.0  0.70123  0.35752  0.59062  1.0000
  H   H1779     1.0  0.56282  0.58846  0.50094  1.0000
  H   H1780     1.0  0.63597  0.41124  0.61903  1.0000
  C   C1479     1.0  0.63307  0.34986  0.49253  1.0000
  H   H1781     1.0  0.53325  0.37244  0.49444  1.0000
  S   S413      1.0  0.65504  0.41311  0.53184  1.0000
  C   C1480     1.0  0.53379  0.57250  0.49097  1.0000
  H   H1782     1.0  0.65242  0.46613  0.55931  1.0000
  Fe  Fe206     1.0  0.58752  0.42649  0.53678  1.0000
  C   C1481     1.0  0.53352  0.41700  0.53585  1.0000
  H   H1783     1.0  0.59191  0.52524  0.50312  1.0000
  N   N100      1.0  0.55651  0.55873  0.49417  1.0000
  C   C1482     1.0  0.56371  0.56953  0.50424  1.0000
  C   C1483     1.0  0.52979  0.37690  0.53861  1.0000
  C   C1484     1.0  0.54308  0.39354  0.53857  1.0000
  C   C1485     1.0  0.67061  0.32179  0.69624  1.0000
  H   H1784     1.0  0.63125  0.36438  0.65968  1.0000
  H   H1785     1.0  0.53711  0.35877  0.54100  1.0000
  H   H1786     1.0  0.56048  0.38817  0.54101  1.0000
  S   S414      1.0  0.60676  0.64379  0.49893  1.0000
  H   H1787     1.0  0.65352  0.51575  0.49137  1.0000
  C   C1486     1.0  0.67935  0.36130  0.59864  1.0000
  C   C1487     1.0  0.66021  0.37512  0.59296  1.0000
  C   C1488     1.0  0.66251  0.38463  0.57911  1.0000
  C   C1489     1.0  0.68416  0.37995  0.57095  1.0000
  C   C1490     1.0  0.69383  0.45643  0.53205  1.0000
  H   H1788     1.0  0.67600  0.40736  0.60648  1.0000
  H   H1789     1.0  0.64355  0.37869  0.59937  1.0000
  H   H1790     1.0  0.68626  0.38725  0.56031  1.0000
  C   C1491     1.0  0.72398  0.45554  0.55277  1.0000
  H   H1791     1.0  0.67082  0.49916  0.53650  1.0000
  C   C1492     1.0  0.68208  0.37165  0.66701  1.0000
  C   C1493     1.0  0.73231  0.42817  0.57283  1.0000
  H   H1792     1.0  0.70393  0.41242  0.58416  1.0000
  C   C1494     1.0  0.66063  0.46001  0.54955  1.0000
  C   C1495     1.0  0.53645  0.50063  0.50471  1.0000
  H   H1793     1.0  0.62812  0.40310  0.66482  1.0000
  N   N101      1.0  0.66069  0.37936  0.66065  1.0000
  C   C1496     1.0  0.77529  0.32790  0.70366  1.0000
  Fe  Fe207     1.0  0.59036  0.63811  0.48228  1.0000
  Fe  Fe208     1.0  0.63072  0.39555  0.52505  1.0000
  C   C1497     1.0  0.70052  0.45241  0.55513  1.0000
  H   H1794     1.0  0.65055  0.33984  0.49167  1.0000
  C   C1498     1.0  0.60276  0.37707  0.50354  1.0000
  H   H1795     1.0  0.70028  0.49498  0.53880  1.0000
  Fe  Fe209     1.0  0.65693  0.31987  0.72940  1.0000
  H   H1796     1.0  0.74449  0.41864  0.57948  1.0000
  H   H1797     1.0  0.82363  0.33069  0.68001  1.0000
  H   H1798     1.0  0.67794  0.36652  0.67821  1.0000
  H   H1799     1.0  0.51996  0.53419  0.49712  1.0000
  C   C1499     1.0  0.68340  0.48971  0.54343  1.0000
  H   H1800     1.0  0.50368  0.44186  0.53019  1.0000
  C   C1500     1.0  0.53606  0.52417  0.50009  1.0000
  C   C1501     1.0  0.62544  0.36431  0.50239  1.0000
  N   N102      1.0  0.51403  0.34491  0.49794  1.0000
  H   H1801     1.0  0.58198  0.56248  0.50587  1.0000
  Fe  Fe210     1.0  0.62992  0.41221  0.55142  1.0000
  H   H1802     1.0  0.75743  0.44617  0.55945  1.0000
  C   C1502     1.0  0.61826  0.34857  0.48366  1.0000
  H   H1803     1.0  0.69541  0.43741  0.53304  1.0000
  S   S415      1.0  0.62535  0.58025  0.51701  1.0000
  H   H1804     1.0  0.68221  0.46463  0.52442  1.0000
  S   S416      1.0  0.64493  0.47503  0.50973  1.0000
  H   H1805     1.0  0.59651  0.38774  0.51136  1.0000
  C   C1503     1.0  0.80858  0.32812  0.71457  1.0000
  H   H1806     1.0  0.64511  0.35257  0.67420  1.0000
  C   C1504     1.0  0.49507  0.33638  0.50815  1.0000
  H   H1807     1.0  0.64582  0.55703  0.49387  1.0000
  C   C1505     1.0  0.64015  0.54439  0.50228  1.0000
  C   C1506     1.0  0.55592  0.53409  0.49943  1.0000
  C   C1507     1.0  0.62942  0.55125  0.51469  1.0000
  C   C1508     1.0  0.69363  0.43671  0.56686  1.0000
  H   H1808     1.0  0.69239  0.38560  0.66528  1.0000
  H   H1809     1.0  0.51995  0.57184  0.50003  1.0000
  H   H1810     1.0  0.52599  0.36060  0.51196  1.0000
  C   C1509     1.0  0.68818  0.38522  0.63824  1.0000
  H   H1811     1.0  0.70579  0.32500  0.68729  1.0000
  C   C1510     1.0  0.51950  0.36519  0.50205  1.0000
  H   H1812     1.0  0.52817  0.56667  0.48260  1.0000
  C   C1511     1.0  0.53492  0.32624  0.49831  1.0000
  C   C1512     1.0  0.50672  0.35186  0.48440  1.0000
  S   S417      1.0  0.72643  0.34286  0.59768  1.0000
  S   S418      1.0  0.66964  0.33828  0.70883  1.0000
  C   C1513     1.0  0.64663  0.39692  0.63849  1.0000
  H   H1813     1.0  0.64310  0.39284  0.67890  1.0000
  H   H1814     1.0  0.69331  0.35619  0.66313  1.0000
  H   H1815     1.0  0.72034  0.36389  0.57043  1.0000
  C   C1514     1.0  0.69186  0.39235  0.62420  1.0000
  H   H1816     1.0  0.70936  0.38995  0.61852  1.0000
  C   C1515     1.0  0.51097  0.42374  0.53261  1.0000
  H   H1817     1.0  0.70353  0.37772  0.64284  1.0000
  C   C1516     1.0  0.50694  0.38366  0.53590  1.0000
  H   H1818     1.0  0.65883  0.34532  0.65784  1.0000
  C   C1517     1.0  0.67309  0.40205  0.61737  1.0000
  H   H1819     1.0  0.75703  0.32725  0.70445  1.0000
  H   H1820     1.0  0.59187  0.48434  0.51121  1.0000
  H   H1821     1.0  0.53468  0.59109  0.48744  1.0000
  H   H1822     1.0  0.65380  0.41382  0.66531  1.0000
  H   H1823     1.0  0.55078  0.33211  0.49224  1.0000
  H   H1824     1.0  0.62877  0.39844  0.64349  1.0000
  H   H1825     1.0  0.54309  0.32349  0.71793  1.0000
  S   S419      1.0  0.60706  0.60102  0.48280  1.0000
  H   H1826     1.0  0.50399  0.37917  0.50324  1.0000
  C   C1518     1.0  0.78469  0.32750  0.71529  1.0000
  H   H1827     1.0  0.80595  0.36360  0.72736  1.0000
  H   H1828     1.0  0.66384  0.33856  0.55790  1.0000
  H   H1829     1.0  0.50089  0.32888  0.51811  1.0000
  C   C1519     1.0  0.50335  0.49286  0.53824  1.0000
  C   C1520     1.0  0.84324  0.32865  0.72455  1.0000
  H   H1830     1.0  0.84655  0.34512  0.71804  1.0000
  N   N103      1.0  0.81815  0.32727  0.72708  1.0000
  H   H1831     1.0  0.59171  0.55283  0.48328  1.0000
  C   C1521     1.0  0.67709  0.32543  0.56230  1.0000
  H   H1832     1.0  0.53917  0.32043  0.50877  1.0000
  H   H1833     1.0  0.66340  0.33149  0.58264  1.0000
  C   C1522     1.0  0.67684  0.32139  0.57625  1.0000
  H   H1834     1.0  0.79043  0.39813  0.79077  1.0000
  C   C1523     1.0  0.89089  0.38087  0.80392  1.0000
  Fe  Fe211     1.0  0.93349  0.54781  0.93341  1.0000
  S   S420      1.0  0.90973  0.57577  0.92209  1.0000
  S   S421      1.0  0.91952  0.52382  0.95144  1.0000
  Fe  Fe212     1.0  0.97645  0.56001  0.91527  1.0000
  S   S422      1.0  0.95679  0.58932  0.90223  1.0000
  C   C1524     1.0  0.74532  0.34449  0.76966  1.0000
  Fe  Fe213     1.0  0.93527  0.59842  0.92183  1.0000
  Fe  Fe214     1.0  0.93276  0.56453  0.90349  1.0000
  S   S423      1.0  0.91624  0.56506  0.88533  1.0000
  S   S424      1.0  0.95704  0.57127  0.93477  1.0000
  S   S425      1.0  0.95437  0.53451  0.91479  1.0000
  Fe  Fe215     1.0  0.90559  0.39312  0.86477  1.0000
  S   S426      1.0  0.91657  0.37636  0.88498  1.0000
  S   S427      1.0  0.90130  0.36857  0.85122  1.0000
  Fe  Fe216     1.0  0.90765  0.44137  0.86993  1.0000
  S   S428      1.0  0.91864  0.42813  0.89012  1.0000
  S   S429      1.0  0.89967  0.47976  0.86251  1.0000
  Fe  Fe217     1.0  0.94250  0.40007  0.88000  1.0000
  H   H1835     1.0  0.85003  0.32761  0.73415  1.0000
  Fe  Fe218     1.0  0.89191  0.40588  0.89326  1.0000
  S   S430      1.0  0.86563  0.40554  0.91236  1.0000
  S   S431      1.0  0.93364  0.41487  0.85921  1.0000
  S   S432      1.0  0.87884  0.42106  0.87358  1.0000
  H   H1836     1.0  0.98591  0.52510  0.97292  1.0000
  S   S433      1.0  0.82730  0.34810  0.78415  1.0000
  H   H1837     1.0  0.74883  0.39936  0.82187  1.0000
  H   H1838     1.0  0.89149  0.34874  0.77258  1.0000
  H   H1839     1.0  0.95763  0.39017  0.95018  1.0000
  S   S434      1.0  0.77216  0.35363  0.76723  1.0000
  C   C1525     1.0  0.97808  0.47138  0.95162  1.0000
  S   S435      1.0  0.82006  0.36611  0.81903  1.0000
  H   H1840     1.0  0.77798  0.40051  0.81383  1.0000
  H   H1841     1.0  0.98038  0.42216  0.86195  1.0000
  C   C1526     1.0  0.87726  0.36768  0.84348  1.0000
  C   C1527     1.0  0.85900  0.38650  0.84181  1.0000
  C   C1528     1.0  0.84144  0.38564  0.83448  1.0000
  C   C1529     1.0  0.84170  0.36586  0.82895  1.0000
  C   C1530     1.0  0.85936  0.34670  0.83117  1.0000
  C   C1531     1.0  0.87723  0.34777  0.83816  1.0000
  H   H1842     1.0  0.85877  0.40192  0.84583  1.0000
  H   H1843     1.0  0.82774  0.40049  0.83298  1.0000
  H   H1844     1.0  0.94892  0.40486  0.90861  1.0000
  C   C1532     1.0  0.98669  0.53595  0.86662  1.0000
  C   C1533     1.0  0.91207  0.54016  0.88000  1.0000
  C   C1534     1.0  0.92020  0.51753  0.88611  1.0000
  C   C1535     1.0  0.91665  0.49848  0.88099  1.0000
  C   C1536     1.0  0.90496  0.50218  0.86979  1.0000
  C   C1537     1.0  0.89685  0.52478  0.86390  1.0000
  C   C1538     1.0  0.90037  0.54356  0.86894  1.0000
  H   H1845     1.0  0.92935  0.51476  0.89463  1.0000
  H   H1846     1.0  0.92325  0.48109  0.88554  1.0000
  H   H1847     1.0  0.88789  0.52783  0.85525  1.0000
  H   H1848     1.0  0.89412  0.56089  0.86412  1.0000
  H   H1849     1.0  0.86170  0.45263  0.89390  1.0000
  C   C1539     1.0  0.87989  0.35594  0.95121  1.0000
  C   C1540     1.0  0.89770  0.35676  0.93998  1.0000
  C   C1541     1.0  0.89338  0.37132  0.92774  1.0000
  C   C1542     1.0  0.87166  0.38578  0.92698  1.0000
  C   C1543     1.0  0.85411  0.38500  0.93826  1.0000
  C   C1544     1.0  0.85808  0.36989  0.95023  1.0000
  H   H1850     1.0  0.91448  0.34569  0.94061  1.0000
  H   H1851     1.0  0.90667  0.37127  0.91887  1.0000
  H   H1852     1.0  0.83723  0.39594  0.93771  1.0000
  H   H1853     1.0  0.84423  0.36921  0.95883  1.0000
  H   H1854     1.0  0.72807  0.37262  0.81993  1.0000
  H   H1855     1.0  0.73258  0.40643  0.77787  1.0000
  N   N104      1.0  0.90342  0.34672  0.79160  1.0000
  S   S436      1.0  0.97776  0.38864  0.88663  1.0000
  C   C1545     1.0  0.88150  0.52076  0.92509  1.0000
  C   C1546     1.0  0.98043  0.39513  0.92487  1.0000
  H   H1856     1.0  0.87656  0.37096  0.78190  1.0000
  H   H1857     1.0  0.92904  0.39197  0.94578  1.0000
  H   H1858     1.0  0.96537  0.53054  0.95333  1.0000
  C   C1547     1.0  0.97517  0.57638  0.97993  1.0000
  C   C1548     1.0  0.94814  0.38800  0.94225  1.0000
  H   H1859     1.0  0.70234  0.34292  0.75215  1.0000
  C   C1549     1.0  0.94801  0.46717  0.91729  1.0000
  C   C1550     1.0  0.99256  0.58882  0.97944  1.0000
  C   C1551     1.0  0.73372  0.39153  0.79914  1.0000
  H   H1860     1.0  0.86958  0.63346  0.90550  1.0000
  H   H1861     1.0  0.76766  0.37432  0.81572  1.0000
  C   C1552     1.0  0.76236  0.39342  0.81347  1.0000
  N   N105      1.0  0.95502  0.40232  0.92905  1.0000
  C   C1553     1.0  0.69364  0.37515  0.79683  1.0000
  C   C1554     1.0  0.98258  0.49293  0.86183  1.0000
  H   H1862     1.0  0.81281  0.34719  0.74333  1.0000
  H   H1863     1.0  0.93252  0.49428  0.92909  1.0000
  C   C1555     1.0  0.97850  0.61676  0.96039  1.0000
  H   H1864     1.0  0.74408  0.43355  0.78752  1.0000
  H   H1865     1.0  0.76345  0.43413  0.79875  1.0000
  H   H1866     1.0  0.93824  0.33858  0.78076  1.0000
  S   S437      1.0  0.92018  0.63295  0.92885  1.0000
  N   N106      1.0  0.75429  0.40088  0.80010  1.0000
  C   C1556     1.0  0.70239  0.36972  0.80902  1.0000
  H   H1867     1.0  0.86530  0.46931  0.92807  1.0000
  C   C1557     1.0  0.93269  0.46075  0.94115  1.0000
  C   C1558     1.0  0.86760  0.48661  0.92348  1.0000
  H   H1868     1.0  0.83599  0.46102  0.92053  1.0000
  H   H1869     1.0  0.87529  0.45184  0.90815  1.0000
  H   H1870     1.0  0.88389  0.46931  0.89234  1.0000
  C   C1559     1.0  0.96114  0.60351  0.96110  1.0000
  H   H1871     1.0  0.73340  0.43278  0.80529  1.0000
  N   N107      1.0  0.85099  0.48331  0.90316  1.0000
  H   H1872     1.0  0.74033  0.35570  0.74881  1.0000
  C   C1560     1.0  0.86124  0.49652  0.91056  1.0000
  C   C1561     1.0  0.87738  0.49870  0.93065  1.0000
  C   C1562     1.0  0.72446  0.39649  0.78683  1.0000
  C   C1563     1.0  0.71159  0.34057  0.76061  1.0000
  C   C1564     1.0  0.95651  0.52551  0.96341  1.0000
  C   C1565     1.0  0.86873  0.46343  0.89925  1.0000
  H   H1873     1.0  0.88197  0.49092  0.94054  1.0000
  H   H1874     1.0  0.82182  0.46587  0.90629  1.0000
  C   C1566     1.0  0.93380  0.52138  0.96534  1.0000
  C   C1567     1.0  0.74855  0.42644  0.79780  1.0000
  H   H1875     1.0  0.85760  0.50232  0.88291  1.0000
  H   H1876     1.0  0.81787  0.48868  0.91616  1.0000
  C   C1568     1.0  0.84288  0.49697  0.89058  1.0000
  C   C1569     1.0  0.73313  0.34772  0.75874  1.0000
  C   C1570     1.0  0.89396  0.36019  0.77937  1.0000
  C   C1571     1.0  0.72214  0.37771  0.81023  1.0000
  H   H1877     1.0  0.86893  0.34499  0.80271  1.0000
  C   C1572     1.0  0.96725  0.53346  0.86165  1.0000
  H   H1878     1.0  0.78680  0.34567  0.73787  1.0000
  S   S438      1.0  0.67510  0.32141  0.77643  1.0000
  H   H1879     1.0  0.90605  0.32249  0.91895  1.0000
  H   H1880     1.0  0.94986  0.37018  0.81683  1.0000
  H   H1881     1.0  0.87363  0.38375  0.80136  1.0000
  H   H1882     1.0  0.98529  0.37624  0.92458  1.0000
  Fe  Fe219     1.0  0.81886  0.33847  0.80677  1.0000
  C   C1573     1.0  0.73580  0.33434  0.78246  1.0000
  C   C1574     1.0  0.93362  0.37341  0.81289  1.0000
  H   H1883     1.0  0.95629  0.47647  0.97020  1.0000
  C   C1575     1.0  0.93864  0.43688  0.94136  1.0000
  C   C1576     1.0  0.96891  0.46399  0.96510  1.0000
  C   C1577     1.0  0.94277  0.39695  0.91907  1.0000
  S   S439      1.0  0.78469  0.32912  0.80555  1.0000
  Fe  Fe220     1.0  0.96942  0.33244  0.96413  1.0000
  H   H1884     1.0  0.93460  0.42620  0.95100  1.0000
  C   C1578     1.0  0.95404  0.44335  0.91738  1.0000
  H   H1885     1.0  0.67862  0.36852  0.79583  1.0000
  H   H1886     1.0  0.95015  0.51021  0.85534  1.0000
  C   C1579     1.0  0.94932  0.42744  0.92939  1.0000
  H   H1887     1.0  0.95783  0.64471  0.90733  1.0000
  H   H1888     1.0  0.87976  0.54775  0.90788  1.0000
  C   C1580     1.0  0.83080  0.47448  0.91194  1.0000
  H   H1889     1.0  0.77076  0.40082  0.77911  1.0000
  C   C1581     1.0  0.87598  0.53078  0.91232  1.0000
  H   H1890     1.0  0.83480  0.48669  0.88545  1.0000
  H   H1891     1.0  0.85926  0.33104  0.82751  1.0000
  C   C1582     1.0  0.96528  0.51206  0.85917  1.0000
  H   H1892     1.0  0.94588  0.37808  0.91882  1.0000
  Fe  Fe221     1.0  0.79494  0.33585  0.78296  1.0000
  Fe  Fe222     1.0  0.91948  0.32703  0.97192  1.0000
  H   H1893     1.0  0.77725  0.37434  0.79018  1.0000
  H   H1894     1.0  0.69394  0.35900  0.81753  1.0000
  C   C1583     1.0  0.70189  0.33081  0.77351  1.0000
  H   H1895     1.0  0.86277  0.52756  0.89513  1.0000
  C   C1584     1.0  0.77399  0.39334  0.78960  1.0000
  C   C1585     1.0  0.70475  0.38837  0.78574  1.0000
  H   H1896     1.0  0.90579  0.61588  0.89483  1.0000
  H   H1897     1.0  0.82978  0.51258  0.89274  1.0000
  C   C1586     1.0  0.95955  0.58366  0.97074  1.0000
  C   C1587     1.0  0.86606  0.51893  0.90509  1.0000
  C   C1588     1.0  0.88591  0.33360  0.79996  1.0000
  H   H1898     1.0  0.94869  0.60834  0.95413  1.0000
  H   H1899     1.0  0.95341  0.54818  0.85987  1.0000
  H   H1900     1.0  0.92369  0.40336  0.92130  1.0000
  S   S440      1.0  0.88361  0.33699  0.96644  1.0000
  C   C1589     1.0  0.97596  0.44113  0.97164  1.0000
  H   H1901     1.0  0.89194  0.32413  0.80955  1.0000
  H   H1902     1.0  0.98079  0.47623  0.86007  1.0000
  H   H1903     1.0  0.92456  0.46774  0.95035  1.0000
  H   H1904     1.0  0.91868  0.40203  0.82356  1.0000
  H   H1905     1.0  0.97062  0.62329  0.93440  1.0000
  H   H1906     1.0  0.94262  0.64696  0.94970  1.0000
  S   S441      1.0  0.63412  0.33583  0.74687  1.0000
  H   H1907     1.0  0.88917  0.53002  0.93066  1.0000
  H   H1908     1.0  0.90586  0.37172  0.77338  1.0000
  C   C1590     1.0  0.90842  0.36238  0.79977  1.0000
  C   C1591     1.0  0.91610  0.39150  0.81666  1.0000
  H   H1909     1.0  0.88102  0.40894  0.81544  1.0000
  C   C1592     1.0  0.93729  0.47583  0.92915  1.0000
  H   H1910     1.0  0.98687  0.55298  0.86844  1.0000
  H   H1911     1.0  0.88364  0.64995  0.91299  1.0000
  C   C1593     1.0  0.89486  0.39534  0.81208  1.0000
  H   H1912     1.0  0.94619  0.57378  0.97105  1.0000
  H   H1913     1.0  0.94420  0.34516  0.80222  1.0000
  H   H1914     1.0  0.74487  0.33204  0.79097  1.0000
  H   H1915     1.0  0.69832  0.39186  0.77614  1.0000
  C   C1594     1.0  0.71397  0.32797  0.78443  1.0000
  H   H1916     1.0  0.95243  0.36926  0.94151  1.0000
  H   H1917     1.0  0.87388  0.63650  0.88121  1.0000
  C   C1595     1.0  0.96828  0.52207  0.97450  1.0000
  C   C1596     1.0  0.98451  0.63137  0.93634  1.0000
  C   C1597     1.0  0.92413  0.32978  0.78688  1.0000
  N   N108      1.0  0.97970  0.63777  0.95009  1.0000
  H   H1918     1.0  0.99044  0.39897  0.93204  1.0000
  H   H1919     1.0  0.95156  0.47895  0.90795  1.0000
  H   H1920     1.0  0.96223  0.43744  0.90790  1.0000
  C   C1598     1.0  0.92294  0.51384  0.97844  1.0000
  C   C1599     1.0  0.93001  0.35904  0.80453  1.0000
  H   H1921     1.0  0.89113  0.33304  0.83951  1.0000
  H   H1922     1.0  0.70641  0.32079  0.79448  1.0000
  S   S442      1.0  0.93873  0.35262  0.97581  1.0000
  C   C1600     1.0  0.80538  0.34676  0.73416  1.0000
  H   H1923     1.0  0.97223  0.48890  0.94682  1.0000
  H   H1924     1.0  0.92226  0.63304  0.90039  1.0000
  H   H1925     1.0  0.98670  0.40363  0.91449  1.0000
  H   H1926     1.0  0.98583  0.64668  0.92830  1.0000
  C   C1601     1.0  0.91232  0.63247  0.89232  1.0000
  H   H1927     1.0  0.92484  0.63146  0.88276  1.0000
  H   H1928     1.0  0.94151  0.41712  0.97994  1.0000
  H   H1929     1.0  0.98604  0.35310  0.97898  1.0000
  C   C1602     1.0  0.87588  0.65007  0.90386  1.0000
  H   H1930     1.0  0.90544  0.51048  0.97999  1.0000
  H   H1931     1.0  0.88243  0.32064  0.79457  1.0000
  C   C1603     1.0  0.99274  0.42629  0.96383  1.0000
  H   H1932     1.0  0.89388  0.65234  0.87000  1.0000
  C   C1604     1.0  0.88158  0.65230  0.87971  1.0000
  C   C1605     1.0  0.83485  0.71410  0.12068  1.0000
  Fe  Fe223     1.0  0.93552  0.80813  0.20721  1.0000
  C   C1606     1.0  0.76628  0.69154  0.14307  1.0000
  S   S443      1.0  0.93070  0.82536  0.18600  1.0000
  C   C1607     1.0  0.62404  0.69463  0.15711  1.0000
  C   C1608     1.0  0.86034  0.66152  0.15940  1.0000
  H   H1933     1.0  0.66134  0.77480  0.13313  1.0000
  C   C1609     1.0  0.52767  0.71481  0.16868  1.0000
  S   S444      1.0  0.94994  0.77077  0.21376  1.0000
  H   H1934     1.0  0.88214  0.78874  0.18871  1.0000
  H   H1935     1.0  0.67870  0.76455  0.15452  1.0000
  H   H1936     1.0  0.95440  0.80398  0.01338  1.0000
  C   C1610     1.0  0.82350  0.69639  0.11993  1.0000
  H   H1937     1.0  0.67824  0.79677  0.12873  1.0000
  Fe  Fe224     1.0  0.66704  0.77678  0.20505  1.0000
  S   S445      1.0  0.64593  0.81090  0.19733  1.0000
  H   H1938     1.0  0.84876  0.72002  0.15620  1.0000
  Fe  Fe225     1.0  0.66194  0.75458  0.18156  1.0000
  S   S446      1.0  0.63996  0.78643  0.17199  1.0000
  S   S447      1.0  0.67722  0.72231  0.17265  1.0000
  Fe  Fe226     1.0  0.66613  0.80438  0.17680  1.0000
  S   S448      1.0  0.68504  0.82649  0.15961  1.0000
  Fe  Fe227     1.0  0.62159  0.78983  0.19323  1.0000
  S   S449      1.0  0.58303  0.79360  0.20206  1.0000
  S   S450      1.0  0.68898  0.77216  0.18503  1.0000
  S   S451      1.0  0.64174  0.75610  0.20231  1.0000
  Fe  Fe228     1.0  0.87025  0.78312  0.13770  1.0000
  S   S452      1.0  0.87004  0.78119  0.11585  1.0000
  S   S453      1.0  0.90054  0.76751  0.14887  1.0000
  Fe  Fe229     1.0  0.81888  0.80520  0.14291  1.0000
  S   S454      1.0  0.81434  0.80626  0.12143  1.0000
  S   S455      1.0  0.79291  0.81105  0.16183  1.0000
  Fe  Fe230     1.0  0.83543  0.77029  0.12355  1.0000
  S   S456      1.0  0.81964  0.74274  0.11860  1.0000
  Fe  Fe231     1.0  0.84933  0.81733  0.11532  1.0000
  S   S457      1.0  0.85663  0.84827  0.09929  1.0000
  S   S458      1.0  0.83782  0.76871  0.14528  1.0000
  S   S459      1.0  0.85166  0.81972  0.13688  1.0000
  Fe  Fe232     1.0  0.93505  0.88007  0.02703  1.0000
  S   S460      1.0  0.96124  0.86966  0.00906  1.0000
  S   S461      1.0  0.92774  0.84946  0.04348  1.0000
  Fe  Fe233     1.0  0.92986  0.93047  0.01446  1.0000
  S   S462      1.0  0.95550  0.92388  0.99592  1.0000
  S   S463      1.0  0.91116  0.96730  0.01399  1.0000
  Fe  Fe234     1.0  0.93805  0.89448  0.99600  1.0000
  H   H1939     1.0  0.91348  0.75413  0.20759  1.0000
  C   C1611     1.0  0.97374  0.69560  0.20180  1.0000
  C   C1612     1.0  0.55898  0.81257  0.18053  1.0000
  S   S464      1.0  0.91025  0.90284  0.01360  1.0000
  S   S465      1.0  0.95293  0.90850  0.02905  1.0000
  H   H1940     1.0  0.88693  0.68131  0.12707  1.0000
  H   H1941     1.0  0.78850  0.71610  0.13932  1.0000
  C   C1613     1.0  0.84801  0.68414  0.15725  1.0000
  H   H1942     1.0  0.80128  0.80463  0.19006  1.0000
  H   H1943     1.0  0.84319  0.77555  0.22209  1.0000
  H   H1944     1.0  0.50428  0.78683  0.19816  1.0000
  C   C1614     1.0  0.56486  0.70745  0.18399  1.0000
  H   H1945     1.0  0.92601  0.84732  0.99018  1.0000
  N   N109      1.0  0.84694  0.78283  0.19427  1.0000
  C   C1615     1.0  0.83464  0.67325  0.12221  1.0000
  C   C1616     1.0  0.97065  0.81001  0.01221  1.0000
  C   C1617     1.0  0.51861  0.80933  0.18096  1.0000
  H   H1946     1.0  0.83003  0.78329  0.17721  1.0000
  C   C1618     1.0  0.87562  0.84812  0.08349  1.0000
  C   C1619     1.0  0.87875  0.86928  0.07529  1.0000
  C   C1620     1.0  0.89442  0.87004  0.06296  1.0000
  C   C1621     1.0  0.90725  0.84960  0.05871  1.0000
  C   C1622     1.0  0.90415  0.82843  0.06693  1.0000
  C   C1623     1.0  0.88835  0.82765  0.07919  1.0000
  H   H1947     1.0  0.86901  0.88522  0.07850  1.0000
  H   H1948     1.0  0.89662  0.88645  0.05678  1.0000
  H   H1949     1.0  0.91389  0.81251  0.06370  1.0000
  H   H1950     1.0  0.88601  0.81122  0.08528  1.0000
  H   H1951     1.0  0.53813  0.83021  0.16515  1.0000
  H   H1952     1.0  0.76779  0.86056  0.22351  1.0000
  H   H1953     1.0  0.86663  0.72224  0.12385  1.0000
  H   H1954     1.0  0.85825  0.74984  0.20623  1.0000
  H   H1955     1.0  0.86183  0.81165  0.19579  1.0000
  C   C1624     1.0  0.71497  0.82274  0.16023  1.0000
  C   C1625     1.0  0.72328  0.81597  0.17261  1.0000
  C   C1626     1.0  0.74716  0.81303  0.17298  1.0000
  C   C1627     1.0  0.76297  0.81616  0.16095  1.0000
  C   C1628     1.0  0.75474  0.82273  0.14854  1.0000
  C   C1629     1.0  0.73074  0.82636  0.14821  1.0000
  H   H1956     1.0  0.71121  0.81365  0.18196  1.0000
  H   H1957     1.0  0.75336  0.80816  0.18262  1.0000
  H   H1958     1.0  0.76680  0.82547  0.13923  1.0000
  H   H1959     1.0  0.72438  0.83209  0.13865  1.0000
  C   C1630     1.0  0.65728  0.71256  0.16568  1.0000
  C   C1631     1.0  0.63553  0.72624  0.16411  1.0000
  C   C1632     1.0  0.61901  0.71735  0.15962  1.0000
  C   C1633     1.0  0.65772  0.67835  0.20783  1.0000
  C   C1634     1.0  0.66312  0.69070  0.16184  1.0000
  H   H1960     1.0  0.63107  0.74329  0.16684  1.0000
  H   H1961     1.0  0.60191  0.72749  0.15897  1.0000
  H   H1962     1.0  0.68008  0.68019  0.16280  1.0000
  H   H1963     1.0  0.92153  0.72761  0.19072  1.0000
  H   H1964     1.0  0.87233  0.78528  0.20637  1.0000
  C   C1635     1.0  0.64646  0.68175  0.15756  1.0000
  H   H1965     1.0  0.73589  0.73080  0.12360  1.0000
  H   H1966     1.0  0.93987  0.81199  0.09257  1.0000
  H   H1967     1.0  0.91827  0.84901  0.09093  1.0000
  S   S466      1.0  0.90239  0.80863  0.22195  1.0000
  H   H1968     1.0  0.89969  0.81846  0.10585  1.0000
  H   H1969     1.0  0.94814  0.79558  0.10791  1.0000
  H   H1970     1.0  0.69258  0.81109  0.21162  1.0000
  C   C1636     1.0  0.76934  0.87560  0.22794  1.0000
  C   C1637     1.0  0.90803  0.78372  0.15946  1.0000
  C   C1638     1.0  0.92258  0.77255  0.16898  1.0000
  C   C1639     1.0  0.92911  0.78508  0.17746  1.0000
  C   C1640     1.0  0.92152  0.80898  0.17621  1.0000
  C   C1641     1.0  0.90696  0.82015  0.16670  1.0000
  C   C1642     1.0  0.90006  0.80754  0.15843  1.0000
  H   H1971     1.0  0.92898  0.75417  0.16971  1.0000
  H   H1972     1.0  0.94055  0.77636  0.18465  1.0000
  H   H1973     1.0  0.90128  0.83867  0.16558  1.0000
  H   H1974     1.0  0.88928  0.81643  0.15096  1.0000
  H   H1975     1.0  0.92607  0.81036  0.98265  1.0000
  H   H1976     1.0  0.54063  0.74097  0.14560  1.0000
  Fe  Fe235     1.0  0.97708  0.89957  0.01011  1.0000
  H   H1977     1.0  0.74142  0.66894  0.14883  1.0000
  H   H1978     1.0  0.80602  0.70056  0.11758  1.0000
  H   H1979     1.0  0.51884  0.71070  0.17929  1.0000
  C   C1643     1.0  0.89207  0.96275  0.98447  1.0000
  C   C1644     1.0  0.85772  0.70866  0.12332  1.0000
  H   H1980     1.0  0.77594  0.68252  0.13486  1.0000
  H   H1981     1.0  0.80656  0.72994  0.15264  1.0000
  C   C1645     1.0  0.53857  0.81834  0.17460  1.0000
  C   C1646     1.0  0.77339  0.71066  0.14577  1.0000
  H   H1982     1.0  0.50792  0.75730  0.16395  1.0000
  C   C1647     1.0  0.98331  0.71547  0.19949  1.0000
  C   C1648     1.0  0.94722  0.85696  0.13628  1.0000
  C   C1649     1.0  0.51942  0.79398  0.19316  1.0000
  H   H1983     1.0  0.89363  0.83397  0.11983  1.0000
  C   C1650     1.0  0.58547  0.74357  0.18639  1.0000
  N   N110      1.0  0.77009  0.74190  0.15964  1.0000
  C   C1651     1.0  0.76945  0.76093  0.14796  1.0000
  C   C1652     1.0  0.75646  0.75153  0.17177  1.0000
  C   C1653     1.0  0.79453  0.73409  0.16203  1.0000
  C   C1654     1.0  0.76138  0.72245  0.15662  1.0000
  C   C1655     1.0  0.74141  0.71427  0.16438  1.0000
  H   H1984     1.0  0.71917  0.68913  0.16762  1.0000
  C   C1656     1.0  0.73443  0.69514  0.16157  1.0000
  H   H1985     1.0  0.75136  0.76816  0.14612  1.0000
  H   H1986     1.0  0.77700  0.77533  0.14964  1.0000
  H   H1987     1.0  0.77972  0.75540  0.13845  1.0000
  H   H1988     1.0  0.73819  0.75916  0.17034  1.0000
  H   H1989     1.0  0.76380  0.76578  0.17386  1.0000
  H   H1990     1.0  0.75639  0.73824  0.18104  1.0000
  C   C1657     1.0  0.70905  0.82189  0.22584  1.0000
  H   H1991     1.0  0.80108  0.74773  0.16537  1.0000
  H   H1992     1.0  0.79626  0.71847  0.16994  1.0000
  H   H1993     1.0  0.73076  0.72229  0.17269  1.0000
  C   C1658     1.0  0.90316  0.70256  0.20388  1.0000
  H   H1994     1.0  0.78134  0.77844  0.10698  1.0000
  C   C1659     1.0  0.53962  0.78864  0.19924  1.0000
  H   H1995     1.0  0.90968  0.86470  0.10466  1.0000
  S   S467      1.0  0.95412  0.82099  0.22068  1.0000
  H   H1996     1.0  0.95777  0.69591  0.19812  1.0000
  C   C1660     1.0  0.86919  0.68550  0.12511  1.0000
  N   N111      1.0  0.92902  0.83017  0.10975  1.0000
  H   H1997     1.0  0.65059  0.66440  0.15522  1.0000
  H   H1998     1.0  0.51394  0.71909  0.16207  1.0000
  H   H1999     1.0  0.51579  0.75475  0.18043  1.0000
  C   C1661     1.0  0.93827  0.83299  0.12169  1.0000
  C   C1662     1.0  0.94566  0.81342  0.13122  1.0000
  C   C1663     1.0  0.93920  0.85493  0.12460  1.0000
  H   H2000     1.0  0.83113  0.68744  0.15406  1.0000
  C   C1664     1.0  0.88017  0.69836  0.16169  1.0000
  H   H2001     1.0  0.96317  0.81850  0.09917  1.0000
  C   C1665     1.0  0.94583  0.81333  0.10207  1.0000
  H   H2002     1.0  0.93983  0.85989  0.09642  1.0000
  H   H2003     1.0  0.88804  0.71271  0.16235  1.0000
  C   C1666     1.0  0.89263  0.67582  0.16386  1.0000
  H   H2004     1.0  0.76773  0.81328  0.20719  1.0000
  C   C1667     1.0  0.89496  0.73189  0.22310  1.0000
  C   C1668     1.0  0.53549  0.82605  0.22193  1.0000
  H   H2005     1.0  0.56215  0.75224  0.15109  1.0000
  H   H2006     1.0  0.64332  0.70824  0.21670  1.0000
  H   H2007     1.0  0.90997  0.67359  0.16620  1.0000
  H   H2008     1.0  0.93352  0.87083  0.11813  1.0000
  C   C1669     1.0  0.83637  0.85864  0.20461  1.0000
  C   C1670     1.0  0.85658  0.85641  0.21007  1.0000
  C   C1671     1.0  0.97879  0.81257  0.02365  1.0000
  N   N112      1.0  0.69779  0.76249  0.13448  1.0000
  C   C1672     1.0  0.69393  0.73859  0.13538  1.0000
  C   C1673     1.0  0.69585  0.76698  0.14847  1.0000
  C   C1674     1.0  0.72068  0.76647  0.12676  1.0000
  C   C1675     1.0  0.73824  0.74848  0.12195  1.0000
  C   C1676     1.0  0.72623  0.78888  0.12423  1.0000
  C   C1677     1.0  0.75974  0.75295  0.11481  1.0000
  C   C1678     1.0  0.74784  0.79310  0.11716  1.0000
  C   C1679     1.0  0.76451  0.77519  0.11239  1.0000
  H   H2009     1.0  0.70629  0.72570  0.14121  1.0000
  H   H2010     1.0  0.67628  0.73642  0.14086  1.0000
  H   H2011     1.0  0.69540  0.73392  0.12516  1.0000
  H   H2012     1.0  0.70937  0.75506  0.15385  1.0000
  H   H2013     1.0  0.69753  0.78490  0.14877  1.0000
  H   H2014     1.0  0.53946  0.69896  0.16559  1.0000
  H   H2015     1.0  0.71398  0.80330  0.12788  1.0000
  H   H2016     1.0  0.77304  0.73906  0.11123  1.0000
  H   H2017     1.0  0.75177  0.81033  0.11545  1.0000
  C   C1680     1.0  0.74685  0.68378  0.15097  1.0000
  H   H2018     1.0  0.94446  0.79623  0.13007  1.0000
  C   C1681     1.0  0.82602  0.78923  0.20429  1.0000
  C   C1682     1.0  0.80398  0.80005  0.20051  1.0000
  H   H2019     1.0  0.94749  0.87385  0.13843  1.0000
  C   C1683     1.0  0.85386  0.75736  0.19598  1.0000
  H   H2020     1.0  0.82567  0.65967  0.12174  1.0000
  H   H2021     1.0  0.97759  0.65964  0.21036  1.0000
  C   C1684     1.0  0.91103  0.72350  0.20047  1.0000
  C   C1685     1.0  0.90702  0.82139  0.11447  1.0000
  C   C1686     1.0  0.67877  0.77843  0.12806  1.0000
  C   C1687     1.0  0.90688  0.73825  0.21011  1.0000
  C   C1688     1.0  0.69863  0.80650  0.22131  1.0000
  H   H2022     1.0  0.68063  0.77692  0.11716  1.0000
  H   H2023     1.0  0.90924  0.80473  0.12153  1.0000
  H   H2024     1.0  0.95891  0.80049  0.15005  1.0000
  H   H2025     1.0  0.58733  0.68658  0.19782  1.0000
  C   C1689     1.0  0.52285  0.75518  0.16947  1.0000
  C   C1690     1.0  0.81451  0.86314  0.21263  1.0000
  H   H2026     1.0  0.79960  0.86454  0.20777  1.0000
  C   C1691     1.0  0.85795  0.70251  0.15834  1.0000
  C   C1692     1.0  0.84342  0.79113  0.17994  1.0000
  C   C1693     1.0  0.85757  0.66776  0.12471  1.0000
  C   C1694     1.0  0.58174  0.70369  0.19240  1.0000
  H   H2027     1.0  0.89434  0.94978  0.99340  1.0000
  H   H2028     1.0  0.53976  0.77754  0.20897  1.0000
  H   H2029     1.0  0.71089  0.83835  0.21962  1.0000
  H   H2030     1.0  0.60539  0.71863  0.19992  1.0000
  C   C1695     1.0  0.56845  0.74762  0.17808  1.0000
  C   C1696     1.0  0.98276  0.81620  0.99926  1.0000
  H   H2031     1.0  0.49742  0.85012  0.20037  1.0000
  C   C1697     1.0  0.59201  0.72170  0.19360  1.0000
  H   H2032     1.0  0.83963  0.74927  0.19449  1.0000
  H   H2033     1.0  0.56606  0.72192  0.15095  1.0000
  H   H2034     1.0  0.95446  0.96909  0.02223  1.0000
  C   C1698     1.0  0.78444  0.80521  0.21029  1.0000
  H   H2035     1.0  0.85958  0.78647  0.17267  1.0000
  S   S468      1.0  0.60153  0.68090  0.15608  1.0000
  H   H2036     1.0  0.86955  0.75182  0.18856  1.0000
  H   H2037     1.0  0.64802  0.68435  0.19943  1.0000
  S   S469      1.0  0.91393  0.68108  0.19381  1.0000
  C   C1699     1.0  0.55753  0.72967  0.17663  1.0000
  H   H2038     1.0  0.59401  0.75735  0.18706  1.0000
  C   C1700     1.0  0.95386  0.81565  0.14277  1.0000
  C   C1701     1.0  0.88941  0.69732  0.21643  1.0000
  H   H2039     1.0  0.55828  0.69256  0.18314  1.0000
  C   C1702     1.0  0.86652  0.79258  0.19643  1.0000
  H   H2040     1.0  0.56441  0.76483  0.17252  1.0000
  H   H2041     1.0  0.83816  0.81025  0.17785  1.0000
  H   H2042     1.0  0.83765  0.85703  0.19405  1.0000
  N   N113      1.0  0.54043  0.73407  0.16720  1.0000
  C   C1703     1.0  0.55281  0.73751  0.15309  1.0000
  S   S470      1.0  0.68303  0.76549  0.22420  1.0000
  C   C1704     1.0  0.67226  0.65682  0.20866  1.0000
  C   C1705     1.0  0.55940  0.79810  0.19305  1.0000
  C   C1706     1.0  0.95448  0.83737  0.14535  1.0000
  C   C1707     1.0  0.65521  0.69199  0.21789  1.0000
  C   C1708     1.0  0.82713  0.78402  0.21841  1.0000
  H   H2043     1.0  0.87353  0.85301  0.20382  1.0000
  H   H2044     1.0  0.57400  0.82015  0.17572  1.0000
  C   C1709     1.0  0.88543  0.71193  0.22609  1.0000
  H   H2045     1.0  0.96009  0.83901  0.15458  1.0000
  H   H2046     1.0  0.97461  0.73130  0.19402  1.0000
  C   C1710     1.0  0.92410  0.85195  0.10010  1.0000
  C   C1711     1.0  0.88315  0.65666  0.16276  1.0000
  H   H2047     1.0  0.53001  0.77127  0.16588  1.0000
  H   H2048     1.0  0.97841  0.97200  0.98750  1.0000
  C   C1712     1.0  0.98493  0.67518  0.20868  1.0000
  H   H2049     1.0  0.77033  0.89081  0.21980  1.0000
  Fe  Fe236     1.0  0.96608  0.78348  0.22849  1.0000
  H   H2050     1.0  0.88290  0.68132  0.21898  1.0000
  H   H2051     1.0  0.96880  0.80871  0.03364  1.0000
  H   H2052     1.0  0.97526  0.81467  0.99070  1.0000
  C   C1713     1.0  0.81234  0.86579  0.22644  1.0000
  C   C1714     1.0  0.50292  0.84076  0.20973  1.0000
  C   C1715     1.0  0.78618  0.79992  0.22403  1.0000
  H   H2053     1.0  0.55392  0.82391  0.22225  1.0000
  C   C1716     1.0  0.66759  0.68446  0.22906  1.0000
  H   H2054     1.0  0.87078  0.85662  0.22790  1.0000
  H   H2055     1.0  0.53798  0.84626  0.20208  1.0000
  C   C1717     1.0  0.52642  0.83873  0.21056  1.0000
  C   C1718     1.0  0.69593  0.78531  0.22941  1.0000
  C   C1719     1.0  0.85504  0.85851  0.22361  1.0000
  Fe  Fe237     1.0  0.91793  0.77248  0.22961  1.0000
  H   H2056     1.0  0.97224  0.70960  0.22901  1.0000
  C   C1720     1.0  0.80752  0.78949  0.22808  1.0000
  C   C1721     1.0  0.68245  0.66253  0.22948  1.0000
  H   H2057     1.0  0.65462  0.73179  0.22840  1.0000
  C   C1722     1.0  0.94975  0.98451  0.01509  1.0000
  C   C1723     1.0  0.88019  0.98510  0.98592  1.0000
  H   H2058     1.0  0.69574  0.71285  0.23013  1.0000
  C   C1724     1.0  0.74852  0.72318  0.24545  1.0000
  H   H2059     1.0  0.63526  0.90352  0.31060  1.0000
  H   H2060     1.0  0.83313  0.86413  0.24219  1.0000
  C   C1725     1.0  0.71427  0.79483  0.24642  1.0000
  S   S471      1.0  0.58353  0.93351  0.39274  1.0000
  Fe  Fe238     1.0  0.63728  0.91844  0.36593  1.0000
  S   S472      1.0  0.60655  0.90104  0.36941  1.0000
  Fe  Fe239     1.0  0.73770  0.82359  0.26542  1.0000
  Fe  Fe240     1.0  0.58534  0.93645  0.37048  1.0000
  H   H2061     1.0  0.84969  0.68247  0.25099  1.0000
  Fe  Fe241     1.0  0.60706  0.89951  0.39150  1.0000
  S   S473      1.0  0.59449  0.87207  0.40781  1.0000
  S   S474      1.0  0.63985  0.91381  0.38826  1.0000
  Fe  Fe242     1.0  0.77419  0.82584  0.28157  1.0000
  Fe  Fe243     1.0  0.75572  0.78144  0.28458  1.0000
  S   S475      1.0  0.71970  0.80056  0.28225  1.0000
  S   S476      1.0  0.76648  0.74259  0.28678  1.0000
  Fe  Fe244     1.0  0.72470  0.82308  0.29637  1.0000
  S   S477      1.0  0.69522  0.82855  0.31424  1.0000
  H   H2062     1.0  0.97862  0.80601  0.24924  1.0000
  S   S478      1.0  0.75990  0.80225  0.29981  1.0000
  H   H2063     1.0  0.64044  0.68048  0.25335  1.0000
  H   H2064     1.0  0.59281  0.93965  0.34162  1.0000
  H   H2065     1.0  0.69686  0.66602  0.31582  1.0000
  C   C1726     1.0  0.53687  0.85406  0.39945  1.0000
  S   S479      1.0  0.55193  0.95016  0.36188  1.0000
  H   H2066     1.0  0.63171  0.93476  0.30818  1.0000
  H   H2067     1.0  0.79225  0.90556  0.23502  1.0000
  S   S480      1.0  0.69569  0.68618  0.27551  1.0000
  S   S481      1.0  0.73922  0.84815  0.27912  1.0000
  C   C1727     1.0  0.50741  0.89486  0.36757  1.0000
  H   H2068     1.0  0.77000  0.85230  0.25249  1.0000
  C   C1728     1.0  0.98841  0.71452  0.25734  1.0000
  H   H2069     1.0  0.77063  0.89492  0.24832  1.0000
  H   H2070     1.0  0.60649  0.92054  0.29795  1.0000
  C   C1729     1.0  0.64731  0.92553  0.46079  1.0000
  C   C1730     1.0  0.56582  0.92641  0.32644  1.0000
  C   C1731     1.0  0.52534  0.90466  0.40240  1.0000
  S   S482      1.0  0.64419  0.86078  0.45884  1.0000
  C   C1732     1.0  0.51073  0.93531  0.36348  1.0000
  H   H2071     1.0  0.56326  0.92659  0.33722  1.0000
  C   C1733     1.0  0.59004  0.92299  0.30463  1.0000
  H   H2072     1.0  0.53103  0.79867  0.46308  1.0000
  C   C1734     1.0  0.99277  0.67376  0.25664  1.0000
  C   C1735     1.0  0.79319  0.71052  0.25346  1.0000
  H   H2073     1.0  0.53552  0.98224  0.38197  1.0000
  H   H2074     1.0  0.61905  0.65856  0.24405  1.0000
  C   C1736     1.0  0.63032  0.92778  0.43441  1.0000
  C   C1737     1.0  0.58847  0.92342  0.31870  1.0000
  H   H2075     1.0  0.81807  0.73458  0.26453  1.0000
  C   C1738     1.0  0.53475  0.92900  0.36367  1.0000
  C   C1739     1.0  0.78822  0.89011  0.24237  1.0000
  C   C1740     1.0  0.53094  0.86161  0.42237  1.0000
  H   H2076     1.0  0.51619  0.66491  0.43480  1.0000
  C   C1741     1.0  0.52986  0.85159  0.45961  1.0000
  H   H2077     1.0  0.87317  0.81222  0.25166  1.0000
  Fe  Fe245     1.0  0.61598  0.94846  0.38833  1.0000
  H   H2078     1.0  0.83258  0.81271  0.26410  1.0000
  H   H2079     1.0  0.52832  0.80530  0.24135  1.0000
  C   C1742     1.0  0.87665  0.84346  0.25788  1.0000
  C   C1743     1.0  0.83083  0.84402  0.27189  1.0000
  S   S483      1.0  0.77346  0.80299  0.26682  1.0000
  C   C1744     1.0  0.84173  0.82624  0.26439  1.0000
  C   C1745     1.0  0.82821  0.72295  0.25728  1.0000
  C   C1746     1.0  0.49747  0.81752  0.23198  1.0000
  S   S484      1.0  0.61579  0.95460  0.36578  1.0000
  Fe  Fe246     1.0  0.92186  0.81780  0.23606  1.0000
  H   H2080     1.0  0.96033  0.83971  0.27799  1.0000
  H   H2081     1.0  0.59448  0.89782  0.34278  1.0000
  H   H2082     1.0  0.70176  0.76320  0.24826  1.0000
  C   C1747     1.0  0.53457  0.71615  0.47795  1.0000
  H   H2083     1.0  0.84578  0.71692  0.26031  1.0000
  C   C1748     1.0  0.74689  0.72715  0.28329  1.0000
  C   C1749     1.0  0.72669  0.73850  0.27805  1.0000
  C   C1750     1.0  0.71103  0.72580  0.27576  1.0000
  C   C1751     1.0  0.71567  0.70165  0.27848  1.0000
  C   C1752     1.0  0.73611  0.69030  0.28345  1.0000
  C   C1753     1.0  0.75154  0.70300  0.28596  1.0000
  H   H2084     1.0  0.72317  0.75701  0.27561  1.0000
  H   H2085     1.0  0.69538  0.73473  0.27177  1.0000
  H   H2086     1.0  0.73991  0.67176  0.28557  1.0000
  H   H2087     1.0  0.76686  0.69402  0.29025  1.0000
  C   C1754     1.0  0.83331  0.86300  0.23170  1.0000
  H   H2088     1.0  0.80032  0.88615  0.24992  1.0000
  C   C1755     1.0  0.67549  0.88818  0.33938  1.0000
  C   C1756     1.0  0.66591  0.86818  0.34366  1.0000
  C   C1757     1.0  0.67223  0.85011  0.33589  1.0000
  C   C1758     1.0  0.68859  0.85150  0.32391  1.0000
  C   C1759     1.0  0.69860  0.87124  0.31980  1.0000
  C   C1760     1.0  0.69201  0.88946  0.32747  1.0000
  S   S485      1.0  0.49648  0.83555  0.45086  1.0000
  H   H2089     1.0  0.66448  0.83489  0.33923  1.0000
  H   H2090     1.0  0.71126  0.87257  0.31064  1.0000
  H   H2091     1.0  0.69969  0.90473  0.32410  1.0000
  C   C1761     1.0  0.60831  0.86879  0.42198  1.0000
  C   C1762     1.0  0.59559  0.86549  0.43506  1.0000
  C   C1763     1.0  0.60648  0.86324  0.44641  1.0000
  C   C1764     1.0  0.63025  0.86349  0.44475  1.0000
  C   C1765     1.0  0.64298  0.86658  0.43166  1.0000
  C   C1766     1.0  0.63197  0.86957  0.42029  1.0000
  H   H2092     1.0  0.57726  0.86505  0.43642  1.0000
  H   H2093     1.0  0.59645  0.86145  0.45643  1.0000
  H   H2094     1.0  0.66146  0.86631  0.43029  1.0000
  H   H2095     1.0  0.64196  0.87170  0.41021  1.0000
  H   H2096     1.0  0.58746  0.70928  0.45797  1.0000
  H   H2097     1.0  0.68756  0.71505  0.24781  1.0000
  C   C1767     1.0  0.97911  0.69633  0.25466  1.0000
  H   H2098     1.0  0.72040  0.79009  0.25604  1.0000
  H   H2099     1.0  0.93964  0.85086  0.26650  1.0000
  C   C1768     1.0  0.56753  0.79041  0.46426  1.0000
  H   H2100     1.0  0.53268  0.93027  0.30217  1.0000
  S   S486      1.0  0.93510  0.78146  0.24499  1.0000
  H   H2101     1.0  0.65877  0.97579  0.44071  1.0000
  C   C1769     1.0  0.49699  0.91822  0.36560  1.0000
  H   H2102     1.0  0.83465  0.87508  0.27804  1.0000
  H   H2103     1.0  0.64563  0.96681  0.42327  1.0000
  C   C1770     1.0  0.65892  0.95066  0.42335  1.0000
  H   H2104     1.0  0.94092  0.72965  0.26081  1.0000
  H   H2105     1.0  0.83347  0.69698  0.23760  1.0000
  C   C1771     1.0  0.93800  0.71260  0.25959  1.0000
  H   H2106     1.0  0.56344  0.90056  0.36509  1.0000
  C   C1772     1.0  0.86471  0.82597  0.25737  1.0000
  C   C1773     1.0  0.56166  0.74368  0.47068  1.0000
  H   H2107     1.0  0.77090  0.80391  0.23153  1.0000
  S   S487      1.0  0.89341  0.74763  0.23600  1.0000
  H   H2108     1.0  0.65350  0.86670  0.35292  1.0000
  C   C1774     1.0  0.50126  0.84922  0.41429  1.0000
  H   H2109     1.0  0.94168  0.72092  0.23226  1.0000
  H   H2110     1.0  0.51888  0.87013  0.43049  1.0000
  H   H2111     1.0  0.63046  0.92231  0.42453  1.0000
  H   H2112     1.0  0.78790  0.83437  0.24083  1.0000
  H   H2113     1.0  0.75253  0.87948  0.23486  1.0000
  H   H2114     1.0  0.58423  0.66738  0.44151  1.0000
  N   N114      1.0  0.97445  0.83780  0.25706  1.0000
  C   C1775     1.0  0.57005  0.92556  0.29879  1.0000
  C   C1776     1.0  0.95814  0.84943  0.26770  1.0000
  C   C1777     1.0  0.54572  0.78499  0.46500  1.0000
  C   C1778     1.0  0.65492  0.96916  0.46210  1.0000
  H   H2115     1.0  0.54373  0.89937  0.40291  1.0000
  H   H2116     1.0  0.93186  0.68504  0.24390  1.0000
  H   H2117     1.0  0.80687  0.67483  0.27266  1.0000
  C   C1779     1.0  0.81461  0.69044  0.27158  1.0000
  H   H2118     1.0  0.92061  0.71596  0.25632  1.0000
  H   H2119     1.0  0.79103  0.74809  0.25034  1.0000
  S   S488      1.0  0.64753  0.68838  0.47841  1.0000
  S   S489      1.0  0.72946  0.83558  0.24418  1.0000
  C   C1780     1.0  0.76091  0.74013  0.24581  1.0000
  C   C1781     1.0  0.65088  0.95364  0.47398  1.0000
  N   N115      1.0  0.51948  0.86373  0.41038  1.0000
  C   C1782     1.0  0.51711  0.92800  0.39805  1.0000
  H   H2120     1.0  0.54468  0.83575  0.40277  1.0000
  H   H2121     1.0  0.66708  0.89721  0.44199  1.0000
  H   H2122     1.0  0.83193  0.68435  0.27492  1.0000
  N   N116      1.0  0.60916  0.92008  0.32538  1.0000
  H   H2123     1.0  0.54685  0.86935  0.41990  1.0000
  N   N117      1.0  0.69471  0.75566  0.31782  1.0000
  C   C1783     1.0  0.68169  0.76178  0.33098  1.0000
  C   C1784     1.0  0.71798  0.76195  0.31605  1.0000
  C   C1785     1.0  0.68260  0.77003  0.30676  1.0000
  C   C1786     1.0  0.69570  0.73091  0.31756  1.0000
  C   C1787     1.0  0.71690  0.71462  0.31643  1.0000
  C   C1788     1.0  0.67492  0.72245  0.31838  1.0000
  C   C1789     1.0  0.71712  0.69145  0.31604  1.0000
  C   C1790     1.0  0.67541  0.69932  0.31774  1.0000
  C   C1791     1.0  0.69648  0.68387  0.31653  1.0000
  H   H2124     1.0  0.69003  0.75107  0.33958  1.0000
  H   H2125     1.0  0.68107  0.78027  0.33156  1.0000
  H   H2126     1.0  0.66338  0.75928  0.33267  1.0000
  H   H2127     1.0  0.72781  0.75260  0.32433  1.0000
  H   H2128     1.0  0.71669  0.78066  0.31617  1.0000
  H   H2129     1.0  0.72850  0.75836  0.30616  1.0000
  H   H2130     1.0  0.66401  0.76867  0.30818  1.0000
  H   H2131     1.0  0.68281  0.78871  0.30613  1.0000
  H   H2132     1.0  0.69101  0.76488  0.29677  1.0000
  H   H2133     1.0  0.73366  0.71936  0.31553  1.0000
  H   H2134     1.0  0.65815  0.73373  0.31936  1.0000
  H   H2135     1.0  0.73350  0.67939  0.31494  1.0000
  H   H2136     1.0  0.65942  0.69333  0.31805  1.0000
  H   H2137     1.0  0.80886  0.78556  0.23878  1.0000
  C   C1792     1.0  0.58375  0.74980  0.46947  1.0000
  H   H2138     1.0  0.65358  0.73552  0.47219  1.0000
  H   H2139     1.0  0.97916  0.73216  0.25595  1.0000
  C   C1793     1.0  0.50728  0.84691  0.46245  1.0000
  H   H2140     1.0  0.57161  0.92512  0.28805  1.0000
  H   H2141     1.0  0.55157  0.86359  0.39612  1.0000
  S   S490      1.0  0.66649  0.91250  0.34804  1.0000
  C   C1794     1.0  0.61045  0.89822  0.33509  1.0000
  H   H2142     1.0  0.96187  0.73407  0.23751  1.0000
  H   H2143     1.0  0.96068  0.86728  0.26740  1.0000
  H   H2144     1.0  0.61303  0.88308  0.32982  1.0000
  C   C1795     1.0  0.64905  0.72075  0.23806  1.0000
  H   H2145     1.0  0.50266  0.95335  0.36210  1.0000
  H   H2146     1.0  0.64654  0.91702  0.32124  1.0000
  C   C1796     1.0  0.71669  0.81615  0.23847  1.0000
  C   C1797     1.0  0.56867  0.70853  0.46132  1.0000
  H   H2147     1.0  0.93682  0.70160  0.26975  1.0000
  H   H2148     1.0  0.55930  0.71752  0.45277  1.0000
  H   H2149     1.0  0.80069  0.84537  0.25219  1.0000
  H   H2150     1.0  0.60353  0.77704  0.46584  1.0000
  C   C1798     1.0  0.53151  0.88874  0.36701  1.0000
  C   C1799     1.0  0.54810  0.92846  0.30671  1.0000
  H   H2151     1.0  0.65935  0.94457  0.41362  1.0000
  H   H2152     1.0  0.65508  0.69575  0.26156  1.0000
  N   N118      1.0  0.65308  0.93312  0.43528  1.0000
  C   C1800     1.0  0.67117  0.91205  0.43414  1.0000
  C   C1801     1.0  0.86559  0.86106  0.26534  1.0000
  C   C1802     1.0  0.63151  0.91884  0.31584  1.0000
  C   C1803     1.0  0.65189  0.94070  0.44844  1.0000
  H   H2153     1.0  0.56716  0.69000  0.46314  1.0000
  C   C1804     1.0  0.84290  0.86132  0.27228  1.0000
  C   C1805     1.0  0.78284  0.73404  0.24985  1.0000
  C   C1806     1.0  0.54503  0.90569  0.36529  1.0000
  H   H2154     1.0  0.68841  0.91505  0.43527  1.0000
  H   H2155     1.0  0.97373  0.86990  0.24294  1.0000
  H   H2156     1.0  0.67300  0.90623  0.42418  1.0000
  C   C1807     1.0  0.54917  0.66835  0.43881  1.0000
  C   C1808     1.0  0.64693  0.93191  0.47333  1.0000
  H   H2157     1.0  0.64820  0.73102  0.24620  1.0000
  C   C1809     1.0  0.58650  0.77284  0.46650  1.0000
  S   S491      1.0  0.90528  0.84442  0.24936  1.0000
  C   C1810     1.0  0.96762  0.81536  0.25736  1.0000
  H   H2158     1.0  0.80355  0.70153  0.27886  1.0000
  H   H2159     1.0  0.52910  0.93995  0.39518  1.0000
  H   H2160     1.0  0.62329  0.93815  0.33732  1.0000
  H   H2161     1.0  0.55608  0.86312  0.46711  1.0000
  H   H2162     1.0  0.66990  0.66941  0.25612  1.0000
  H   H2163     1.0  0.52895  0.93090  0.32676  1.0000
  H   H2164     1.0  0.63109  0.71816  0.23820  1.0000
  C   C1811     1.0  0.78003  0.69370  0.25299  1.0000
  C   C1812     1.0  0.54600  0.92886  0.32052  1.0000
  S   S492      1.0  0.80212  0.84631  0.28078  1.0000
  H   H2165     1.0  0.54088  0.84836  0.45017  1.0000
  C   C1813     1.0  0.70387  0.77951  0.24193  1.0000
  C   C1814     1.0  0.94904  0.68056  0.24746  1.0000
  H   H2166     1.0  0.87460  0.87462  0.26579  1.0000
  N   N119      1.0  0.78956  0.87033  0.23531  1.0000
  N   N120      1.0  0.81654  0.70334  0.25756  1.0000
  H   H2167     1.0  0.94714  0.66781  0.25693  1.0000
  C   C1815     1.0  0.49919  0.95444  0.44889  1.0000
  C   C1816     1.0  0.50432  0.93140  0.45481  1.0000
  H   H2168     1.0  0.60439  0.95635  0.32618  1.0000
  H   H2169     1.0  0.96152  0.67187  0.23953  1.0000
  H   H2170     1.0  0.69224  0.65558  0.23770  1.0000
  N   N121      1.0  0.95650  0.70136  0.24969  1.0000
  C   C1817     1.0  0.95814  0.71720  0.23658  1.0000
  H   H2171     1.0  0.62542  0.91347  0.44243  1.0000
  H   H2172     1.0  0.64425  0.90842  0.46084  1.0000
  C   C1818     1.0  0.60725  0.93939  0.33291  1.0000
  H   H2173     1.0  0.53981  0.87078  0.36799  1.0000
  N   N122      1.0  0.55918  0.71914  0.47368  1.0000
  H   H2174     1.0  0.53849  0.98059  0.40538  1.0000
  H   H2175     1.0  0.52533  0.75911  0.46849  1.0000
  H   H2176     1.0  0.83084  0.73317  0.24693  1.0000
  H   H2177     1.0  0.94929  0.81776  0.25572  1.0000
  C   C1819     1.0  0.51032  0.88833  0.40567  1.0000
  H   H2178     1.0  0.61620  0.94317  0.43529  1.0000
  H   H2179     1.0  0.56979  0.80824  0.46185  1.0000
  H   H2180     1.0  0.75322  0.75814  0.24326  1.0000
  H   H2181     1.0  0.53666  0.84325  0.42677  1.0000
  C   C1820     1.0  0.65738  0.68542  0.25325  1.0000
  C   C1821     1.0  0.54270  0.76203  0.46816  1.0000
  H   H2182     1.0  0.82537  0.67201  0.24871  1.0000
  C   C1822     1.0  0.83186  0.68812  0.24830  1.0000
  H   H2183     1.0  0.87617  0.70708  0.23610  1.0000
  C   C1823     1.0  0.53859  0.85966  0.46927  1.0000
  C   C1824     1.0  0.75800  0.70002  0.24911  1.0000
  H   H2184     1.0  0.73128  0.72808  0.24265  1.0000
  C   C1825     1.0  0.97136  0.85189  0.24362  1.0000
  H   H2185     1.0  0.52427  0.72218  0.46950  1.0000
  C   C1826     1.0  0.65542  0.96292  0.44948  1.0000
  H   H2186     1.0  0.67628  0.95491  0.42302  1.0000
  H   H2187     1.0  0.95354  0.85317  0.24134  1.0000
  C   C1827     1.0  0.78699  0.84969  0.24563  1.0000
  H   H2188     1.0  0.52866  0.85467  0.39043  1.0000
  H   H2189     1.0  0.50855  0.83101  0.41823  1.0000
  H   H2190     1.0  0.62514  0.89568  0.34078  1.0000
  H   H2191     1.0  0.51038  0.96114  0.43994  1.0000
  H   H2192     1.0  0.49505  0.90500  0.47083  1.0000
  N   N123      1.0  0.66556  0.69844  0.23988  1.0000
  H   H2193     1.0  0.51952  0.92007  0.45043  1.0000
  H   H2194     1.0  0.96871  0.80410  0.26735  1.0000
  S   S493      1.0  0.61381  0.97020  0.40469  1.0000
  C   C1828     1.0  0.52105  0.81545  0.23262  1.0000
  H   H2195     1.0  0.54155  0.68066  0.44567  1.0000
  H   H2196     1.0  0.78648  0.67549  0.25586  1.0000
  H   H2197     1.0  0.74797  0.68689  0.24928  1.0000
  C   C1829     1.0  0.53490  0.65941  0.43270  1.0000
  H   H2198     1.0  0.70149  0.68794  0.24297  1.0000
  C   C1830     1.0  0.68862  0.70371  0.24016  1.0000
  Fe  Fe247     1.0  0.62218  0.85103  0.47889  1.0000
  H   H2199     1.0  0.98726  0.65878  0.25483  1.0000
  C   C1831     1.0  0.57317  0.66079  0.43650  1.0000
  H   H2200     1.0  0.59916  0.73680  0.47072  1.0000
  H   H2201     1.0  0.98404  0.84429  0.23537  1.0000
  H   H2202     1.0  0.56512  0.98555  0.37770  1.0000
  H   H2203     1.0  0.68546  0.93486  0.58733  1.0000
  H   H2204     1.0  0.53119  0.92997  0.54037  1.0000
  H   H2205     1.0  0.51261  0.91751  0.53344  1.0000
  H   H2206     1.0  0.68263  0.96514  0.58159  1.0000
  C   C1832     1.0  0.64937  0.92797  0.51219  1.0000
  C   C1833     1.0  0.61909  0.71031  0.49897  1.0000
  H   H2207     1.0  0.64853  0.89583  0.50594  1.0000
  H   H2208     1.0  0.64381  0.91979  0.48258  1.0000
  H   H2209     1.0  0.56595  0.90199  0.53214  1.0000
  S   S494      1.0  0.65260  0.96728  0.52092  1.0000
  C   C1834     1.0  0.55890  0.94252  0.51571  1.0000
  C   C1835     1.0  0.50570  0.97447  0.55247  1.0000
  C   C1836     1.0  0.57184  0.97688  0.51908  1.0000
  C   C1837     1.0  0.62131  0.93807  0.53167  1.0000
  H   H2210     1.0  0.55987  0.75577  0.51458  1.0000
  C   C1838     1.0  0.58996  0.97428  0.50827  1.0000
  C   C1839     1.0  0.52414  0.77297  0.51285  1.0000
  Fe  Fe248     1.0  0.61219  0.85833  0.50820  1.0000
  N   N124      1.0  0.52859  0.79659  0.51180  1.0000
  C   C1840     1.0  0.50721  0.81462  0.51197  1.0000
  H   H2211     1.0  0.54515  0.91869  0.49910  1.0000
  N   N125      1.0  0.54324  0.92544  0.51947  1.0000
  H   H2212     1.0  0.56095  0.78987  0.49808  1.0000
  C   C1841     1.0  0.64117  0.73386  0.48144  1.0000
  C   C1842     1.0  0.64881  0.94963  0.57463  1.0000
  S   S495      1.0  0.60000  0.87961  0.48941  1.0000
  H   H2213     1.0  0.70645  0.90652  0.57532  1.0000
  C   C1843     1.0  0.67968  0.92406  0.56278  1.0000
  C   C1844     1.0  0.69677  0.90543  0.56763  1.0000
  C   C1845     1.0  0.66815  0.92041  0.55265  1.0000
  C   C1846     1.0  0.70187  0.88458  0.56253  1.0000
  C   C1847     1.0  0.67336  0.89955  0.54763  1.0000
  C   C1848     1.0  0.69019  0.88165  0.55257  1.0000
  H   H2214     1.0  0.51100  0.83207  0.51165  1.0000
  N   N126      1.0  0.67347  0.94630  0.56799  1.0000
  C   C1849     1.0  0.67647  0.96551  0.55660  1.0000
  C   C1850     1.0  0.63146  0.75333  0.48783  1.0000
  H   H2215     1.0  0.63676  0.94972  0.56756  1.0000
  C   C1851     1.0  0.68775  0.94800  0.57808  1.0000
  H   H2216     1.0  0.64588  0.93559  0.58330  1.0000
  H   H2217     1.0  0.55265  0.71658  0.51740  1.0000
  H   H2218     1.0  0.52255  0.94218  0.50397  1.0000
  H   H2219     1.0  0.63648  0.76979  0.48353  1.0000
  H   H2220     1.0  0.65496  0.93374  0.54847  1.0000
  H   H2221     1.0  0.71497  0.87056  0.56633  1.0000
  H   H2222     1.0  0.66427  0.89729  0.53985  1.0000
  H   H2223     1.0  0.69415  0.86549  0.54864  1.0000
  H   H2224     1.0  0.69447  0.96295  0.55085  1.0000
  Fe  Fe249     1.0  0.57304  0.85757  0.49331  1.0000
  H   H2225     1.0  0.54319  0.96412  0.53141  1.0000
  H   H2226     1.0  0.59781  0.72784  0.51492  1.0000
  H   H2227     1.0  0.66397  0.93158  0.50451  1.0000
  H   H2228     1.0  0.52870  0.95564  0.56646  1.0000
  H   H2229     1.0  0.67301  0.98243  0.56025  1.0000
  S   S496      1.0  0.61375  0.87545  0.52588  1.0000
  C   C1852     1.0  0.60961  0.72971  0.50544  1.0000
  H   H2230     1.0  0.51982  0.91262  0.51034  1.0000
  H   H2231     1.0  0.64330  0.96636  0.57857  1.0000
  C   C1853     1.0  0.52460  0.86341  0.48164  1.0000
  Fe  Fe250     1.0  0.60690  0.81245  0.50034  1.0000
  C   C1854     1.0  0.54415  0.80228  0.49890  1.0000
  C   C1855     1.0  0.54241  0.75360  0.51439  1.0000
  H   H2232     1.0  0.51298  0.94758  0.52851  1.0000
  H   H2233     1.0  0.61449  0.69374  0.50342  1.0000
  S   S497      1.0  0.53523  0.87303  0.49391  1.0000
  C   C1856     1.0  0.52511  0.97095  0.55904  1.0000
  C   C1857     1.0  0.61309  0.91748  0.53271  1.0000
  H   H2234     1.0  0.54565  0.88886  0.52672  1.0000
  H   H2235     1.0  0.54838  0.81973  0.49788  1.0000
  C   C1858     1.0  0.53224  0.92483  0.50769  1.0000
  H   H2236     1.0  0.52968  0.79182  0.53317  1.0000
  C   C1859     1.0  0.55648  0.96132  0.52278  1.0000
  H   H2237     1.0  0.56777  0.68905  0.48875  1.0000
  C   C1860     1.0  0.61572  0.75131  0.49992  1.0000
  C   C1861     1.0  0.63984  0.94313  0.52158  1.0000
  H   H2238     1.0  0.57035  0.89622  0.51518  1.0000
  H   H2239     1.0  0.58091  0.92625  0.49911  1.0000
  H   H2240     1.0  0.59941  0.91320  0.54089  1.0000
  C   C1862     1.0  0.64063  0.90775  0.51296  1.0000
  C   C1863     1.0  0.51658  0.72722  0.51522  1.0000
  H   H2241     1.0  0.61380  0.94962  0.53894  1.0000
  S   S498      1.0  0.63701  0.83104  0.49746  1.0000
  S   S499      1.0  0.60349  0.77509  0.50859  1.0000
  C   C1864     1.0  0.62275  0.90223  0.52338  1.0000
  C   C1865     1.0  0.57756  0.94043  0.50474  1.0000
  C   C1866     1.0  0.53990  0.79805  0.52330  1.0000
  S   S500      1.0  0.58348  0.83801  0.51275  1.0000
  H   H2242     1.0  0.55785  0.78780  0.52281  1.0000
  C   C1867     1.0  0.55682  0.90220  0.52354  1.0000
  C   C1868     1.0  0.52425  0.93044  0.53090  1.0000
  H   H2243     1.0  0.70653  0.94613  0.57367  1.0000
  C   C1869     1.0  0.63501  0.71228  0.48694  1.0000
  H   H2244     1.0  0.65088  0.95846  0.48371  1.0000
  H   H2245     1.0  0.54169  0.81603  0.52343  1.0000
  Fe  Fe251     1.0  0.63451  0.65444  0.48205  1.0000
  H   H2246     1.0  0.66447  0.96727  0.54922  1.0000
  C   C1870     1.0  0.53852  0.73109  0.51582  1.0000
  H   H2247     1.0  0.55457  0.98478  0.56130  1.0000
  H   H2248     1.0  0.53298  0.69774  0.48132  1.0000
  C   C1871     1.0  0.59275  0.95613  0.50109  1.0000
  C   C1872     1.0  0.50197  0.85914  0.48437  1.0000
  H   H2249     1.0  0.53586  0.80212  0.49005  1.0000
  H   H2250     1.0  0.60721  0.95380  0.49292  1.0000
  C   C1873     1.0  0.50199  0.76841  0.51220  1.0000
  H   H2251     1.0  0.49439  0.81115  0.52130  1.0000
  C   C1874     1.0  0.57238  0.70632  0.48468  1.0000
  H   H2252     1.0  0.56922  0.71609  0.49325  1.0000
  S   S501      1.0  0.59385  0.83062  0.48111  1.0000
  H   H2253     1.0  0.49870  0.81595  0.50298  1.0000
  H   H2254     1.0  0.51363  0.70975  0.51621  1.0000
  H   H2255     1.0  0.52586  0.72551  0.48651  1.0000
  C   C1875     1.0  0.49843  0.74585  0.51327  1.0000
  H   H2256     1.0  0.59148  0.70268  0.48116  1.0000
  Fe  Fe252     1.0  0.92388  0.81240  0.90740  1.0000
  S   S502      1.0  0.94704  0.82507  0.91784  1.0000
  S   S503      1.0  0.89390  0.83702  0.89901  1.0000
  Fe  Fe253     1.0  0.94804  0.76158  0.91311  1.0000
  S   S504      1.0  0.93501  0.89147  0.97464  1.0000
  S   S505      1.0  0.95802  0.72628  0.90639  1.0000
  Fe  Fe254     1.0  0.94184  0.79455  0.93389  1.0000
  S   S506      1.0  0.93551  0.79673  0.95630  1.0000
  H   H2257     1.0  0.95223  0.96548  0.93263  1.0000
  C   C1876     1.0  0.93170  0.84539  0.97964  1.0000
  S   S507      1.0  0.91660  0.78289  0.92402  1.0000
  S   S508      1.0  0.95298  0.79032  0.89561  1.0000
  C   C1877     1.0  0.93176  0.82449  0.97536  1.0000
  S   S509      1.0  0.88834  0.94447  0.87844  1.0000
  C   C1878     1.0  0.89411  0.86671  0.89344  1.0000
  C   C1879     1.0  0.87455  0.88016  0.88833  1.0000
  C   C1880     1.0  0.87332  0.90382  0.88386  1.0000
  C   C1881     1.0  0.89151  0.91457  0.88457  1.0000
  C   C1882     1.0  0.91123  0.90131  0.88978  1.0000
  C   C1883     1.0  0.91256  0.87729  0.89419  1.0000
  H   H2258     1.0  0.86026  0.87217  0.88770  1.0000
  H   H2259     1.0  0.85807  0.91386  0.87983  1.0000
  H   H2260     1.0  0.92547  0.90945  0.89026  1.0000
  H   H2261     1.0  0.92781  0.86702  0.89809  1.0000
  C   C1884     1.0  0.94737  0.70052  0.91305  1.0000
  C   C1885     1.0  0.95780  0.68067  0.90722  1.0000
  Fe  Fe255     1.0  0.97558  0.80014  0.90778  1.0000
  H   H2262     1.0  0.95764  0.67045  0.94431  1.0000
  C   C1886     1.0  0.92025  0.67866  0.92820  1.0000
  C   C1887     1.0  0.92863  0.69943  0.92363  1.0000
  H   H2263     1.0  0.86029  0.66407  0.90354  1.0000
  C   C1888     1.0  0.92006  0.67883  0.87769  1.0000
  H   H2264     1.0  0.90566  0.67794  0.93636  1.0000
  H   H2265     1.0  0.92042  0.71465  0.92814  1.0000
  H   H2266     1.0  0.84265  0.88613  0.94207  1.0000
  C   C1889     1.0  0.96366  0.93394  0.94562  1.0000
  S   S510      1.0  0.93345  0.96586  0.89652  1.0000
  C   C1890     1.0  0.92165  0.71505  0.88412  1.0000
  H   H2267     1.0  0.89500  0.93254  0.91030  1.0000
  C   C1891     1.0  0.89739  0.89837  0.94661  1.0000
  H   H2268     1.0  0.92940  0.73030  0.88255  1.0000
  H   H2269     1.0  0.95026  0.87568  0.94910  1.0000
  H   H2270     1.0  0.86740  0.66761  0.87835  1.0000
  C   C1892     1.0  0.92950  0.69886  0.87538  1.0000
  C   C1893     1.0  0.89884  0.97374  0.96021  1.0000
  N   N127      1.0  0.89314  0.65274  0.89127  1.0000
  H   H2271     1.0  0.86531  0.87133  0.96245  1.0000
  H   H2272     1.0  0.89879  0.88977  0.95684  1.0000
  H   H2273     1.0  0.88012  0.89665  0.91678  1.0000
  H   H2274     1.0  0.85470  0.87443  0.92666  1.0000
  C   C1894     1.0  0.89369  0.85023  0.93401  1.0000
  H   H2275     1.0  0.86882  0.84257  0.95884  1.0000
  C   C1895     1.0  0.88715  0.88970  0.93763  1.0000
  C   C1896     1.0  0.90143  0.95708  0.97168  1.0000
  C   C1897     1.0  0.88688  0.90249  0.92435  1.0000
  C   C1898     1.0  0.89567  0.92296  0.92047  1.0000
  Fe  Fe256     1.0  0.90884  0.96961  0.88198  1.0000
  C   C1899     1.0  0.90259  0.67428  0.88897  1.0000
  C   C1900     1.0  0.85443  0.87129  0.93782  1.0000
  C   C1901     1.0  0.93837  0.82207  0.96163  1.0000
  C   C1902     1.0  0.90554  0.93098  0.92953  1.0000
  C   C1903     1.0  0.94532  0.86137  0.95651  1.0000
  H   H2276     1.0  0.89864  0.72385  0.90204  1.0000
  S   S511      1.0  0.97244  0.77052  0.92465  1.0000
  H   H2277     1.0  0.95183  0.83850  0.94184  1.0000
  C   C1904     1.0  0.94594  0.84034  0.95233  1.0000
  H   H2278     1.0  0.89379  0.85345  0.95942  1.0000
  C   C1905     1.0  0.99008  0.90405  0.93449  1.0000
  H   H2279     1.0  0.84639  0.85572  0.94165  1.0000
  H   H2280     1.0  0.94318  0.70178  0.86689  1.0000
  N   N128      1.0  0.87801  0.86789  0.94146  1.0000
  H   H2281     1.0  0.97221  0.68148  0.89896  1.0000
  H   H2282     1.0  0.92674  0.66681  0.87062  1.0000
  H   H2283     1.0  0.95245  0.65856  0.96203  1.0000
  C   C1906     1.0  0.95716  0.65409  0.95162  1.0000
  H   H2284     1.0  0.85248  0.95825  0.83940  1.0000
  C   C1907     1.0  0.87635  0.85857  0.95619  1.0000
  H   H2285     1.0  0.87173  0.95104  0.85183  1.0000
  H   H2286     1.0  0.91476  0.92444  0.94949  1.0000
  H   H2287     1.0  0.95364  0.93974  0.95481  1.0000
  C   C1908     1.0  0.98951  0.91821  0.92157  1.0000
  H   H2288     1.0  0.89540  0.85567  0.92285  1.0000
  S   S512      1.0  0.99321  0.97518  0.87851  1.0000
  C   C1909     1.0  0.93789  0.86407  0.97013  1.0000
  H   H2289     1.0  0.91247  0.94679  0.92646  1.0000
  C   C1910     1.0  0.97731  0.91194  0.94628  1.0000
  H   H2290     1.0  0.88751  0.83348  0.93635  1.0000
  C   C1911     1.0  0.96286  0.94832  0.93315  1.0000
  C   C1912     1.0  0.89488  0.69126  0.89765  1.0000
  C   C1913     1.0  0.90659  0.91856  0.94252  1.0000
  H   H2291     1.0  0.91139  0.84685  0.93671  1.0000
  C   C1914     1.0  0.90426  0.71135  0.89514  1.0000
  H   H2292     1.0  0.85039  0.97980  0.86491  1.0000
  H   H2293     1.0  0.97780  0.90078  0.95602  1.0000
  H   H2294     1.0  0.97464  0.95251  0.91188  1.0000
  C   C1915     1.0  0.86800  0.96254  0.84218  1.0000
  H   H2295     1.0  0.88313  0.95773  0.83434  1.0000
  C   C1916     1.0  0.97565  0.94067  0.92130  1.0000
  H   H2296     1.0  0.98337  0.84765  0.97566  1.0000
  C   C1917     1.0  0.93076  0.65881  0.92239  1.0000
  H   H2297     1.0  0.91075  0.93973  0.97074  1.0000
  C   C1918     1.0  0.98882  0.98314  0.97972  1.0000
  H   H2298     1.0  0.97226  0.90381  0.90327  1.0000
  H   H2299     1.0  0.98588  0.98133  0.96955  1.0000
  C   C1919     1.0  0.98700  0.91300  0.89887  1.0000
  H   H2300     1.0  0.88935  0.98254  0.85683  1.0000
  C   C1920     1.0  0.94957  0.65987  0.91187  1.0000
  H   H2301     1.0  0.88201  0.68930  0.90662  1.0000
  H   H2302     1.0  0.97960  0.93130  0.89530  1.0000
  H   H2303     1.0  0.90609  0.96940  0.95021  1.0000
  H   H2304     1.0  0.98982  0.81570  0.92601  1.0000
