data_image0
_chemical_formula_structural       CFeSFeSHFeSHCSCS2FeSHSHCH4CFeSCHCHSCSHC2H2CH2CS2H2C2H2CHNHCH3C7H6C4H3NC3HFeNHFeH3CHCH3CFe2HCFeCHNHCFeHC2H2SH5CHFeH2CHFe2C2HCH2CS2HSH2CNHSCHSC2HC2HCH2C5H3SHCSCHCH2CH2C4H2SC3HCH2CSFeS2FeS2FeCFeHS2CH2CS2HC2FeSCH2SFeS2FeSCFeSFeS3H3CH2CHSCH2C2H2CH3C3H2CH2SH5C7H4C6H4CHCH3C4H4C6Fe2H4FeH2C2HCFeHCH2C7S2CHCHC2SC4S2HSH2CHNC9H16C4H3CHCHCH5NC7HSH9CH3CH3NH2CH5CH5C3FeHCH2NCSC2HSH2CHC2HSNCH2S3HCHCH3CSNC2H2CH2FeHFeHC2H2C3HC4H5CHNH2C2HCHCHCH2FeCFeC2H2SHSHCH2CH3C2HCHCH2CH3CSC3SH3C3HCNCHSCNCSFeHC3HC3H2CH2C2H2C2HNC2SNH2CHSH3NCSCSC2H5CHCHCFeCH3NC2H2CH3FeHN2C2HCH2FeH2CHCH2NFeH2SHCFeC2H2CHC2H6CSC2HSHCH2CFeS2Fe2S3HNHC6HCH3C2H2C4H3SC2H4CSC6H5CHCH4NHFeCH3C6SH2FeH3CH3SC2H2CH2SHC2HC3NCSC2H4NCH3C4HC2H4SC2H2NHCHC2FeSHFeHC2HCHCH4CHCHCHC3SHNC2H2CSH2CSCSHCHCH4Fe2H2CHC3H3CHC6SHFeS2FeSCFeSFeS5HCHCSHSHFeS3FeSFeS3C5HCH3C7H4CH2SC3NH2CH5CH2CSH2CHC5HC5HNHFeH2C2H3CHC5H4CH2CHC2NH9CH3CHCHCH2CHN2C2HCH2SCH7C2HC5HFeCHCHCSCHSCHCH2FeHC2H2CH5C2SH3CH2CHCHCH2CFeSH2CH2C2HCNFeHC2H3CHCHC2H3CHCH3C2H6C4HC2H3CFeHCNH2C2H4CS7CFeS2FeSH2FeH2C2SHCSCHSC3H2CH3C3SFeCH7C6H2C3HCFeC4H2C3FeC3H3C7HSFeNC2HCH6S2H2CHC2H3CH3CH2CHC2HFeCHNCHFeH3S2HC2H3C3H4SH3CH2CHC3HC4SCHCFeHCHCNCFeHSH2FeH3CH3NC3HSH3CH2C2HSFeSH2CH2CHCSCH5SH2CH2FeHSCNC2HC2FeC3SHCH3CHCHSHCSH2CH6C2HCS2CFeCHSCHFeC3HC2HCH4CHSCSCH2C3HC2HC4H4N2HC2H2CSCHSHCH2CHCH2CHC2H7CHC4H2FeHC4HNH2CH2C2H5C3H4CHC2HC2H2SHC2HCSFeNH2CHFeS2FeS2FeSH2S2H2C2H2C3HFeSHFeS2FeCFeSHSHC2HCH3CH2CFeH2C2H3C2HC7H4C2S3CH5NCHC2HSC5H2SH3C8H5CHC3H2CHSHC2NH3CNC9H12CH3C3H4SHSH4SH5C2H3CSH2C2H3CFeH2FeS2HCHCFeSCHFeS2FeS2FeSFeS3C2FeS2HFeCS2FeS2FeS2FeSFeS3CSHS2HFeSFeSH2FeSCFeSCH2FeSHSFeS2FeSCFeSFeS3H2FeS2FeS2FeSFeS3C2H2SHC4HCS2HFeSHSH2CSCH3C2H4C6H4C6H4C5H3C6H5FeNC3HFeC6HNHCSCHC2H3CHC7H4C6H4C6H5C4H5NCSHC6H4C6H4C6H4C6H4CHCHC2H5CH2CH6NC4SH6NHSH2NC9H14NC6HCH8CH3C2FeNC6SCH5C2H6CHCH3CH3C2HSH2CHCNC6H11CH2C2H3CH2CHFeCFeC2HCH2CH3NHCHSHC2H4NHCH5FeCH7CH4C2HCHCHNH4NC4HNCH2CH2C2SH5C2SC2H3C2H2CH2CNCSC2H3CH3C2H2CH2SHC2HCH3NHCH4C3H2C4HC2SHCNH2C4H3C3H3C2HSH2C2SHSCHNC3H4CHC2H2C2FeC4H3CH4FeCHCSHCH4CHCHCH3CH2CH4CSH2CSHC2H2C3H3CH2FeNSFeS2FeS2FeSH2S2FeS2FeCH5S2HCHFeS2FeSCFeSCS2HC2HSH2CHSH2SCH9FeH2C9H5C5NCH4C6H4C6H6CSHCH3C2H3CH5CSFeCHCHCH6CHC2HC2HCN2CHCSC3H2C2H2CHNH2CNFeCHS2H2SHFeHCHC3H3FeHC2H2C2H5CH2C4H2C2H2CH2CNH2FeH2C2H3CSC2H2C3HFeH3CHC2HCHC2HCHFeHC2H3FeC7HCSHC3H3SCHCSCHCHCFeS2FeS3H2SCHSFeCHCFeSCSH2C2HFeS2FeSCFeSFeS3H2SHNH2CH6CH2FeS2FeS2FeSFeS3CHC3NH3CHC3H5CH2NCH2C2H2C5SH2C5HC2H3C4H10FeCHC2H3CHC2SC7H4C2H2C6H4NC2H2C4H2CH2C2HC5H3C2NHC8H7CH7C2FeSCH4CHCH3FeC2HSCSH3NH3FeH2C3H2FeH2C2H5NCH5C3HC2HC3H3CSCHCH3CH2NC8H9C2H2CFeHC3NC7H7CH2C3HNC2H5CH2CH2CH3SCHCFeH2CHCH2C2SH4CH2N2SHS2HFeCFeHSH4CSHCHCH2CHFeCSH3S2CS2CH3CHFeCH2CHCHCH2CFeHCHCHC3HC2SFeC4SCHCHSH3C4HC3SC3H3C2HNHCHFeHC2HC3HC2H2C3FeCHSHCHCHCHCHSH2CFeH3SH4C3HC4S2CH2C2HC3SH3CH4CH4CHCSHSFeHSFeCSFeSC2SHS2HCHS2FeS2CFeCS2H3C2SCHNH3C3H2C2NHSH2NC3HCHCHCH2CH6C2SC2SHCH3CNH4CS2H3CH2CHSCH2C6H4CHCSFeHCHCH2FeSC2SH4C6H5C2SFeHCH3C4HFeHC3H4FeH3FeCHNC2HC2H3CNHC2H4CHC2H2CHCH4SH2C2FeCH2SHFeH3CHCHFeSHSHCSCHSFeS2FeS2FeSFeCS2H5C4H2CH2C4SH4CH2SH4CSHFeS2FeHCSHCFe2S2FeS2FeSFeS3CH3CHCFeSHNC4HC2HC6H4C11H5CH4C2HCHCN2HNC2SH3C7H5SH8C6H3C5H5CHCHNCHCH3S2HSHC5HCH5CHCH2CH3CHC2HNCFeCNCH3FeHC2H3C2HC2HCHCHCHCH3CHCH2CHCNH4C2HCH4CHSC2H4CHCHFeCHC2H3CHCH2NC3HCSCSCHC2NC7H14SCNC4H2CSH3CH2CHCHC4H3C2HFe2HC3SHFeCH2C2H8SH4SH5CHCHC3HCHC2HC2HSHSCSCS2CHCHFeHCHS2C3HCHC4H6C2SH4CH2CHC2H2CSHC2FeCH3FeHC2H5SFeNHC4H3C2SC3FeH5CHNH2SH2CFeHCHC2SHSHCHCHC2HC2HSHFeSCFeHSHCHCHSCSFeS2FeS2FeSFeS3FeS2FeS2FeHFeS3CFeH5C3SFeS2FeS2FeSFeS3FeS2FeS2FeCFeS3C2HCH2C6H5C2HFeC5H3CHC3H2C6H7C2HCH3C6H4C6H4C6H4CHC2HCH3CHSCHCH2CHCH2CSH2C4H3CHCH4CHC2H3NHC3H2CHCHC2H2NC9HNCH9C2H5CHCNC5H2CFeH13CNC9HC2H6CH2CHCHC4HC2H3CNHCS2CH2C2H2NC2HCHC3HCNCHSCHNHC2HFeCH2CFeS2H3CHCH2SHCHCH2CSH2C2HCH6NC3H3SNC2H4CHCH4CH2CH3CHC3H2CH3CH5CS2FeH2CH2CH3NH4C3H3C2H5C2H3CHNC3H3CH4CHC4HC2HC2H3CHCNC3H4C2HCHSH2CNC2HC2SC3FeH5CH3C2FeH3SH2CSH4CHSC5HSHC2NCH2SC3S2H2SH3NH3CSHC2HCH4SCHCHSC2SC6SH2CH3C2SHFeH2C2HCHFeCH5C3HNHFeHSC2SC3HCSH4CH2CSNC9H3C2H2CH3SC2SHFe2CFeS2H3C2HCH3SHFeHCHNCHCH5C3H4C2H4C2H2CH4C2SC2HSCH5SCHFeSC2HC2Fe2H4FeSCH2CHFeHC2HC2H2CH3CH5SH2SC6HC2FeHSHNCH3C2FeS2FeS2FeCFeS3HCH4CHCSHS3HCHC6HCH2C6H4FeHFeHC2HCH5SHSHCHFeCH2SHCH2CH3C3H2FeHSH3C5H5SCH2CSH2CFeC2HSHNHC3H4NC9H14CH2CNC6NC2HSC2SC2HCHCHNCH3CH2C2HCHCH2CH2C3SCH3CFeCSH3CSFeS2HSFeSFeCS2HSCHCSH2CFeS2FeS2FeCFeS3FeHFeSFeS2FeSFeS3FeS2FeS2FeSFeS3HCHFeHSFeSHSCHC2HC7H5C6H4C6H5CHCH2C2NC7H4C6H2CFeCHC2NHFeHC6H6C2H2C6H3C2HSC2HCH2C6H3C7HCH2C2NC8H6C4H4CHC3H4C4HNH4CH3SH4CH2SCHSCH4CHCH6C3H3C3NH6CH5CHC2H2C2H3CNH4SCH3NCNHCFeC6HSH5CH7NC4HC2HCH11CSCH3CH2C2H5CH2CH3CHCH3CH3NH3C2HNC2HCFeH2CH3CHNCS2CHCSHCH7CFeH2CH3CSC3H3C4HCHCHSH3CH3SC2H5CSHCHCH3CH2CHCSFeS2FeSFeC2SFeS2FeHSCH3S2CHCSH2C4H2FeCSH2C6HCH3SHC2HC4FeH5CHCFeC3HCH2C2NH2CNHC2HC2HCH2S2C3HCH2C2H5CH2CHCSH3CHCH2CH4C2H2CHC2H5FeNHCSC5NH6FeHC4HCH2SHCH3CHCH2CSFeCHC3HC2SHFeH4SHCH3CHCHC2FeNH3CH2CHCHFeS2FeCNFeSHCSC2FeS2C2H3C4H2CHC6H5SCFeSC2SCH2CSHSNC3HS2H2CH5CHCHNC9SH9C2SHCSHFeHCHSCFeHSCHCSCSH3CFeC2HC3HNHC2H2SH2SH2C2FeC2H3CHCHCHC2H2SC2FeCH3C5HCH2SH3CHFeCFeCSC2NHC5HC2HSH2CH4C3H2C4HNH2CH2C2FeSC2H5NCH3C3HSHCHCNH2CH2CHFeH4FeS2CHC2FeNC2HSCH6SHCH2CFeC2FeSCHCH9CHNCSCHC2HFeS2FeSHFeSFeS3FeS2FeS2FeSFeS3HFeCSFeS2H4S2FeS2FeS2FeSFeS3CHSCFeS2FeHCHCFeS3C2HCSCNHCSCHFeS2FeS2FeSFeS3H2C2HC3H7CH6CH4C6H4C6H4C7H2SHC6H4C6H4C6H9C4HCH2CFeC6H4C6H4C6H4C6H4C6H2CFeH6CHC2SC2HC2NHCHSHC2H6NC9H14CH2C2H2SC2H5FeSCNC8H11CNC9H5NCHCH5NC9H14NC9H5CNC3H2CHSCH3C3H3CHSHCH6C2H2C4HC2HCHCHCHNC2H6CH3FeC2H4CH2C2HC2H2CHCHSHC2H10FeH6C2H2CSH2C2HNHCH2FeCHNHCNHSHC2HSCHNH4CH3C3HCH2NCHC2H5C4HC2SH2C2HCH2FeHCFeCH2CHSHC2SH2C2HSHC2HCH3FeH3CH3FeHC4HC2FeS2HFeS2C2HSH6C2HC3H2C2H10C2HC2FeC2HC2H5C2SH2C2H3CNC2HCSHFeH3C5FeHCSH4C3SCHCSCHCH2C2HC2NC3SHSH2C3H5CSHCHCHCH2CHC2H2C5SH5C2NFeCNHSCHC3FeS6H2CHSH2SCH3Fe2CH2CHCHSFeS2FeS2FeSFeS3CHC2HSCFeHSFeS2FeHFeS3C7HFeH2FeC2HFeH3FeH4SCH3C3HCSH2CHSC4HC2H4FeC6H4C6H5CH2NSC2Fe2C6H4C6H3CFeHC2HCHSHCHCNC7HCH10NHFeCNC9H17SH10CH2CH5C3S2CHCHCHCHSC2HCHCH2CHSH4FeCHCH3CH3NC2H2CH2CHCHSC2H3CH3SC2SHSFeH2FeCHCHC2SFeH2CHCSC3HSCHC2FeSHS2HCNH3CH2CH2S3CHC2HSH5C3H2CHFeCHC2HNCHC2HCFeSC2SHC2HC2H9C3H3NSC3HC2FeHC3SH3C3HSHCHCHC2HCS2NHSNHC2H3C2HSC2H3C3SNC2HCHCH8CH6CHSCH2C3H2CH2SC3HCHC2HSH2CS2H2CHCHCHNCH3C2SCFeHC2H2CH2CSCHC4H3CH5CHSCH6C2HC2HSCH4C2H2FeCHFeH3C2NHC6H2CHCSC2H2CH2FeCHCFeHCFeSHCNCHC4H5CHC2HCH4FeC3SHS2H2CHFeCH3C2HCHFeHCHCHCSH2CSCHCNH2CNSHCHC3HSH2CH3C2SH2CSCHCHCHC2HC2H2NCH3CSHCFeH2
_chemical_formula_sum              "C2880 Fe384 S768 H3456 N192"
_cell_length_a       95.3188
_cell_length_b       96.096
_cell_length_c       95.9414
_cell_angle_alpha    74.2916
_cell_angle_beta     74.2288
_cell_angle_gamma    73.6859

_space_group_name_H-M_alt    "P 1"
_space_group_IT_number       1

loop_
  _space_group_symop_operation_xyz
  'x, y, z'

loop_
  _atom_site_type_symbol
  _atom_site_label
  _atom_site_symmetry_multiplicity
  _atom_site_fract_x
  _atom_site_fract_y
  _atom_site_fract_z
  _atom_site_occupancy
  C   C1        1.0  0.44927  0.07180  0.07241  1.0000
  Fe  Fe1       1.0  0.45938  0.05565  0.20740  1.0000
  S   S1        1.0  0.43617  0.06955  0.20770  1.0000
  Fe  Fe2       1.0  0.44916  0.02740  0.22208  1.0000
  S   S2        1.0  0.42492  0.03845  0.22398  1.0000
  H   H1        1.0  0.40065  0.17953  0.02399  1.0000
  Fe  Fe3       1.0  0.43230  0.05066  0.20074  1.0000
  S   S3        1.0  0.41795  0.05439  0.18447  1.0000
  H   H2        1.0  0.41242  0.01058  0.22742  1.0000
  C   C2        1.0  0.41842  0.07414  0.08102  1.0000
  S   S4        1.0  0.45609  0.03801  0.19828  1.0000
  C   C3        1.0  0.46565  0.21740  0.03765  1.0000
  S   S5        1.0  0.49652  0.99725  0.08353  1.0000
  S   S6        1.0  0.44686  0.21737  0.03963  1.0000
  Fe  Fe4       1.0  0.41551  0.25584  0.00713  1.0000
  S   S7        1.0  0.44145  0.03820  0.12126  1.0000
  H   H3        1.0  0.46559  0.15208  0.02940  1.0000
  S   S8        1.0  0.47563  0.03688  0.08785  1.0000
  H   H4        1.0  0.44716  0.26458  0.03766  1.0000
  C   C4        1.0  0.42569  0.29995  0.01481  1.0000
  H   H5        1.0  0.46449  0.06346  0.14005  1.0000
  H   H6        1.0  0.45953  0.08291  0.14085  1.0000
  H   H7        1.0  0.41891  0.30929  0.00867  1.0000
  H   H8        1.0  0.48403  0.04598  0.15336  1.0000
  C   C5        1.0  0.49625  0.06272  0.22925  1.0000
  Fe  Fe5       1.0  0.43834  0.22979  0.01921  1.0000
  S   S9        1.0  0.41442  0.23245  0.01867  1.0000
  C   C6        1.0  0.49551  0.06579  0.03770  1.0000
  H   H9        1.0  0.47491  0.19753  0.99435  1.0000
  C   C7        1.0  0.44108  0.17273  0.99553  1.0000
  H   H10       1.0  0.45146  0.16772  0.99920  1.0000
  S   S10       1.0  0.39664  0.27454  0.01309  1.0000
  C   C8        1.0  0.49566  0.08842  0.05077  1.0000
  S   S11       1.0  0.43868  0.25367  0.00975  1.0000
  H   H11       1.0  0.49645  0.05149  0.05924  1.0000
  C   C9        1.0  0.45682  0.09258  0.04362  1.0000
  C   C10       1.0  0.48909  0.07665  0.12462  1.0000
  H   H12       1.0  0.49323  0.99624  0.15845  1.0000
  H   H13       1.0  0.43214  0.19724  0.03407  1.0000
  C   C11       1.0  0.44906  0.28306  0.01904  1.0000
  H   H14       1.0  0.47880  0.07821  0.12114  1.0000
  H   H15       1.0  0.44953  0.10271  0.04742  1.0000
  C   C12       1.0  0.49806  0.00862  0.18209  1.0000
  S   S12       1.0  0.48005  0.04849  0.11512  1.0000
  S   S13       1.0  0.47346  0.12543  0.01436  1.0000
  H   H16       1.0  0.49478  0.10266  0.02925  1.0000
  H   H17       1.0  0.48381  0.07875  0.16689  1.0000
  C   C13       1.0  0.47414  0.07999  0.16195  1.0000
  C   C14       1.0  0.44066  0.07734  0.06126  1.0000
  H   H18       1.0  0.44122  0.15033  0.03348  1.0000
  H   H19       1.0  0.45376  0.06935  0.15664  1.0000
  C   C15       1.0  0.42050  0.16367  0.02916  1.0000
  H   H20       1.0  0.46586  0.08832  0.04993  1.0000
  N   N1        1.0  0.44809  0.08138  0.04548  1.0000
  H   H21       1.0  0.47515  0.00099  0.17729  1.0000
  C   C16       1.0  0.38724  0.30431  0.00462  1.0000
  H   H22       1.0  0.44135  0.19497  0.99609  1.0000
  H   H23       1.0  0.46581  0.20685  0.06049  1.0000
  H   H24       1.0  0.46145  0.31093  0.01006  1.0000
  C   C17       1.0  0.42496  0.07842  0.06603  1.0000
  C   C18       1.0  0.42523  0.04916  0.16725  1.0000
  C   C19       1.0  0.41521  0.05100  0.15827  1.0000
  C   C20       1.0  0.42035  0.04740  0.14430  1.0000
  C   C21       1.0  0.43560  0.04210  0.13908  1.0000
  C   C22       1.0  0.44575  0.04009  0.14804  1.0000
  C   C23       1.0  0.44053  0.04354  0.16221  1.0000
  H   H25       1.0  0.40339  0.05530  0.16213  1.0000
  H   H26       1.0  0.41247  0.04892  0.13746  1.0000
  H   H27       1.0  0.45755  0.03583  0.14409  1.0000
  H   H28       1.0  0.44829  0.04197  0.16915  1.0000
  H   H29       1.0  0.46458  0.07817  0.17146  1.0000
  H   H30       1.0  0.46098  0.27894  0.01605  1.0000
  C   C24       1.0  0.41112  0.17775  0.02733  1.0000
  C   C25       1.0  0.39819  0.29180  0.00142  1.0000
  C   C26       1.0  0.44114  0.00424  0.20905  1.0000
  C   C27       1.0  0.49600  0.06267  0.05274  1.0000
  H   H31       1.0  0.47415  0.17960  0.02823  1.0000
  H   H32       1.0  0.49544  0.05702  0.03265  1.0000
  H   H33       1.0  0.43918  0.01612  0.20717  1.0000
  N   N2        1.0  0.45388  0.17158  0.03824  1.0000
  C   C28       1.0  0.46282  0.18092  0.02619  1.0000
  C   C29       1.0  0.45170  0.17625  0.05235  1.0000
  C   C30       1.0  0.43916  0.17339  0.03474  1.0000
  H   H34       1.0  0.44363  0.09085  0.02354  1.0000
  Fe  Fe6       1.0  0.49221  0.01603  0.09491  1.0000
  N   N3        1.0  0.49452  0.99379  0.18742  1.0000
  H   H35       1.0  0.45748  0.19293  0.02501  1.0000
  Fe  Fe7       1.0  0.49134  0.04854  0.09137  1.0000
  H   H36       1.0  0.44498  0.16952  0.06168  1.0000
  H   H37       1.0  0.46256  0.17525  0.05522  1.0000
  H   H38       1.0  0.44574  0.18803  0.05188  1.0000
  C   C31       1.0  0.46287  0.15608  0.03989  1.0000
  H   H39       1.0  0.47382  0.15513  0.04256  1.0000
  C   C32       1.0  0.44156  0.29614  0.01048  1.0000
  H   H40       1.0  0.41959  0.27192  0.04462  1.0000
  H   H41       1.0  0.48589  0.25454  0.01922  1.0000
  H   H42       1.0  0.49232  0.20693  0.05821  1.0000
  C   C33       1.0  0.42924  0.18757  0.03291  1.0000
  Fe  Fe8       1.0  0.49098  0.13846  0.00269  1.0000
  Fe  Fe9       1.0  0.46358  0.13621  0.99439  1.0000
  H   H43       1.0  0.46244  0.09600  0.03182  1.0000
  C   C34       1.0  0.46390  0.30637  0.99995  1.0000
  Fe  Fe10      1.0  0.42370  0.22734  0.99612  1.0000
  C   C35       1.0  0.40383  0.00379  0.23199  1.0000
  H   H44       1.0  0.48302  0.03362  0.21412  1.0000
  N   N4        1.0  0.47724  0.06953  0.15204  1.0000
  H   H45       1.0  0.45909  0.99928  0.14507  1.0000
  C   C36       1.0  0.43757  0.08773  0.03524  1.0000
  Fe  Fe11      1.0  0.46608  0.03483  0.11219  1.0000
  H   H46       1.0  0.44730  0.00778  0.11538  1.0000
  C   C37       1.0  0.42570  0.27876  0.03538  1.0000
  C   C38       1.0  0.44258  0.06764  0.08733  1.0000
  H   H47       1.0  0.42218  0.06522  0.10322  1.0000
  H   H48       1.0  0.46475  0.07060  0.02906  1.0000
  S   S14       1.0  0.43891  0.14439  0.99664  1.0000
  H   H49       1.0  0.49022  0.05216  0.16626  1.0000
  H   H50       1.0  0.42958  0.09803  0.03805  1.0000
  H   H51       1.0  0.37793  0.30315  0.01395  1.0000
  H   H52       1.0  0.46130  0.07043  0.06969  1.0000
  H   H53       1.0  0.49602  0.01385  0.17078  1.0000
  C   C39       1.0  0.41797  0.29134  0.02707  1.0000
  H   H54       1.0  0.40583  0.29415  0.02986  1.0000
  Fe  Fe12      1.0  0.43098  0.05608  0.23081  1.0000
  H   H55       1.0  0.41750  0.08243  0.05842  1.0000
  H   H56       1.0  0.47142  0.09171  0.15586  1.0000
  C   C40       1.0  0.49208  0.26161  0.01031  1.0000
  H   H57       1.0  0.47118  0.05142  0.16956  1.0000
  Fe  Fe13      1.0  0.48773  0.10872  0.00098  1.0000
  Fe  Fe14      1.0  0.49639  0.02699  0.11977  1.0000
  C   C41       1.0  0.42722  0.06873  0.09163  1.0000
  C   C42       1.0  0.49467  0.08029  0.02930  1.0000
  H   H58       1.0  0.39273  0.01102  0.23049  1.0000
  C   C43       1.0  0.45840  0.06796  0.04072  1.0000
  H   H59       1.0  0.43118  0.07963  0.03533  1.0000
  H   H60       1.0  0.46686  0.06264  0.04767  1.0000
  C   C44       1.0  0.49535  0.04845  0.19752  1.0000
  S   S15       1.0  0.45466  0.04386  0.23109  1.0000
  S   S16       1.0  0.48136  0.01316  0.11899  1.0000
  H   H61       1.0  0.45223  0.05942  0.04152  1.0000
  S   S17       1.0  0.45712  0.00297  0.22919  1.0000
  H   H62       1.0  0.40826  0.20068  0.02746  1.0000
  H   H63       1.0  0.44937  0.06333  0.09565  1.0000
  C   C45       1.0  0.43436  0.16144  0.03276  1.0000
  N   N5        1.0  0.44997  0.30460  0.99709  1.0000
  H   H64       1.0  0.42829  0.00526  0.19337  1.0000
  S   S18       1.0  0.48031  0.06381  0.19711  1.0000
  C   C46       1.0  0.49013  0.07229  0.13976  1.0000
  H   H65       1.0  0.45698  0.14841  0.04898  1.0000
  S   S19       1.0  0.44767  0.22251  0.99762  1.0000
  C   C47       1.0  0.49369  0.03483  0.20702  1.0000
  C   C48       1.0  0.48085  0.05412  0.16065  1.0000
  H   H66       1.0  0.46889  0.22814  0.01452  1.0000
  C   C49       1.0  0.46321  0.07142  0.14708  1.0000
  C   C50       1.0  0.44123  0.27467  0.03143  1.0000
  H   H67       1.0  0.41731  0.15454  0.02711  1.0000
  C   C51       1.0  0.49505  0.09155  0.03577  1.0000
  H   H68       1.0  0.46437  0.17790  0.01538  1.0000
  H   H69       1.0  0.40645  0.07492  0.08446  1.0000
  C   C52       1.0  0.48726  0.21144  0.04864  1.0000
  C   C53       1.0  0.38832  0.31835  0.99587  1.0000
  C   C54       1.0  0.41546  0.18967  0.02923  1.0000
  C   C55       1.0  0.47229  0.21137  0.04992  1.0000
  C   C56       1.0  0.47402  0.22334  0.02401  1.0000
  H   H70       1.0  0.49106  0.01639  0.18935  1.0000
  H   H71       1.0  0.48643  0.06795  0.22449  1.0000
  H   H72       1.0  0.47246  0.29581  0.00122  1.0000
  S   S20       1.0  0.49206  0.08434  0.01112  1.0000
  H   H73       1.0  0.49576  0.09717  0.05582  1.0000
  C   C57       1.0  0.43289  0.16377  0.99327  1.0000
  S   S21       1.0  0.49611  0.07055  0.07813  1.0000
  C   C58       1.0  0.49594  0.07403  0.05930  1.0000
  H   H74       1.0  0.47130  0.00272  0.19583  1.0000
  C   C59       1.0  0.44733  0.99603  0.11899  1.0000
  H   H75       1.0  0.45210  0.99211  0.17235  1.0000
  H   H76       1.0  0.48897  0.99516  0.21052  1.0000
  C   C60       1.0  0.48909  0.22324  0.02269  1.0000
  H   H77       1.0  0.48103  0.26069  0.99390  1.0000
  H   H78       1.0  0.40650  0.99552  0.22489  1.0000
  C   C61       1.0  0.48930  0.26517  0.99610  1.0000
  C   C62       1.0  0.44958  0.99509  0.21932  1.0000
  C   C63       1.0  0.43533  0.18813  0.99383  1.0000
  C   C64       1.0  0.44124  0.31974  0.99185  1.0000
  H   H79       1.0  0.49545  0.22811  0.01226  1.0000
  H   H80       1.0  0.43023  0.99933  0.13789  1.0000
  S   S22       1.0  0.49814  0.15015  0.01588  1.0000
  C   C65       1.0  0.47841  0.99550  0.18807  1.0000
  C   C66       1.0  0.49570  0.21730  0.03504  1.0000
  C   C67       1.0  0.43499  0.99808  0.20115  1.0000
  H   H81       1.0  0.49356  0.01751  0.23969  1.0000
  C   C68       1.0  0.44013  0.01636  0.36202  1.0000
  H   H82       1.0  0.34965  0.00753  0.35619  1.0000
  H   H83       1.0  0.01126  0.30386  0.38381  1.0000
  C   C69       1.0  0.06315  0.18586  0.49003  1.0000
  S   S23       1.0  0.11709  0.06702  0.45051  1.0000
  Fe  Fe15      1.0  0.06227  0.16031  0.42328  1.0000
  S   S24       1.0  0.04453  0.17327  0.43861  1.0000
  S   S25       1.0  0.08165  0.16632  0.40539  1.0000
  Fe  Fe16      1.0  0.05165  0.13177  0.43697  1.0000
  S   S26       1.0  0.03271  0.14184  0.45367  1.0000
  S   S27       1.0  0.05726  0.10863  0.43299  1.0000
  Fe  Fe17      1.0  0.02904  0.16135  0.43484  1.0000
  C   C70       1.0  0.23299  0.01469  0.34636  1.0000
  Fe  Fe18      1.0  0.04935  0.15299  0.45626  1.0000
  H   H84       1.0  0.47289  0.03569  0.25214  1.0000
  S   S28       1.0  0.04642  0.15030  0.41781  1.0000
  S   S29       1.0  0.06864  0.14105  0.44138  1.0000
  C   C71       1.0  0.39866  0.01136  0.28227  1.0000
  H   H85       1.0  0.03242  0.18283  0.47221  1.0000
  H   H86       1.0  0.20273  0.04588  0.38111  1.0000
  C   C72       1.0  0.00421  0.29811  0.38085  1.0000
  S   S30       1.0  0.05169  0.15361  0.47869  1.0000
  S   S31       1.0  0.42936  0.02180  0.31031  1.0000
  H   H87       1.0  0.47691  0.01900  0.31383  1.0000
  C   C73       1.0  0.18481  0.06547  0.43358  1.0000
  C   C74       1.0  0.32051  0.02477  0.45663  1.0000
  Fe  Fe19      1.0  0.26432  0.03637  0.36414  1.0000
  S   S32       1.0  0.28523  0.02153  0.35432  1.0000
  C   C75       1.0  0.27073  0.01267  0.43136  1.0000
  H   H88       1.0  0.24328  0.00696  0.46844  1.0000
  H   H89       1.0  0.07410  0.03944  0.43270  1.0000
  S   S33       1.0  0.25361  0.05883  0.35261  1.0000
  Fe  Fe20      1.0  0.05417  0.27135  0.40971  1.0000
  S   S34       1.0  0.07471  0.27244  0.39182  1.0000
  S   S35       1.0  0.05630  0.27691  0.43011  1.0000
  Fe  Fe21      1.0  0.03996  0.25934  0.39207  1.0000
  S   S36       1.0  0.05956  0.25955  0.37299  1.0000
  C   C76       1.0  0.28552  0.06093  0.41811  1.0000
  Fe  Fe22      1.0  0.07308  0.25007  0.39044  1.0000
  S   S37       1.0  0.09302  0.23103  0.38924  1.0000
  Fe  Fe23      1.0  0.05863  0.28183  0.37662  1.0000
  S   S38       1.0  0.06168  0.30082  0.35721  1.0000
  S   S39       1.0  0.05351  0.24834  0.40941  1.0000
  S   S40       1.0  0.03796  0.28238  0.39470  1.0000
  H   H90       1.0  0.10785  0.14390  0.40501  1.0000
  H   H91       1.0  0.27263  0.06685  0.48984  1.0000
  H   H92       1.0  0.30026  0.01116  0.40221  1.0000
  C   C77       1.0  0.49456  0.05705  0.24443  1.0000
  H   H93       1.0  0.00448  0.14419  0.44463  1.0000
  H   H94       1.0  0.25912  0.01865  0.32450  1.0000
  C   C78       1.0  0.21161  0.05908  0.42936  1.0000
  H   H95       1.0  0.00600  0.28647  0.38721  1.0000
  S   S41       1.0  0.15424  0.01821  0.41724  1.0000
  C   C79       1.0  0.01325  0.27852  0.46510  1.0000
  H   H96       1.0  0.21693  0.02129  0.46500  1.0000
  H   H97       1.0  0.47656  0.99794  0.28785  1.0000
  C   C80       1.0  0.28343  0.03685  0.43375  1.0000
  C   C81       1.0  0.26404  0.01401  0.33452  1.0000
  H   H98       1.0  0.27085  0.09410  0.45349  1.0000
  H   H99       1.0  0.03196  0.20667  0.47762  1.0000
  C   C82       1.0  0.47093  0.00669  0.26011  1.0000
  H   H100      1.0  0.18444  0.05666  0.44387  1.0000
  H   H101      1.0  0.03143  0.29277  0.36382  1.0000
  H   H102      1.0  0.03447  0.31123  0.37767  1.0000
  C   C83       1.0  0.42561  0.03370  0.29363  1.0000
  C   C84       1.0  0.41940  0.04877  0.29335  1.0000
  C   C85       1.0  0.41665  0.05854  0.28008  1.0000
  H   H103      1.0  0.02321  0.27750  0.36653  1.0000
  H   H104      1.0  0.25384  0.10781  0.45642  1.0000
  C   C86       1.0  0.42901  0.02842  0.28059  1.0000
  H   H105      1.0  0.41670  0.05294  0.30339  1.0000
  H   H106      1.0  0.01814  0.20505  0.45270  1.0000
  S   S42       1.0  0.01428  0.23563  0.47873  1.0000
  H   H107      1.0  0.43366  0.01686  0.28065  1.0000
  H   H108      1.0  0.01727  0.14141  0.48934  1.0000
  H   H109      1.0  0.29250  0.04574  0.36119  1.0000
  H   H110      1.0  0.20774  0.04570  0.40846  1.0000
  H   H111      1.0  0.12442  0.13229  0.39641  1.0000
  C   C87       1.0  0.17923  0.04775  0.38256  1.0000
  C   C88       1.0  0.08385  0.18465  0.40052  1.0000
  C   C89       1.0  0.09745  0.18753  0.39165  1.0000
  C   C90       1.0  0.10005  0.20183  0.38816  1.0000
  C   C91       1.0  0.08890  0.21346  0.39315  1.0000
  C   C92       1.0  0.07508  0.21069  0.40170  1.0000
  C   C93       1.0  0.07261  0.19623  0.40555  1.0000
  H   H112      1.0  0.10615  0.17862  0.38770  1.0000
  H   H113      1.0  0.11071  0.20390  0.38154  1.0000
  H   H114      1.0  0.06642  0.21954  0.40560  1.0000
  H   H115      1.0  0.06208  0.19405  0.41237  1.0000
  C   C94       1.0  0.10053  0.07857  0.44544  1.0000
  C   C95       1.0  0.09574  0.07723  0.43342  1.0000
  C   C96       1.0  0.08245  0.08651  0.42968  1.0000
  C   C97       1.0  0.07398  0.09732  0.43780  1.0000
  C   C98       1.0  0.07881  0.09877  0.44975  1.0000
  C   C99       1.0  0.09202  0.08934  0.45361  1.0000
  H   H116      1.0  0.10226  0.06913  0.42693  1.0000
  H   H117      1.0  0.07876  0.08535  0.42042  1.0000
  H   H118      1.0  0.07226  0.10702  0.45614  1.0000
  H   H119      1.0  0.09567  0.09044  0.46293  1.0000
  C   C100      1.0  0.09349  0.17652  0.43452  1.0000
  H   H120      1.0  0.17675  0.04383  0.39445  1.0000
  C   C101      1.0  0.01271  0.28570  0.45040  1.0000
  H   H121      1.0  0.32697  0.02210  0.42024  1.0000
  H   H122      1.0  0.28113  0.03032  0.44487  1.0000
  H   H123      1.0  0.30729  0.03117  0.48497  1.0000
  C   C102      1.0  0.02703  0.27138  0.46896  1.0000
  C   C103      1.0  0.04026  0.27144  0.45821  1.0000
  C   C104      1.0  0.03970  0.27808  0.44345  1.0000
  C   C105      1.0  0.02595  0.28525  0.43949  1.0000
  H   H124      1.0  0.38560  0.02962  0.34080  1.0000
  H   H125      1.0  0.30849  0.00632  0.42600  1.0000
  H   H126      1.0  0.05089  0.26578  0.46123  1.0000
  H   H127      1.0  0.02548  0.29020  0.42802  1.0000
  C   C106      1.0  0.38115  0.00094  0.32921  1.0000
  C   C107      1.0  0.20392  0.99313  0.39623  1.0000
  C   C108      1.0  0.28885  0.04008  0.40706  1.0000
  C   C109      1.0  0.01068  0.25205  0.44333  1.0000
  C   C110      1.0  0.00639  0.31457  0.35683  1.0000
  C   C111      1.0  0.36019  0.00832  0.34861  1.0000
  Fe  Fe24      1.0  0.24686  0.05993  0.46053  1.0000
  Fe  Fe25      1.0  0.13018  0.04917  0.43779  1.0000
  H   H128      1.0  0.18818  0.06139  0.33984  1.0000
  H   H129      1.0  0.10363  0.03211  0.46600  1.0000
  H   H130      1.0  0.05087  0.30199  0.40452  1.0000
  H   H131      1.0  0.30892  0.00060  0.46774  1.0000
  Fe  Fe26      1.0  0.25036  0.06530  0.37425  1.0000
  H   H132      1.0  0.02554  0.22459  0.41305  1.0000
  H   H133      1.0  0.29086  0.03637  0.39692  1.0000
  C   C112      1.0  0.05853  0.06005  0.43231  1.0000
  C   C113      1.0  0.19906  0.04760  0.41857  1.0000
  H   H134      1.0  0.03001  0.31324  0.34545  1.0000
  C   C114      1.0  0.47572  0.01070  0.32400  1.0000
  Fe  Fe27      1.0  0.14554  0.04199  0.40785  1.0000
  H   H135      1.0  0.31674  0.06885  0.48951  1.0000
  C   C115      1.0  0.30050  0.03563  0.36444  1.0000
  H   H136      1.0  0.26803  0.01448  0.44281  1.0000
  H   H137      1.0  0.43803  0.02562  0.35243  1.0000
  C   C116      1.0  0.25193  0.08719  0.48017  1.0000
  C   C117      1.0  0.21763  0.01535  0.35115  1.0000
  C   C118      1.0  0.32415  0.02716  0.42977  1.0000
  C   C119      1.0  0.09513  0.04105  0.46083  1.0000
  C   C120      1.0  0.28930  0.09647  0.47619  1.0000
  C   C121      1.0  0.19974  0.09557  0.38226  1.0000
  C   C122      1.0  0.24726  0.00004  0.40845  1.0000
  S   S43       1.0  0.25206  0.08071  0.44479  1.0000
  S   S44       1.0  0.33400  0.02268  0.38658  1.0000
  C   C123      1.0  0.31158  0.03592  0.37137  1.0000
  H   H138      1.0  0.39942  0.00697  0.29377  1.0000
  C   C124      1.0  0.02514  0.21497  0.42265  1.0000
  H   H139      1.0  0.26944  0.00128  0.43231  1.0000
  C   C125      1.0  0.05398  0.07187  0.45278  1.0000
  C   C126      1.0  0.32104  0.00952  0.37299  1.0000
  S   S45       1.0  0.12222  0.04240  0.42119  1.0000
  C   C127      1.0  0.19867  0.07386  0.40908  1.0000
  C   C128      1.0  0.20830  0.08390  0.40513  1.0000
  C   C129      1.0  0.18896  0.07583  0.39945  1.0000
  C   C130      1.0  0.20890  0.09444  0.39180  1.0000
  S   S46       1.0  0.26406  0.04656  0.47381  1.0000
  S   S47       1.0  0.27273  0.00540  0.47183  1.0000
  H   H140      1.0  0.21189  0.04927  0.43878  1.0000
  S   S48       1.0  0.41742  0.06573  0.25037  1.0000
  H   H141      1.0  0.18104  0.06890  0.40192  1.0000
  H   H142      1.0  0.21696  0.10140  0.38861  1.0000
  C   C131      1.0  0.39479  0.03229  0.26202  1.0000
  H   H143      1.0  0.09148  0.04984  0.46741  1.0000
  N   N6        1.0  0.10545  0.12218  0.40505  1.0000
  C   C132      1.0  0.10690  0.11776  0.42076  1.0000
  C   C133      1.0  0.11201  0.13537  0.39808  1.0000
  C   C134      1.0  0.08926  0.12639  0.40492  1.0000
  C   C135      1.0  0.11292  0.11031  0.39661  1.0000
  C   C136      1.0  0.11997  0.09579  0.40322  1.0000
  C   C137      1.0  0.11315  0.11313  0.38124  1.0000
  C   C138      1.0  0.12694  0.08493  0.39481  1.0000
  C   C139      1.0  0.12018  0.10218  0.37296  1.0000
  C   C140      1.0  0.12708  0.08812  0.37973  1.0000
  H   H144      1.0  0.10156  0.10834  0.42684  1.0000
  H   H145      1.0  0.11882  0.11460  0.42170  1.0000
  H   H146      1.0  0.10119  0.12692  0.42680  1.0000
  H   H147      1.0  0.16762  0.00119  0.39430  1.0000
  H   H148      1.0  0.49881  0.99894  0.31950  1.0000
  H   H149      1.0  0.10906  0.14112  0.38719  1.0000
  H   H150      1.0  0.08405  0.11663  0.40952  1.0000
  H   H151      1.0  0.08308  0.13487  0.41163  1.0000
  H   H152      1.0  0.08707  0.13129  0.39361  1.0000
  H   H153      1.0  0.12025  0.09246  0.41486  1.0000
  H   H154      1.0  0.10785  0.12385  0.37555  1.0000
  H   H155      1.0  0.13226  0.07391  0.40000  1.0000
  H   H156      1.0  0.12026  0.10458  0.36123  1.0000
  H   H157      1.0  0.13252  0.07964  0.37328  1.0000
  H   H158      1.0  0.17460  0.06674  0.42944  1.0000
  H   H159      1.0  0.47256  0.01660  0.29081  1.0000
  C   C141      1.0  0.49265  0.01320  0.26343  1.0000
  C   C142      1.0  0.27759  0.08885  0.47966  1.0000
  C   C143      1.0  0.28304  0.05185  0.43216  1.0000
  C   C144      1.0  0.33480  0.00398  0.47176  1.0000
  H   H160      1.0  0.03774  0.31957  0.40181  1.0000
  H   H161      1.0  0.31425  0.06121  0.43799  1.0000
  H   H162      1.0  0.09558  0.02677  0.44055  1.0000
  C   C145      1.0  0.18967  0.08639  0.38614  1.0000
  H   H163      1.0  0.20980  0.01111  0.44738  1.0000
  C   C146      1.0  0.25233  0.08492  0.39629  1.0000
  H   H164      1.0  0.20060  0.10344  0.37173  1.0000
  C   C147      1.0  0.05196  0.31857  0.36006  1.0000
  H   H165      1.0  0.28043  0.05658  0.44184  1.0000
  H   H166      1.0  0.16413  0.03373  0.45981  1.0000
  H   H167      1.0  0.06490  0.02562  0.47483  1.0000
  H   H168      1.0  0.15825  0.00056  0.47278  1.0000
  H   H169      1.0  0.07156  0.16245  0.49055  1.0000
  N   N7        1.0  0.07692  0.22080  0.44310  1.0000
  C   C148      1.0  0.06033  0.22513  0.44535  1.0000
  C   C149      1.0  0.08118  0.22076  0.45685  1.0000
  C   C150      1.0  0.08298  0.23242  0.43109  1.0000
  C   C151      1.0  0.08266  0.20574  0.43985  1.0000
  C   C152      1.0  0.07593  0.19389  0.44861  1.0000
  C   C153      1.0  0.09543  0.20218  0.42855  1.0000
  C   C154      1.0  0.08118  0.17956  0.44588  1.0000
  H   H170      1.0  0.07520  0.30056  0.41176  1.0000
  S   S49       1.0  0.22848  0.06344  0.48032  1.0000
  H   H171      1.0  0.05468  0.21897  0.45600  1.0000
  H   H172      1.0  0.05588  0.23705  0.44591  1.0000
  H   H173      1.0  0.05657  0.22317  0.43618  1.0000
  H   H174      1.0  0.07692  0.21228  0.46633  1.0000
  H   H175      1.0  0.07653  0.23167  0.46018  1.0000
  H   H176      1.0  0.09355  0.21810  0.45551  1.0000
  H   H177      1.0  0.08105  0.23218  0.42023  1.0000
  H   H178      1.0  0.07766  0.24381  0.43315  1.0000
  H   H179      1.0  0.09518  0.23108  0.42993  1.0000
  C   C155      1.0  0.06659  0.32223  0.39112  1.0000
  H   H180      1.0  0.10135  0.21039  0.42125  1.0000
  H   H181      1.0  0.42943  0.01716  0.37046  1.0000
  H   H182      1.0  0.06636  0.06092  0.46954  1.0000
  C   C156      1.0  0.39725  0.02270  0.25248  1.0000
  H   H183      1.0  0.21593  0.08346  0.41183  1.0000
  H   H184      1.0  0.24535  0.06158  0.42983  1.0000
  H   H185      1.0  0.20976  0.02603  0.35006  1.0000
  N   N8        1.0  0.47620  0.01499  0.26796  1.0000
  H   H186      1.0  0.39382  0.03415  0.28410  1.0000
  H   H187      1.0  0.33648  0.99604  0.46465  1.0000
  C   C157      1.0  0.39545  0.02664  0.27687  1.0000
  H   H188      1.0  0.31200  0.09539  0.47703  1.0000
  H   H189      1.0  0.42926  0.03410  0.25719  1.0000
  H   H190      1.0  0.29700  0.01551  0.47610  1.0000
  H   H191      1.0  0.39268  0.04421  0.25779  1.0000
  H   H192      1.0  0.28769  0.10808  0.47086  1.0000
  C   C158      1.0  0.38767  0.01197  0.33005  1.0000
  H   H193      1.0  0.10089  0.04602  0.44962  1.0000
  H   H194      1.0  0.32093  0.04926  0.41651  1.0000
  H   H195      1.0  0.09688  0.01389  0.45760  1.0000
  H   H196      1.0  0.42751  0.99269  0.24565  1.0000
  H   H197      1.0  0.34452  0.00935  0.46787  1.0000
  C   C159      1.0  0.29483  0.06653  0.49003  1.0000
  C   C160      1.0  0.42658  0.03824  0.26724  1.0000
  C   C161      1.0  0.16947  0.99409  0.47342  1.0000
  Fe  Fe28      1.0  0.22355  0.04254  0.47871  1.0000
  H   H198      1.0  0.01922  0.16555  0.47076  1.0000
  C   C162      1.0  0.06870  0.04813  0.43881  1.0000
  H   H199      1.0  0.26300  0.11758  0.48067  1.0000
  H   H200      1.0  0.03422  0.21370  0.42844  1.0000
  N   N9        1.0  0.32045  0.01520  0.47162  1.0000
  C   C163      1.0  0.24820  0.99555  0.47281  1.0000
  S   S50       1.0  0.15286  0.05076  0.42340  1.0000
  C   C164      1.0  0.31021  0.00926  0.36577  1.0000
  C   C165      1.0  0.30801  0.00746  0.47574  1.0000
  H   H201      1.0  0.38729  0.99392  0.32142  1.0000
  S   S51       1.0  0.26327  0.04353  0.38475  1.0000
  H   H202      1.0  0.42283  0.00035  0.35812  1.0000
  H   H203      1.0  0.45888  0.00652  0.26442  1.0000
  C   C166      1.0  0.32387  0.01835  0.44405  1.0000
  H   H204      1.0  0.04363  0.08131  0.43403  1.0000
  C   C167      1.0  0.17115  0.05654  0.35923  1.0000
  C   C168      1.0  0.21238  0.00242  0.35736  1.0000
  H   H205      1.0  0.33540  0.99705  0.48307  1.0000
  S   S52       1.0  0.21525  0.05506  0.34958  1.0000
  N   N10       1.0  0.19865  0.06172  0.42243  1.0000
  C   C169      1.0  0.07180  0.04778  0.45262  1.0000
  H   H206      1.0  0.28476  0.07264  0.41691  1.0000
  H   H207      1.0  0.11021  0.18540  0.41707  1.0000
  S   S53       1.0  0.18247  0.01602  0.43848  1.0000
  S   S54       1.0  0.25354  0.08632  0.37743  1.0000
  S   S55       1.0  0.14941  0.05035  0.38338  1.0000
  H   H208      1.0  0.48347  0.05812  0.25146  1.0000
  C   C170      1.0  0.24803  0.07128  0.42184  1.0000
  H   H209      1.0  0.27639  0.01276  0.33083  1.0000
  C   C171      1.0  0.01539  0.23948  0.43717  1.0000
  H   H210      1.0  0.08015  0.01812  0.45080  1.0000
  H   H211      1.0  0.18820  0.04709  0.41678  1.0000
  H   H212      1.0  0.21129  0.06859  0.43405  1.0000
  C   C172      1.0  0.17559  0.03082  0.46110  1.0000
  S   S56       1.0  0.02321  0.24993  0.38745  1.0000
  N   N11       1.0  0.28583  0.01480  0.42317  1.0000
  C   C173      1.0  0.17951  0.03632  0.47132  1.0000
  C   C174      1.0  0.25547  0.09615  0.40084  1.0000
  H   H213      1.0  0.18773  0.01334  0.39098  1.0000
  H   H214      1.0  0.14295  0.99293  0.45233  1.0000
  C   C175      1.0  0.28900  0.00988  0.40898  1.0000
  H   H215      1.0  0.29689  0.99312  0.43348  1.0000
  H   H216      1.0  0.01013  0.26543  0.41150  1.0000
  Fe  Fe29      1.0  0.24120  0.03727  0.39271  1.0000
  H   H217      1.0  0.35367  0.00054  0.31670  1.0000
  Fe  Fe30      1.0  0.13170  0.01917  0.43213  1.0000
  H   H218      1.0  0.17103  0.04347  0.47792  1.0000
  C   C176      1.0  0.29974  0.02226  0.36178  1.0000
  C   C177      1.0  0.01078  0.20425  0.44583  1.0000
  H   H219      1.0  0.06319  0.30635  0.42756  1.0000
  H   H220      1.0  0.16240  0.05949  0.35305  1.0000
  C   C178      1.0  0.32079  0.04254  0.42762  1.0000
  C   C179      1.0  0.20139  0.01807  0.45414  1.0000
  C   C180      1.0  0.36688  0.01918  0.34951  1.0000
  H   H221      1.0  0.24944  0.00623  0.39723  1.0000
  C   C181      1.0  0.40120  0.00168  0.27283  1.0000
  C   C182      1.0  0.18662  0.02185  0.45237  1.0000
  C   C183      1.0  0.19391  0.04891  0.37504  1.0000
  C   C184      1.0  0.25502  0.09490  0.41584  1.0000
  H   H222      1.0  0.26035  0.02241  0.34158  1.0000
  H   H223      1.0  0.06657  0.19557  0.45772  1.0000
  H   H224      1.0  0.44864  0.01843  0.36673  1.0000
  H   H225      1.0  0.07565  0.17076  0.45262  1.0000
  H   H226      1.0  0.45863  0.01017  0.28707  1.0000
  C   C185      1.0  0.43404  1.00000  0.35056  1.0000
  H   H227      1.0  0.25766  0.10353  0.41927  1.0000
  N   N12       1.0  0.26285  0.09678  0.47604  1.0000
  H   H228      1.0  0.39834  0.01347  0.32284  1.0000
  H   H229      1.0  0.26202  0.02069  0.42573  1.0000
  C   C186      1.0  0.24848  0.07255  0.40682  1.0000
  C   C187      1.0  0.19448  0.03319  0.47247  1.0000
  H   H230      1.0  0.24483  0.11500  0.48194  1.0000
  C   C188      1.0  0.40071  0.00704  0.25759  1.0000
  H   H231      1.0  0.28046  0.01621  0.40228  1.0000
  C   C189      1.0  0.19711  0.05387  0.35960  1.0000
  H   H232      1.0  0.02597  0.28939  0.34862  1.0000
  C   C190      1.0  0.31684  0.04054  0.45407  1.0000
  H   H233      1.0  0.30766  0.99987  0.48682  1.0000
  H   H234      1.0  0.07255  0.31136  0.38800  1.0000
  Fe  Fe31      1.0  0.25620  0.02710  0.47282  1.0000
  C   C191      1.0  0.45994  0.00068  0.34745  1.0000
  Fe  Fe32      1.0  0.23224  0.05113  0.36313  1.0000
  C   C192      1.0  0.28839  0.05506  0.40560  1.0000
  C   C193      1.0  0.48805  0.99951  0.32720  1.0000
  H   H235      1.0  0.47185  0.01164  0.24811  1.0000
  H   H236      1.0  0.29485  0.00719  0.44306  1.0000
  S   S57       1.0  0.24317  0.02808  0.37298  1.0000
  H   H237      1.0  0.18404  0.07604  0.43671  1.0000
  S   S58       1.0  0.24062  0.04015  0.45753  1.0000
  H   H238      1.0  0.25842  0.10573  0.39273  1.0000
  C   C194      1.0  0.07499  0.02915  0.47506  1.0000
  H   H239      1.0  0.24106  0.09331  0.47702  1.0000
  H   H240      1.0  0.02697  0.23692  0.43165  1.0000
  C   C195      1.0  0.42038  0.05332  0.26698  1.0000
  H   H241      1.0  0.31375  0.04644  0.46295  1.0000
  H   H242      1.0  0.20191  0.03778  0.42741  1.0000
  H   H243      1.0  0.07138  0.03723  0.48242  1.0000
  C   C196      1.0  0.32157  0.02277  0.37604  1.0000
  C   C197      1.0  0.18975  0.00133  0.39428  1.0000
  H   H244      1.0  0.24591  0.06389  0.40341  1.0000
  C   C198      1.0  0.28628  0.03051  0.42121  1.0000
  H   H245      1.0  0.27114  0.11184  0.45605  1.0000
  C   C199      1.0  0.38053  0.02108  0.34018  1.0000
  H   H246      1.0  0.31202  0.04622  0.37359  1.0000
  H   H247      1.0  0.22237  0.05679  0.42124  1.0000
  C   C200      1.0  0.04623  0.31264  0.40833  1.0000
  H   H248      1.0  0.47207  0.03745  0.27047  1.0000
  H   H249      1.0  0.02807  0.20482  0.41802  1.0000
  H   H250      1.0  0.25611  0.07783  0.47434  1.0000
  C   C201      1.0  0.05119  0.07187  0.43928  1.0000
  S   S59       1.0  0.23543  0.02671  0.41678  1.0000
  C   C202      1.0  0.29699  0.00500  0.43179  1.0000
  C   C203      1.0  0.18572  0.05762  0.35176  1.0000
  C   C204      1.0  0.16786  0.05160  0.37460  1.0000
  S   S60       1.0  0.12046  0.00067  0.43492  1.0000
  H   H251      1.0  0.01505  0.19338  0.44255  1.0000
  H   H252      1.0  0.28986  0.06225  0.39467  1.0000
  H   H253      1.0  0.45252  0.01996  0.33072  1.0000
  C   C205      1.0  0.10072  0.18776  0.42602  1.0000
  C   C206      1.0  0.26479  0.10295  0.45985  1.0000
  C   C207      1.0  0.24110  0.00740  0.42017  1.0000
  H   H254      1.0  0.04019  0.30999  0.42007  1.0000
  C   C208      1.0  0.06884  0.31073  0.41608  1.0000
  N   N13       1.0  0.44517  0.00168  0.35784  1.0000
  C   C209      1.0  0.20540  0.02389  0.46403  1.0000
  H   H255      1.0  0.09734  0.16550  0.43217  1.0000
  S   S61       1.0  0.22806  0.05960  0.38371  1.0000
  C   C210      1.0  0.00680  0.16899  0.47364  1.0000
  N   N14       1.0  0.05814  0.32038  0.40676  1.0000
  C   C211      1.0  0.01889  0.32019  0.34758  1.0000
  S   S62       1.0  0.13773  0.02576  0.45007  1.0000
  Fe  Fe33      1.0  0.15966  0.02681  0.43408  1.0000
  H   H256      1.0  0.23543  0.00488  0.44389  1.0000
  C   C212      1.0  0.25143  0.08241  0.42632  1.0000
  C   C213      1.0  0.04101  0.18360  0.47716  1.0000
  C   C214      1.0  0.06421  0.06010  0.45933  1.0000
  H   H257      1.0  0.36133  0.02619  0.35751  1.0000
  C   C215      1.0  0.31705  0.04922  0.43974  1.0000
  C   C216      1.0  0.02271  0.28930  0.36069  1.0000
  C   C217      1.0  0.46183  0.01125  0.33387  1.0000
  H   H258      1.0  0.01861  0.25852  0.44248  1.0000
  H   H259      1.0  0.18266  0.08717  0.37862  1.0000
  C   C218      1.0  0.00487  0.25502  0.39690  1.0000
  H   H260      1.0  0.07705  0.31675  0.41657  1.0000
  H   H261      1.0  0.45679  0.03294  0.26645  1.0000
  C   C219      1.0  0.08896  0.02308  0.45183  1.0000
  C   C220      1.0  0.30327  0.08930  0.47964  1.0000
  H   H262      1.0  0.23617  0.02523  0.34184  1.0000
  H   H263      1.0  0.32732  0.02983  0.48074  1.0000
  C   C221      1.0  0.28081  0.07358  0.48666  1.0000
  C   C222      1.0  0.17625  0.99507  0.48416  1.0000
  H   H264      1.0  0.32629  0.00646  0.44514  1.0000
  N   N15       1.0  0.00762  0.29886  0.36469  1.0000
  C   C223      1.0  0.47087  0.00967  0.28411  1.0000
  C   C224      1.0  0.46918  0.03096  0.26409  1.0000
  S   S63       1.0  0.00625  0.17478  0.43122  1.0000
  N   N16       1.0  0.08253  0.03543  0.45987  1.0000
  H   H265      1.0  0.41182  0.07020  0.27991  1.0000
  H   H266      1.0  0.43245  0.00887  0.34056  1.0000
  C   C225      1.0  0.03894  0.32060  0.37106  1.0000
  H   H267      1.0  0.05648  0.06025  0.42167  1.0000
  S   S64       1.0  0.19935  0.04140  0.48417  1.0000
  H   H268      1.0  0.04862  0.08138  0.45787  1.0000
  H   H269      1.0  0.49741  0.00930  0.28552  1.0000
  H   H270      1.0  0.00359  0.20610  0.41906  1.0000
  N   N17       1.0  0.01015  0.21668  0.43279  1.0000
  C   C226      1.0  0.30600  0.07436  0.48661  1.0000
  S   S65       1.0  0.35127  0.99327  0.41813  1.0000
  C   C227      1.0  0.25617  0.10910  0.48404  1.0000
  S   S66       1.0  0.05165  0.21534  0.49036  1.0000
  C   C228      1.0  0.31848  0.02348  0.48331  1.0000
  C   C229      1.0  0.23934  0.99922  0.43475  1.0000
  H   H271      1.0  0.03611  0.28779  0.48782  1.0000
  H   H272      1.0  0.00373  0.18127  0.47194  1.0000
  H   H273      1.0  0.39656  0.02788  0.24113  1.0000
  H   H274      1.0  0.20046  0.00304  0.36103  1.0000
  H   H275      1.0  0.08254  0.01931  0.48052  1.0000
  C   C230      1.0  0.17817  0.99416  0.39644  1.0000
  H   H276      1.0  0.26235  0.00233  0.36357  1.0000
  C   C231      1.0  0.24362  0.00088  0.34760  1.0000
  H   H277      1.0  0.38085  0.99479  0.25221  1.0000
  C   C232      1.0  0.00143  0.26232  0.40855  1.0000
  Fe  Fe34      1.0  0.34299  0.99923  0.39711  1.0000
  C   C233      1.0  0.00528  0.23067  0.43818  1.0000
  H   H278      1.0  0.21288  0.99874  0.39444  1.0000
  H   H279      1.0  0.32894  0.99942  0.37622  1.0000
  H   H280      1.0  0.28882  0.99798  0.41082  1.0000
  N   N18       1.0  0.25999  0.99971  0.34280  1.0000
  C   C234      1.0  0.05204  0.17102  0.48101  1.0000
  C   C235      1.0  0.04073  0.19714  0.48028  1.0000
  H   H281      1.0  0.02754  0.26554  0.48020  1.0000
  H   H282      1.0  0.00207  0.29074  0.44721  1.0000
  C   C236      1.0  0.36704  0.99897  0.33826  1.0000
  H   H283      1.0  0.33723  0.99917  0.34294  1.0000
  H   H284      1.0  0.30960  0.99891  0.36375  1.0000
  H   H285      1.0  0.47731  0.99492  0.26132  1.0000
  Fe  Fe35      1.0  0.43545  0.99753  0.31023  1.0000
  H   H286      1.0  0.00243  0.16594  0.46552  1.0000
  N   N19       1.0  0.00075  0.16212  0.48912  1.0000
  N   N20       1.0  0.40376  0.99650  0.24778  1.0000
  C   C237      1.0  0.26681  0.99447  0.35598  1.0000
  C   C238      1.0  0.05184  0.19832  0.48668  1.0000
  H   H287      1.0  0.00164  0.14203  0.48236  1.0000
  C   C239      1.0  0.06306  0.17217  0.48749  1.0000
  H   H288      1.0  0.27919  0.99319  0.35287  1.0000
  H   H289      1.0  0.02060  0.16120  0.49653  1.0000
  Fe  Fe36      1.0  0.24514  0.04859  0.49338  1.0000
  H   H290      1.0  0.31962  0.00511  0.57271  1.0000
  H   H291      1.0  0.03051  0.29568  0.52600  1.0000
  C   C240      1.0  0.46389  0.02055  0.70712  1.0000
  H   H292      1.0  0.33129  0.02539  0.57176  1.0000
  C   C241      1.0  0.28674  0.04529  0.52696  1.0000
  H   H293      1.0  0.48411  0.05596  0.73406  1.0000
  H   H294      1.0  0.45409  0.07476  0.65047  1.0000
  N   N21       1.0  0.46890  0.04523  0.72992  1.0000
  Fe  Fe37      1.0  0.49519  0.06333  0.66880  1.0000
  H   H295      1.0  0.00392  0.16136  0.51077  1.0000
  H   H296      1.0  0.49663  0.01958  0.64621  1.0000
  S   S67       1.0  0.48219  0.04666  0.67073  1.0000
  H   H297      1.0  0.46641  0.00577  0.67583  1.0000
  C   C242      1.0  0.45705  0.05395  0.61619  1.0000
  Fe  Fe38      1.0  0.02757  0.22658  0.49631  1.0000
  C   C243      1.0  0.25944  0.99898  0.52145  1.0000
  C   C244      1.0  0.47574  0.08660  0.74065  1.0000
  H   H298      1.0  0.19907  0.02511  0.51801  1.0000
  H   H299      1.0  0.48093  0.01437  0.64376  1.0000
  C   C245      1.0  0.42138  0.11222  0.70055  1.0000
  H   H300      1.0  0.46933  0.06079  0.70897  1.0000
  C   C246      1.0  0.49266  0.11777  0.73372  1.0000
  C   C247      1.0  0.27218  0.05183  0.52474  1.0000
  H   H301      1.0  0.38438  0.00510  0.66429  1.0000
  H   H302      1.0  0.00699  0.17803  0.49716  1.0000
  H   H303      1.0  0.47516  0.12510  0.72149  1.0000
  H   H304      1.0  0.47229  0.05171  0.64443  1.0000
  H   H305      1.0  0.44720  0.08901  0.63566  1.0000
  H   H306      1.0  0.47676  0.07239  0.60583  1.0000
  C   C248      1.0  0.02065  0.29654  0.52147  1.0000
  S   S68       1.0  0.01717  0.24571  0.50766  1.0000
  C   C249      1.0  0.43030  0.11681  0.71956  1.0000
  C   C250      1.0  0.05007  0.24792  0.51585  1.0000
  H   H307      1.0  0.04721  0.22967  0.53440  1.0000
  S   S69       1.0  0.38714  0.00703  0.62432  1.0000
  H   H308      1.0  0.35443  0.01831  0.60910  1.0000
  C   C251      1.0  0.36067  0.00644  0.67242  1.0000
  H   H309      1.0  0.01280  0.27932  0.49886  1.0000
  H   H310      1.0  0.25917  0.00709  0.51076  1.0000
  C   C252      1.0  0.46981  0.07935  0.61387  1.0000
  Fe  Fe39      1.0  0.40582  0.05481  0.70178  1.0000
  S   S70       1.0  0.38607  0.05096  0.72030  1.0000
  S   S71       1.0  0.41404  0.07561  0.69060  1.0000
  Fe  Fe40      1.0  0.41914  0.02251  0.70309  1.0000
  Fe  Fe41      1.0  0.38561  0.03343  0.70881  1.0000
  S   S72       1.0  0.36394  0.02941  0.70723  1.0000
  S   S73       1.0  0.40383  0.03900  0.68931  1.0000
  S   S74       1.0  0.42252  0.03849  0.71410  1.0000
  H   H311      1.0  0.42633  0.03942  0.62442  1.0000
  N   N22       1.0  0.46387  0.07046  0.62850  1.0000
  H   H312      1.0  0.29182  0.05025  0.53263  1.0000
  C   C253      1.0  0.45080  0.99192  0.61333  1.0000
  C   C254      1.0  0.32392  0.99643  0.60836  1.0000
  C   C255      1.0  0.37455  0.00889  0.67231  1.0000
  C   C256      1.0  0.37579  0.01610  0.68281  1.0000
  C   C257      1.0  0.36314  0.02090  0.69337  1.0000
  C   C258      1.0  0.34931  0.01858  0.69326  1.0000
  H   H313      1.0  0.49545  0.99678  0.68474  1.0000
  C   C259      1.0  0.47116  0.00664  0.71378  1.0000
  H   H314      1.0  0.38650  0.01789  0.68277  1.0000
  H   H315      1.0  0.33950  0.02226  0.70136  1.0000
  H   H316      1.0  0.43405  0.11232  0.73024  1.0000
  C   C260      1.0  0.03429  0.29343  0.49710  1.0000
  C   C261      1.0  0.43107  0.99174  0.69474  1.0000
  H   H317      1.0  0.41218  0.12235  0.69985  1.0000
  H   H318      1.0  0.44180  0.99327  0.72942  1.0000
  C   C262      1.0  0.34808  0.01141  0.68287  1.0000
  C   C263      1.0  0.03136  0.27137  0.51733  1.0000
  C   C264      1.0  0.48412  0.04576  0.73063  1.0000
  C   C265      1.0  0.47499  0.99721  0.67045  1.0000
  H   H319      1.0  0.07173  0.18667  0.49501  1.0000
  H   H320      1.0  0.47835  0.02512  0.65700  1.0000
  H   H321      1.0  0.48530  0.01533  0.67991  1.0000
  S   S75       1.0  0.24814  0.05475  0.51309  1.0000
  C   C266      1.0  0.32902  0.01747  0.58209  1.0000
  C   C267      1.0  0.26582  0.04579  0.51689  1.0000
  H   H322      1.0  0.48914  0.03632  0.73874  1.0000
  H   H323      1.0  0.05014  0.26701  0.49861  1.0000
  H   H324      1.0  0.44530  0.09281  0.70882  1.0000
  H   H325      1.0  0.46779  0.05302  0.60855  1.0000
  C   C268      1.0  0.28813  0.02601  0.51448  1.0000
  S   S76       1.0  0.47479  0.10245  0.69721  1.0000
  C   C269      1.0  0.46328  0.05500  0.67577  1.0000
  C   C270      1.0  0.45237  0.04850  0.67464  1.0000
  C   C271      1.0  0.43724  0.05529  0.67851  1.0000
  C   C272      1.0  0.43294  0.06862  0.68341  1.0000
  C   C273      1.0  0.44387  0.07537  0.68406  1.0000
  C   C274      1.0  0.45901  0.06837  0.68061  1.0000
  H   H326      1.0  0.45552  0.03815  0.67096  1.0000
  H   H327      1.0  0.42893  0.05011  0.67771  1.0000
  H   H328      1.0  0.44071  0.08572  0.68765  1.0000
  H   H329      1.0  0.46729  0.07317  0.68212  1.0000
  H   H330      1.0  0.21797  0.02340  0.53130  1.0000
  C   C275      1.0  0.47084  0.09336  0.72738  1.0000
  H   H331      1.0  0.04528  0.29310  0.49926  1.0000
  C   C276      1.0  0.49104  0.08145  0.74055  1.0000
  H   H332      1.0  0.43541  0.06792  0.64638  1.0000
  H   H333      1.0  0.05973  0.24137  0.50964  1.0000
  H   H334      1.0  0.45906  0.09751  0.72765  1.0000
  H   H335      1.0  0.00516  0.29803  0.50117  1.0000
  N   N23       1.0  0.02446  0.28676  0.51070  1.0000
  H   H336      1.0  0.29419  0.01605  0.51051  1.0000
  Fe  Fe42      1.0  0.49124  0.09130  0.67957  1.0000
  C   C277      1.0  0.46301  0.03313  0.71224  1.0000
  H   H337      1.0  0.26897  0.99965  0.52570  1.0000
  H   H338      1.0  0.32926  0.03326  0.61687  1.0000
  H   H339      1.0  0.32008  0.99711  0.63824  1.0000
  C   C278      1.0  0.31985  0.99562  0.59570  1.0000
  C   C279      1.0  0.49643  0.08890  0.71365  1.0000
  C   C280      1.0  0.47010  0.00585  0.61921  1.0000
  C   C281      1.0  0.01054  0.28675  0.50666  1.0000
  C   C282      1.0  0.41601  0.99496  0.69414  1.0000
  C   C283      1.0  0.42963  0.05398  0.63623  1.0000
  S   S77       1.0  0.01224  0.21230  0.51113  1.0000
  H   H340      1.0  0.45053  0.01626  0.63337  1.0000
  H   H341      1.0  0.47732  0.08596  0.61479  1.0000
  Fe  Fe43      1.0  0.40281  0.03306  0.73147  1.0000
  H   H342      1.0  0.40254  0.09328  0.71270  1.0000
  H   H343      1.0  0.44058  0.11888  0.71111  1.0000
  H   H344      1.0  0.40985  0.00633  0.69190  1.0000
  C   C284      1.0  0.35125  0.00893  0.61804  1.0000
  H   H345      1.0  0.41870  0.10404  0.69597  1.0000
  H   H346      1.0  0.24316  0.02528  0.52780  1.0000
  H   H347      1.0  0.45889  0.02167  0.69788  1.0000
  S   S78       1.0  0.43902  0.00588  0.69476  1.0000
  C   C285      1.0  0.45314  0.06257  0.62717  1.0000
  C   C286      1.0  0.39988  0.09689  0.72302  1.0000
  H   H348      1.0  0.26603  0.06180  0.52874  1.0000
  H   H349      1.0  0.46058  0.08715  0.60881  1.0000
  C   C287      1.0  0.43366  0.04597  0.62508  1.0000
  H   H350      1.0  0.20123  0.00601  0.50444  1.0000
  H   H351      1.0  0.48427  0.06450  0.63661  1.0000
  S   S79       1.0  0.31336  0.02507  0.52362  1.0000
  H   H352      1.0  0.48281  0.99437  0.73110  1.0000
  C   C288      1.0  0.32239  0.00610  0.58260  1.0000
  C   C289      1.0  0.47645  0.05930  0.63407  1.0000
  H   H353      1.0  0.25395  0.01483  0.54133  1.0000
  C   C290      1.0  0.44733  0.04596  0.61508  1.0000
  C   C291      1.0  0.20960  0.00472  0.51069  1.0000
  C   C292      1.0  0.33218  0.99720  0.63459  1.0000
  N   N24       1.0  0.33504  0.00927  0.62144  1.0000
  C   C293      1.0  0.04302  0.24126  0.52980  1.0000
  S   S80       1.0  0.38160  0.99748  0.58849  1.0000
  C   C294      1.0  0.47791  0.12342  0.73217  1.0000
  C   C295      1.0  0.24392  0.01544  0.53714  1.0000
  H   H354      1.0  0.01671  0.30841  0.51631  1.0000
  H   H355      1.0  0.47182  0.99695  0.70969  1.0000
  H   H356      1.0  0.01424  0.26977  0.53777  1.0000
  H   H357      1.0  0.47742  0.01138  0.62135  1.0000
  N   N25       1.0  0.42357  0.10632  0.71601  1.0000
  C   C296      1.0  0.33069  0.00793  0.60824  1.0000
  H   H358      1.0  0.40766  0.05697  0.73848  1.0000
  H   H359      1.0  0.45058  0.03938  0.60666  1.0000
  H   H360      1.0  0.45714  0.04349  0.70654  1.0000
  C   C297      1.0  0.32660  0.02356  0.62567  1.0000
  C   C298      1.0  0.03025  0.24938  0.53760  1.0000
  C   C299      1.0  0.45484  0.00871  0.62586  1.0000
  C   C300      1.0  0.23241  0.00258  0.52549  1.0000
  H   H361      1.0  0.17025  0.00212  0.49199  1.0000
  C   C301      1.0  0.44444  0.99180  0.74008  1.0000
  C   C302      1.0  0.47735  0.00521  0.72581  1.0000
  H   H362      1.0  0.35793  0.99859  0.61433  1.0000
  H   H363      1.0  0.33570  0.99849  0.64426  1.0000
  H   H364      1.0  0.24935  0.08266  0.49234  1.0000
  H   H365      1.0  0.31924  0.01589  0.49430  1.0000
  S   S81       1.0  0.35871  0.99626  0.66051  1.0000
  C   C303      1.0  0.02446  0.26418  0.53148  1.0000
  C   C304      1.0  0.46268  0.05950  0.72056  1.0000
  H   H366      1.0  0.02449  0.24405  0.54825  1.0000
  H   H367      1.0  0.31432  0.02449  0.62786  1.0000
  N   N26       1.0  0.48915  0.00218  0.66361  1.0000
  H   H368      1.0  0.43171  0.11508  0.69278  1.0000
  C   C305      1.0  0.00828  0.16584  0.49889  1.0000
  H   H369      1.0  0.23414  0.01751  0.54638  1.0000
  C   C306      1.0  0.44511  0.00199  0.62272  1.0000
  C   C307      1.0  0.47585  0.99569  0.60993  1.0000
  Fe  Fe44      1.0  0.41004  0.99452  0.62798  1.0000
  S   S82       1.0  0.42599  0.00641  0.63088  1.0000
  H   H370      1.0  0.02922  0.30526  0.49285  1.0000
  Fe  Fe45      1.0  0.00044  0.23220  0.52094  1.0000
  H   H371      1.0  0.45080  0.06045  0.72047  1.0000
  C   C308      1.0  0.48615  0.01584  0.65210  1.0000
  C   C309      1.0  0.36503  0.99354  0.57105  1.0000
  H   H372      1.0  0.32931  0.02473  0.63584  1.0000
  C   C310      1.0  0.47646  0.01772  0.73108  1.0000
  H   H373      1.0  0.25498  0.10484  0.49624  1.0000
  C   C311      1.0  0.33310  0.01843  0.59469  1.0000
  H   H374      1.0  0.42226  0.12768  0.72006  1.0000
  H   H375      1.0  0.48308  0.05229  0.62599  1.0000
  H   H376      1.0  0.47005  0.99505  0.66222  1.0000
  H   H377      1.0  0.00220  0.28277  0.51647  1.0000
  C   C312      1.0  0.45724  0.08078  0.63885  1.0000
  H   H378      1.0  0.29693  0.05496  0.49561  1.0000
  C   C313      1.0  0.43443  0.09184  0.71669  1.0000
  H   H379      1.0  0.41912  0.05365  0.64421  1.0000
  C   C314      1.0  0.29473  0.03236  0.52188  1.0000
  H   H380      1.0  0.38028  0.08770  0.73042  1.0000
  C   C315      1.0  0.40933  0.10406  0.72642  1.0000
  C   C316      1.0  0.48114  0.09448  0.71383  1.0000
  C   C317      1.0  0.27385  0.03296  0.51163  1.0000
  S   S83       1.0  0.40081  0.01532  0.72159  1.0000
  H   H381      1.0  0.26904  0.02841  0.50537  1.0000
  N   N27       1.0  0.24497  0.00170  0.53225  1.0000
  C   C318      1.0  0.20840  0.01552  0.51837  1.0000
  C   C319      1.0  0.43917  0.06218  0.63732  1.0000
  H   H382      1.0  0.33734  0.00954  0.68308  1.0000
  H   H383      1.0  0.36928  0.00246  0.56292  1.0000
  C   C320      1.0  0.49384  0.00627  0.67524  1.0000
  S   S84       1.0  0.49840  0.06729  0.68932  1.0000
  H   H384      1.0  0.43010  0.08348  0.71396  1.0000
  H   H385      1.0  0.43659  0.01531  0.73918  1.0000
  C   C321      1.0  0.46956  0.03213  0.72424  1.0000
  S   S85       1.0  0.48618  0.08725  0.65966  1.0000
  C   C322      1.0  0.38710  0.09346  0.73322  1.0000
  S   S86       1.0  0.23868  0.02796  0.49363  1.0000
  H   H386      1.0  0.46291  0.06914  0.72473  1.0000
  C   C323      1.0  0.21948  0.01444  0.52588  1.0000
  H   H387      1.0  0.01136  0.29394  0.53096  1.0000
  C   C324      1.0  0.04438  0.26274  0.50962  1.0000
  H   H388      1.0  0.36710  0.99508  0.72137  1.0000
  H   H389      1.0  0.43677  0.08728  0.72803  1.0000
  H   H390      1.0  0.35497  0.00942  0.62792  1.0000
  H   H391      1.0  0.46534  0.08710  0.63906  1.0000
  Fe  Fe46      1.0  0.00217  0.25348  0.49139  1.0000
  Fe  Fe47      1.0  0.31840  0.00025  0.53024  1.0000
  H   H392      1.0  0.33837  0.02735  0.59365  1.0000
  H   H393      1.0  0.49191  0.04564  0.71963  1.0000
  C   C325      1.0  0.22165  0.99249  0.51086  1.0000
  H   H394      1.0  0.48129  0.01606  0.74053  1.0000
  C   C326      1.0  0.00492  0.14574  0.49078  1.0000
  C   C327      1.0  0.41739  0.06578  0.75105  1.0000
  C   C328      1.0  0.38550  0.99674  0.77682  1.0000
  H   H395      1.0  0.38285  0.00321  0.78561  1.0000
  H   H396      1.0  0.47765  0.25946  0.82988  1.0000
  H   H397      1.0  0.45760  0.17872  0.96691  1.0000
  C   C329      1.0  0.40035  0.31999  0.98386  1.0000
  H   H398      1.0  0.47485  0.31981  0.90589  1.0000
  C   C330      1.0  0.46908  0.29337  0.91895  1.0000
  C   C331      1.0  0.40074  0.23367  0.93228  1.0000
  C   C332      1.0  0.44218  0.99544  0.80802  1.0000
  C   C333      1.0  0.48665  0.21741  0.97384  1.0000
  C   C334      1.0  0.47914  0.14162  0.91403  1.0000
  C   C335      1.0  0.45895  0.17580  0.93201  1.0000
  S   S87       1.0  0.42255  0.25113  0.98439  1.0000
  H   H399      1.0  0.47762  0.11531  0.89263  1.0000
  Fe  Fe48      1.0  0.46446  0.04829  0.80171  1.0000
  S   S88       1.0  0.44266  0.06472  0.80681  1.0000
  S   S89       1.0  0.47005  0.02436  0.81366  1.0000
  Fe  Fe49      1.0  0.47801  0.07058  0.77642  1.0000
  S   S90       1.0  0.45766  0.08878  0.77981  1.0000
  C   C336      1.0  0.48330  0.10429  0.86946  1.0000
  Fe  Fe50      1.0  0.45740  0.08048  0.80404  1.0000
  S   S91       1.0  0.45147  0.09779  0.81807  1.0000
  Fe  Fe51      1.0  0.44517  0.07144  0.78202  1.0000
  S   S92       1.0  0.42899  0.07776  0.76684  1.0000
  S   S93       1.0  0.47905  0.06358  0.80050  1.0000
  S   S94       1.0  0.46565  0.05370  0.77725  1.0000
  S   S95       1.0  0.47975  0.15091  0.98387  1.0000
  S   S96       1.0  0.47116  0.15121  0.85788  1.0000
  H   H400      1.0  0.44970  0.18083  0.90521  1.0000
  C   C337      1.0  0.46351  0.99780  0.81567  1.0000
  H   H401      1.0  0.40982  0.99561  0.78643  1.0000
  C   C338      1.0  0.41663  0.22550  0.95013  1.0000
  S   S97       1.0  0.46891  0.14325  0.90071  1.0000
  H   H402      1.0  0.48380  0.29289  0.93310  1.0000
  S   S98       1.0  0.46806  0.19387  0.83775  1.0000
  H   H403      1.0  0.42038  0.19810  0.93230  1.0000
  Fe  Fe52      1.0  0.43014  0.24383  0.88725  1.0000
  S   S99       1.0  0.45452  0.24320  0.87818  1.0000
  S   S100      1.0  0.42120  0.22477  0.88690  1.0000
  S   S101      1.0  0.44856  0.27261  0.89207  1.0000
  Fe  Fe53      1.0  0.44709  0.26775  0.87107  1.0000
  S   S102      1.0  0.45952  0.27981  0.85013  1.0000
  Fe  Fe54      1.0  0.45407  0.24808  0.89971  1.0000
  S   S103      1.0  0.47342  0.23698  0.91052  1.0000
  S   S104      1.0  0.42248  0.26814  0.87793  1.0000
  S   S105      1.0  0.43038  0.24661  0.90958  1.0000
  C   C339      1.0  0.48168  0.27160  0.86577  1.0000
  C   C340      1.0  0.47024  0.24273  0.92713  1.0000
  C   C341      1.0  0.45753  0.24071  0.93823  1.0000
  C   C342      1.0  0.45568  0.24450  0.95186  1.0000
  C   C343      1.0  0.46628  0.25073  0.95418  1.0000
  H   H404      1.0  0.47329  0.99278  0.82043  1.0000
  C   C344      1.0  0.43269  0.31820  0.89365  1.0000
  H   H405      1.0  0.44936  0.23587  0.93645  1.0000
  H   H406      1.0  0.44615  0.24246  0.96059  1.0000
  H   H407      1.0  0.48973  0.27396  0.90412  1.0000
  C   C345      1.0  0.48518  0.11838  0.76021  1.0000
  C   C346      1.0  0.45432  0.20239  0.85104  1.0000
  C   C347      1.0  0.44739  0.19383  0.86396  1.0000
  C   C348      1.0  0.43659  0.20078  0.87466  1.0000
  C   C349      1.0  0.43315  0.21625  0.87267  1.0000
  C   C350      1.0  0.44017  0.22478  0.85980  1.0000
  C   C351      1.0  0.45056  0.21787  0.84888  1.0000
  H   H408      1.0  0.45022  0.18187  0.86562  1.0000
  H   H409      1.0  0.43119  0.19416  0.88462  1.0000
  H   H410      1.0  0.43745  0.23675  0.85820  1.0000
  H   H411      1.0  0.45582  0.22451  0.83884  1.0000
  C   C352      1.0  0.46506  0.10396  0.82275  1.0000
  H   H412      1.0  0.49783  0.13578  0.76803  1.0000
  H   H413      1.0  0.47057  0.28942  0.89064  1.0000
  S   S106      1.0  0.47614  0.11825  0.98191  1.0000
  C   C353      1.0  0.47126  0.12235  0.83201  1.0000
  C   C354      1.0  0.46074  0.11705  0.82822  1.0000
  C   C355      1.0  0.45863  0.18185  0.95503  1.0000
  N   N28       1.0  0.47984  0.29684  0.90481  1.0000
  H   H414      1.0  0.46779  0.13244  0.83621  1.0000
  H   H415      1.0  0.44919  0.12312  0.82954  1.0000
  C   C356      1.0  0.41264  0.25838  0.94627  1.0000
  H   H416      1.0  0.40614  0.99382  0.74874  1.0000
  H   H417      1.0  0.46791  0.11480  0.78946  1.0000
  H   H418      1.0  0.48044  0.12014  0.79671  1.0000
  H   H419      1.0  0.45395  0.21788  0.90688  1.0000
  H   H420      1.0  0.46740  0.09729  0.85611  1.0000
  C   C357      1.0  0.46245  0.19979  0.93199  1.0000
  H   H421      1.0  0.47631  0.26276  0.87241  1.0000
  H   H422      1.0  0.46069  0.11000  0.90229  1.0000
  C   C358      1.0  0.47850  0.19695  0.90070  1.0000
  S   S107      1.0  0.40876  0.28686  0.91326  1.0000
  H   H423      1.0  0.44196  0.01396  0.76335  1.0000
  H   H424      1.0  0.48230  0.24627  0.85508  1.0000
  C   C359      1.0  0.40580  0.23687  0.94349  1.0000
  H   H425      1.0  0.40668  0.30687  0.93160  1.0000
  C   C360      1.0  0.44573  0.09605  0.89115  1.0000
  C   C361      1.0  0.42518  0.30691  0.89587  1.0000
  C   C362      1.0  0.47999  0.09618  0.82112  1.0000
  C   C363      1.0  0.41217  0.04129  0.75842  1.0000
  C   C364      1.0  0.48620  0.11458  0.83037  1.0000
  H   H426      1.0  0.37523  0.99324  0.77707  1.0000
  C   C365      1.0  0.42301  0.06332  0.76375  1.0000
  C   C366      1.0  0.42350  0.04962  0.77372  1.0000
  C   C367      1.0  0.41787  0.03868  0.77114  1.0000
  C   C368      1.0  0.43302  0.09369  0.88833  1.0000
  C   C369      1.0  0.49627  0.11513  0.74753  1.0000
  H   H427      1.0  0.42774  0.04765  0.78362  1.0000
  N   N29       1.0  0.48939  0.11590  0.77461  1.0000
  H   H428      1.0  0.47652  0.22325  0.96928  1.0000
  Fe  Fe55      1.0  0.42467  0.27094  0.89968  1.0000
  H   H429      1.0  0.45806  0.16752  0.92680  1.0000
  H   H430      1.0  0.39353  0.26442  0.92824  1.0000
  C   C370      1.0  0.44534  0.09413  0.86275  1.0000
  C   C371      1.0  0.44144  0.00468  0.74552  1.0000
  H   H431      1.0  0.46175  0.13516  0.93242  1.0000
  H   H432      1.0  0.38395  0.24227  0.96672  1.0000
  H   H433      1.0  0.49664  0.22955  0.85707  1.0000
  C   C372      1.0  0.45760  0.17188  0.94739  1.0000
  H   H434      1.0  0.45763  0.05439  0.74931  1.0000
  C   C373      1.0  0.44664  0.01982  0.80537  1.0000
  C   C374      1.0  0.45932  0.01330  0.81141  1.0000
  C   C375      1.0  0.41380  0.31013  0.92096  1.0000
  C   C376      1.0  0.41643  0.20884  0.93532  1.0000
  C   C377      1.0  0.45926  0.04425  0.74499  1.0000
  H   H435      1.0  0.44331  0.03177  0.80216  1.0000
  H   H436      1.0  0.42113  0.22719  0.95857  1.0000
  H   H437      1.0  0.40100  0.24169  0.97146  1.0000
  H   H438      1.0  0.49308  0.99291  0.75941  1.0000
  C   C378      1.0  0.43799  0.01090  0.80387  1.0000
  H   H439      1.0  0.48240  0.07708  0.88666  1.0000
  H   H440      1.0  0.42933  0.20294  0.95210  1.0000
  C   C379      1.0  0.49476  0.27283  0.86883  1.0000
  H   H441      1.0  0.42664  0.30138  0.88697  1.0000
  C   C380      1.0  0.47578  0.28159  0.85404  1.0000
  C   C381      1.0  0.47279  0.13750  0.92910  1.0000
  N   N30       1.0  0.40010  0.25116  0.94844  1.0000
  H   H442      1.0  0.38791  0.25894  0.96847  1.0000
  H   H443      1.0  0.39278  0.24165  0.92630  1.0000
  H   H444      1.0  0.46773  0.19937  0.97828  1.0000
  H   H445      1.0  0.49867  0.26062  0.83871  1.0000
  H   H446      1.0  0.43997  0.32129  0.88306  1.0000
  H   H447      1.0  0.38990  0.10588  0.76201  1.0000
  H   H448      1.0  0.41694  0.07628  0.74340  1.0000
  H   H449      1.0  0.47140  0.08345  0.90311  1.0000
  H   H450      1.0  0.46451  0.21064  0.92654  1.0000
  C   C382      1.0  0.41606  0.30260  0.90965  1.0000
  H   H451      1.0  0.41856  0.26038  0.93447  1.0000
  H   H452      1.0  0.49068  0.25024  0.92097  1.0000
  H   H453      1.0  0.43438  0.28540  0.93343  1.0000
  C   C383      1.0  0.45857  0.09784  0.87972  1.0000
  H   H454      1.0  0.46659  0.28655  0.95644  1.0000
  C   C384      1.0  0.44512  0.28734  0.93321  1.0000
  H   H455      1.0  0.44543  0.09642  0.90239  1.0000
  C   C385      1.0  0.41365  0.18558  0.98704  1.0000
  H   H456      1.0  0.46409  0.03466  0.75311  1.0000
  H   H457      1.0  0.45296  0.21178  0.89136  1.0000
  C   C386      1.0  0.47786  0.19493  0.98315  1.0000
  H   H458      1.0  0.45083  0.29196  0.90987  1.0000
  N   N31       1.0  0.46323  0.19443  0.90751  1.0000
  N   N32       1.0  0.47192  0.10029  0.88297  1.0000
  C   C387      1.0  0.42159  0.21162  0.94632  1.0000
  C   C388      1.0  0.40619  0.21990  0.92817  1.0000
  H   H459      1.0  0.48033  0.20011  0.88838  1.0000
  C   C389      1.0  0.44922  0.28606  0.94643  1.0000
  H   H460      1.0  0.45579  0.16099  0.95343  1.0000
  H   H461      1.0  0.44178  0.28295  0.95693  1.0000
  S   S108      1.0  0.46446  0.25512  0.97126  1.0000
  C   C390      1.0  0.41129  0.30746  0.98046  1.0000
  H   H462      1.0  0.40248  0.21784  0.91932  1.0000
  H   H463      1.0  0.49870  0.28179  0.91332  1.0000
  H   H464      1.0  0.38518  0.27268  0.94389  1.0000
  H   H465      1.0  0.48108  0.99224  0.77749  1.0000
  H   H466      1.0  0.44518  0.09334  0.85171  1.0000
  H   H467      1.0  0.49514  0.27580  0.97369  1.0000
  H   H468      1.0  0.42106  0.25163  0.95288  1.0000
  C   C391      1.0  0.38884  0.26184  0.94037  1.0000
  C   C392      1.0  0.47879  0.25296  0.94297  1.0000
  H   H469      1.0  0.37865  0.25753  0.94228  1.0000
  C   C393      1.0  0.48295  0.29292  0.84546  1.0000
  C   C394      1.0  0.48084  0.24883  0.92951  1.0000
  C   C395      1.0  0.46314  0.28823  0.94614  1.0000
  C   C396      1.0  0.45222  0.20840  0.90353  1.0000
  C   C397      1.0  0.45809  0.09651  0.86545  1.0000
  H   H470      1.0  0.47837  0.11442  0.86191  1.0000
  Fe  Fe56      1.0  0.44575  0.24677  0.98800  1.0000
  C   C398      1.0  0.39249  0.10374  0.75095  1.0000
  H   H471      1.0  0.41778  0.02826  0.77902  1.0000
  C   C399      1.0  0.49507  0.09981  0.77993  1.0000
  H   H472      1.0  0.42793  0.01603  0.79964  1.0000
  C   C400      1.0  0.45481  0.29102  0.91964  1.0000
  S   S109      1.0  0.49729  0.07396  0.75728  1.0000
  C   C401      1.0  0.48409  0.24909  0.82594  1.0000
  H   H473      1.0  0.48517  0.21688  0.83421  1.0000
  S   S110      1.0  0.40508  0.02771  0.75519  1.0000
  C   C402      1.0  0.46098  0.19582  0.94735  1.0000
  H   H474      1.0  0.44795  0.04306  0.74504  1.0000
  C   C403      1.0  0.47298  0.29175  0.93266  1.0000
  H   H475      1.0  0.46209  0.18711  0.88850  1.0000
  H   H476      1.0  0.47562  0.13328  0.95150  1.0000
  Fe  Fe57      1.0  0.48026  0.17179  0.84858  1.0000
  H   H477      1.0  0.40867  0.26935  0.94950  1.0000
  C   C404      1.0  0.39292  0.24842  0.96442  1.0000
  C   C405      1.0  0.43281  0.09281  0.87414  1.0000
  H   H478      1.0  0.42294  0.09104  0.87192  1.0000
  H   H479      1.0  0.48422  0.21931  0.98530  1.0000
  C   C406      1.0  0.44452  0.00396  0.75911  1.0000
  H   H480      1.0  0.44056  0.20719  0.90874  1.0000
  H   H481      1.0  0.44392  0.29496  0.98242  1.0000
  H   H482      1.0  0.41465  0.99687  0.76705  1.0000
  H   H483      1.0  0.46763  0.08553  0.75093  1.0000
  H   H484      1.0  0.38793  0.00473  0.76613  1.0000
  C   C407      1.0  0.46144  0.18994  0.92382  1.0000
  C   C408      1.0  0.47362  0.29948  0.89147  1.0000
  S   S111      1.0  0.41341  0.21351  0.98815  1.0000
  H   H485      1.0  0.46172  0.20366  0.95324  1.0000
  H   H486      1.0  0.49196  0.31399  0.89317  1.0000
  H   H487      1.0  0.42049  0.30867  0.97105  1.0000
  C   C409      1.0  0.46764  0.11258  0.89100  1.0000
  H   H488      1.0  0.49909  0.19435  0.82549  1.0000
  H   H489      1.0  0.42328  0.09254  0.89720  1.0000
  C   C410      1.0  0.47905  0.08658  0.89233  1.0000
  H   H490      1.0  0.48647  0.09351  0.78128  1.0000
  C   C411      1.0  0.46103  0.18325  0.90070  1.0000
  H   H491      1.0  0.48710  0.18673  0.90361  1.0000
  C   C412      1.0  0.41214  0.05480  0.74827  1.0000
  H   H492      1.0  0.48341  0.08601  0.81707  1.0000
  H   H493      1.0  0.48825  0.09518  0.86327  1.0000
  C   C413      1.0  0.48063  0.13644  0.93993  1.0000
  Fe  Fe58      1.0  0.48133  0.14923  0.87713  1.0000
  S   S112      1.0  0.48840  0.17086  0.86871  1.0000
  H   H494      1.0  0.46360  0.30882  0.89147  1.0000
  H   H495      1.0  0.46134  0.12292  0.88476  1.0000
  C   C414      1.0  0.47675  0.12128  0.78633  1.0000
  H   H496      1.0  0.46958  0.17271  0.90236  1.0000
  H   H497      1.0  0.40300  0.19049  0.98381  1.0000
  C   C415      1.0  0.49052  0.10150  0.82487  1.0000
  C   C416      1.0  0.49762  0.00872  0.78284  1.0000
  H   H498      1.0  0.47979  0.22994  0.85177  1.0000
  C   C417      1.0  0.49761  0.27389  0.98448  1.0000
  N   N33       1.0  0.49054  0.20139  0.97352  1.0000
  Fe  Fe59      1.0  0.49327  0.13213  0.97287  1.0000
  H   H499      1.0  0.48928  0.08792  0.89488  1.0000
  C   C418      1.0  0.49305  0.28425  0.90394  1.0000
  C   C419      1.0  0.45406  0.29641  0.98500  1.0000
  H   H500      1.0  0.41209  0.11198  0.74478  1.0000
  H   H501      1.0  0.48062  0.20610  0.90434  1.0000
  H   H502      1.0  0.46042  0.30239  0.97465  1.0000
  C   C420      1.0  0.48472  0.31044  0.90412  1.0000
  H   H503      1.0  0.41874  0.28365  0.98685  1.0000
  C   C421      1.0  0.38342  0.09686  0.74716  1.0000
  H   H504      1.0  0.48046  0.18264  0.98497  1.0000
  C   C422      1.0  0.49336  0.14476  0.90981  1.0000
  C   C423      1.0  0.42159  0.32118  0.91886  1.0000
  H   H505      1.0  0.37372  0.09382  0.75518  1.0000
  H   H506      1.0  0.49246  0.22132  0.94578  1.0000
  H   H507      1.0  0.48650  0.00727  0.78848  1.0000
  C   C424      1.0  0.49590  0.29434  0.84873  1.0000
  H   H508      1.0  0.49234  0.03080  0.78691  1.0000
  C   C425      1.0  0.47015  0.12379  0.75833  1.0000
  H   H509      1.0  0.47576  0.24256  0.82695  1.0000
  H   H510      1.0  0.41287  0.16336  0.98724  1.0000
  H   H511      1.0  0.47840  0.30067  0.83640  1.0000
  C   C426      1.0  0.41923  0.17024  0.98897  1.0000
  C   C427      1.0  0.40527  0.10730  0.74081  1.0000
  H   H512      1.0  0.48186  0.30234  0.88102  1.0000
  H   H513      1.0  0.46086  0.12599  0.76743  1.0000
  H   H514      1.0  0.49131  0.30890  0.91257  1.0000
  H   H515      1.0  0.48700  0.25768  0.94482  1.0000
  H   H516      1.0  0.49293  0.10679  0.87204  1.0000
  H   H517      1.0  0.46106  0.28509  0.98800  1.0000
  C   C428      1.0  0.46666  0.12629  0.74447  1.0000
  C   C429      1.0  0.49372  0.19841  0.95848  1.0000
  C   C430      1.0  0.49493  0.13936  0.93573  1.0000
  C   C431      1.0  0.48834  0.23636  0.85027  1.0000
  H   H518      1.0  0.43173  0.31952  0.98735  1.0000
  C   C432      1.0  0.49431  0.20980  0.94547  1.0000
  C   C433      1.0  0.41025  0.29333  0.98931  1.0000
  H   H519      1.0  0.48912  0.25228  0.81396  1.0000
  H   H520      1.0  0.49594  0.22300  0.96751  1.0000
  H   H521      1.0  0.47163  0.13325  0.78285  1.0000
  C   C434      1.0  0.49687  0.18363  0.95648  1.0000
  Fe  Fe60      1.0  0.49402  0.13947  0.84751  1.0000
  H   H522      1.0  0.49826  0.09741  0.79082  1.0000
  C   C435      1.0  0.42152  0.19452  0.98971  1.0000
  N   N34       1.0  0.49576  0.24068  0.83451  1.0000
  H   H523      1.0  0.46953  0.31403  0.99056  1.0000
  H   H524      1.0  0.49702  0.17431  0.96579  1.0000
  C   C436      1.0  0.49781  0.20654  0.93141  1.0000
  C   C437      1.0  0.49698  0.21592  0.82951  1.0000
  H   H525      1.0  0.49849  0.21544  0.92163  1.0000
  H   H526      1.0  0.49834  0.14798  0.89819  1.0000
  H   H527      1.0  0.49915  0.26513  0.87798  1.0000
  H   H528      1.0  0.45513  0.13027  0.74331  1.0000
  C   C438      1.0  0.43135  0.32493  0.90533  1.0000
  S   S113      1.0  0.24541  0.48174  0.03100  1.0000
  S   S114      1.0  0.20376  0.48180  0.03261  1.0000
  S   S115      1.0  0.27860  0.44567  0.02771  1.0000
  S   S116      1.0  0.09723  0.48483  0.02825  1.0000
  S   S117      1.0  0.03253  0.52304  0.04772  1.0000
  S   S118      1.0  0.03909  0.53784  0.10843  1.0000
  S   S119      1.0  0.03962  0.50798  0.08843  1.0000
  C   C439      1.0  0.04400  0.47805  0.05802  1.0000
  Fe  Fe61      1.0  0.04013  0.54260  0.19199  1.0000
  S   S120      1.0  0.04084  0.56318  0.17402  1.0000
  S   S121      1.0  0.05519  0.51988  0.19269  1.0000
  Fe  Fe62      1.0  0.03473  0.57492  0.19291  1.0000
  S   S122      1.0  0.04500  0.59241  0.19491  1.0000
  H   H529      1.0  0.17204  0.48775  0.03409  1.0000
  H   H530      1.0  0.34926  0.45510  0.99769  1.0000
  Fe  Fe63      1.0  0.03738  0.44423  0.18199  1.0000
  H   H531      1.0  0.04800  0.51455  0.02000  1.0000
  H   H532      1.0  0.04782  0.50176  0.13356  1.0000
  C   C440      1.0  0.31950  0.61409  0.99212  1.0000
  C   C441      1.0  0.05907  0.54626  0.06606  1.0000
  S   S123      1.0  0.05719  0.44696  0.16344  1.0000
  H   H533      1.0  0.28131  0.49834  0.01655  1.0000
  C   C442      1.0  0.01898  0.46640  0.07300  1.0000
  S   S124      1.0  0.03503  0.44473  0.20576  1.0000
  C   C443      1.0  0.04357  0.50737  0.20128  1.0000
  H   H534      1.0  0.20191  0.53699  0.00571  1.0000
  S   S125      1.0  0.26774  0.48039  0.99844  1.0000
  C   C444      1.0  0.03573  0.48556  0.20095  1.0000
  C   C445      1.0  0.22188  0.56298  0.02212  1.0000
  C   C446      1.0  0.04672  0.49387  0.19697  1.0000
  H   H535      1.0  0.10424  0.52961  0.01123  1.0000
  H   H536      1.0  0.04700  0.48145  0.23109  1.0000
  C   C447      1.0  0.07995  0.49701  0.03266  1.0000
  H   H537      1.0  0.05739  0.49026  0.18996  1.0000
  H   H538      1.0  0.37983  0.32799  0.99851  1.0000
  H   H539      1.0  0.04716  0.48134  0.11726  1.0000
  C   C448      1.0  0.02638  0.58923  0.22214  1.0000
  C   C449      1.0  0.03873  0.59471  0.21325  1.0000
  C   C450      1.0  0.04560  0.60239  0.21895  1.0000
  S   S126      1.0  0.00726  0.48145  0.21338  1.0000
  Fe  Fe64      1.0  0.01594  0.56571  0.17788  1.0000
  C   C451      1.0  0.07021  0.50245  0.02285  1.0000
  H   H540      1.0  0.05520  0.60662  0.21212  1.0000
  H   H541      1.0  0.02111  0.58319  0.21790  1.0000
  H   H542      1.0  0.06793  0.55438  0.00953  1.0000
  H   H543      1.0  0.09466  0.54455  0.04660  1.0000
  H   H544      1.0  0.02958  0.49347  0.04414  1.0000
  H   H545      1.0  0.05327  0.48308  0.05197  1.0000
  H   H546      1.0  0.06101  0.47086  0.13773  1.0000
  C   C452      1.0  0.02852  0.54693  0.12278  1.0000
  C   C453      1.0  0.03573  0.55322  0.12958  1.0000
  C   C454      1.0  0.02766  0.56012  0.14140  1.0000
  C   C455      1.0  0.01233  0.56086  0.14636  1.0000
  C   C456      1.0  0.14294  0.54497  0.01188  1.0000
  C   C457      1.0  0.03327  0.51984  0.16208  1.0000
  H   H547      1.0  0.04759  0.55279  0.12570  1.0000
  H   H548      1.0  0.03327  0.56519  0.14639  1.0000
  C   C458      1.0  0.34186  0.46643  0.99652  1.0000
  C   C459      1.0  0.06130  0.50935  0.05092  1.0000
  C   C460      1.0  0.05114  0.51398  0.04158  1.0000
  H   H549      1.0  0.05821  0.51245  0.06149  1.0000
  C   C461      1.0  0.07437  0.54555  0.06288  1.0000
  Fe  Fe65      1.0  0.02649  0.52585  0.10083  1.0000
  C   C462      1.0  0.08283  0.54504  0.04854  1.0000
  C   C463      1.0  0.07556  0.50067  0.04659  1.0000
  C   C464      1.0  0.05270  0.46559  0.13691  1.0000
  C   C465      1.0  0.30296  0.42534  0.01729  1.0000
  H   H550      1.0  0.30368  0.42087  0.02878  1.0000
  H   H551      1.0  0.32308  0.41029  0.00891  1.0000
  C   C466      1.0  0.00442  0.61749  0.18304  1.0000
  C   C467      1.0  0.07693  0.54417  0.01111  1.0000
  C   C468      1.0  0.03860  0.44639  0.14664  1.0000
  Fe  Fe66      1.0  0.11156  0.49232  0.00609  1.0000
  C   C469      1.0  0.04484  0.47154  0.12539  1.0000
  C   C470      1.0  0.07618  0.54512  0.03693  1.0000
  C   C471      1.0  0.03411  0.46465  0.12440  1.0000
  H   H552      1.0  0.06402  0.46454  0.21611  1.0000
  H   H553      1.0  0.04754  0.51089  0.23172  1.0000
  H   H554      1.0  0.34347  0.47195  0.00459  1.0000
  C   C472      1.0  0.16990  0.48199  0.01463  1.0000
  C   C473      1.0  0.05506  0.49922  0.15902  1.0000
  C   C474      1.0  0.05971  0.48356  0.16320  1.0000
  C   C475      1.0  0.06579  0.50758  0.15731  1.0000
  C   C476      1.0  0.07410  0.47675  0.16567  1.0000
  C   C477      1.0  0.08007  0.50070  0.16008  1.0000
  C   C478      1.0  0.08424  0.48530  0.16420  1.0000
  H   H555      1.0  0.00444  0.63047  0.21896  1.0000
  S   S127      1.0  0.16180  0.56170  0.01202  1.0000
  Fe  Fe67      1.0  0.26075  0.46415  0.01900  1.0000
  N   N35       1.0  0.32588  0.46601  0.99890  1.0000
  C   C479      1.0  0.04237  0.51133  0.13908  1.0000
  C   C480      1.0  0.05999  0.44694  0.08750  1.0000
  H   H556      1.0  0.22713  0.51804  0.03124  1.0000
  C   C481      1.0  0.22037  0.54863  0.02330  1.0000
  H   H557      1.0  0.10027  0.55773  0.02235  1.0000
  H   H558      1.0  0.05239  0.47629  0.16480  1.0000
  H   H559      1.0  0.06328  0.51952  0.15384  1.0000
  H   H560      1.0  0.07731  0.46474  0.16880  1.0000
  H   H561      1.0  0.08792  0.50738  0.15903  1.0000
  H   H562      1.0  0.09533  0.48000  0.16627  1.0000
  S   S128      1.0  0.03667  0.55405  0.21037  1.0000
  S   S129      1.0  0.02031  0.41027  0.23068  1.0000
  H   H563      1.0  0.07358  0.49965  0.01205  1.0000
  H   H564      1.0  0.18897  0.51571  0.03531  1.0000
  C   C482      1.0  0.03012  0.51165  0.21107  1.0000
  H   H565      1.0  0.09844  0.55807  0.00429  1.0000
  C   C483      1.0  0.29121  0.43723  0.01368  1.0000
  C   C484      1.0  0.17756  0.47633  0.00196  1.0000
  H   H566      1.0  0.08321  0.49677  0.05407  1.0000
  H   H567      1.0  0.01468  0.61116  0.16202  1.0000
  H   H568      1.0  0.19231  0.50689  0.99972  1.0000
  C   C485      1.0  0.07241  0.45706  0.06301  1.0000
  H   H569      1.0  0.29733  0.47382  0.01690  1.0000
  H   H570      1.0  0.23040  0.54057  0.02000  1.0000
  H   H571      1.0  0.07967  0.54536  0.07162  1.0000
  C   C486      1.0  0.00506  0.62728  0.20843  1.0000
  H   H572      1.0  0.05253  0.54657  0.07721  1.0000
  H   H573      1.0  0.05311  0.47501  0.09086  1.0000
  C   C487      1.0  0.04939  0.45313  0.14768  1.0000
  H   H574      1.0  0.01468  0.62001  0.18334  1.0000
  C   C488      1.0  0.00508  0.55455  0.13959  1.0000
  C   C489      1.0  0.18947  0.52732  0.03477  1.0000
  H   H575      1.0  0.08338  0.56811  0.01620  1.0000
  Fe  Fe68      1.0  0.02436  0.51928  0.07260  1.0000
  C   C490      1.0  0.05098  0.51970  0.23403  1.0000
  H   H576      1.0  0.21367  0.50698  0.03766  1.0000
  N   N36       1.0  0.04025  0.50660  0.15536  1.0000
  C   C491      1.0  0.09215  0.55765  0.01597  1.0000
  H   H577      1.0  0.04565  0.61006  0.23812  1.0000
  Fe  Fe69      1.0  0.01244  0.55712  0.21141  1.0000
  H   H578      1.0  0.18122  0.53467  0.02811  1.0000
  H   H579      1.0  0.45081  0.60606  0.00374  1.0000
  H   H580      1.0  0.18222  0.55500  0.03461  1.0000
  S   S130      1.0  0.00986  0.57897  0.19550  1.0000
  S   S131      1.0  0.24289  0.45943  0.01098  1.0000
  H   H581      1.0  0.07905  0.53808  0.22167  1.0000
  C   C492      1.0  0.14400  0.56684  0.99223  1.0000
  C   C493      1.0  0.06051  0.54599  0.04054  1.0000
  H   H582      1.0  0.23280  0.56565  0.01803  1.0000
  H   H583      1.0  0.01828  0.50282  0.15811  1.0000
  H   H584      1.0  0.03598  0.43680  0.15493  1.0000
  C   C494      1.0  0.17793  0.48328  0.02435  1.0000
  C   C495      1.0  0.19314  0.47169  0.99920  1.0000
  C   C496      1.0  0.19358  0.47899  0.02132  1.0000
  H   H585      1.0  0.07461  0.46712  0.05449  1.0000
  H   H586      1.0  0.02794  0.52166  0.21516  1.0000
  H   H587      1.0  0.21337  0.52018  0.04801  1.0000
  H   H588      1.0  0.43682  0.32605  0.00088  1.0000
  S   S132      1.0  0.01763  0.46303  0.17856  1.0000
  H   H589      1.0  0.02290  0.44660  0.13417  1.0000
  H   H590      1.0  0.20692  0.51714  0.01209  1.0000
  H   H591      1.0  0.18566  0.52916  0.04630  1.0000
  C   C497      1.0  0.20872  0.52789  0.01268  1.0000
  H   H592      1.0  0.03275  0.51691  0.17423  1.0000
  H   H593      1.0  0.16384  0.51666  0.00365  1.0000
  C   C498      1.0  0.29027  0.44287  0.99881  1.0000
  H   H594      1.0  0.21318  0.47001  0.00624  1.0000
  C   C499      1.0  0.29220  0.49702  0.00907  1.0000
  C   C500      1.0  0.02177  0.49059  0.20967  1.0000
  C   C501      1.0  0.04016  0.60438  0.23360  1.0000
  H   H595      1.0  0.04026  0.54690  0.05746  1.0000
  C   C502      1.0  0.01915  0.50338  0.21513  1.0000
  C   C503      1.0  0.05216  0.54653  0.05491  1.0000
  C   C504      1.0  0.21517  0.51835  0.03663  1.0000
  C   C505      1.0  0.13401  0.54061  0.00513  1.0000
  S   S133      1.0  0.49642  0.65784  0.99339  1.0000
  C   C506      1.0  0.01319  0.54747  0.12786  1.0000
  H   H596      1.0  0.05439  0.54595  0.03258  1.0000
  C   C507      1.0  0.05625  0.46031  0.22587  1.0000
  Fe  Fe70      1.0  0.22797  0.47848  0.02119  1.0000
  H   H597      1.0  0.03795  0.47554  0.19691  1.0000
  C   C508      1.0  0.05576  0.51086  0.02736  1.0000
  H   H598      1.0  0.31809  0.57815  0.99937  1.0000
  C   C509      1.0  0.00460  0.61238  0.17063  1.0000
  N   N37       1.0  0.08544  0.54447  0.02187  1.0000
  C   C510      1.0  0.09763  0.53089  0.02249  1.0000
  Fe  Fe71      1.0  0.25075  0.49746  0.00936  1.0000
  H   H599      1.0  0.02168  0.52493  0.16032  1.0000
  S   S134      1.0  0.01579  0.54425  0.19414  1.0000
  H   H600      1.0  0.03303  0.48740  0.15463  1.0000
  H   H601      1.0  0.13033  0.53043  0.01012  1.0000
  Fe  Fe72      1.0  0.02160  0.49595  0.10112  1.0000
  H   H602      1.0  0.33055  0.44388  0.01246  1.0000
  H   H603      1.0  0.22475  0.44635  0.99268  1.0000
  H   H604      1.0  0.06333  0.43798  0.22229  1.0000
  C   C511      1.0  0.02946  0.49679  0.16047  1.0000
  H   H605      1.0  0.02798  0.49227  0.17262  1.0000
  H   H606      1.0  0.10571  0.53092  0.02891  1.0000
  H   H607      1.0  0.18543  0.57961  0.03256  1.0000
  N   N38       1.0  0.20479  0.52991  0.02813  1.0000
  C   C512      1.0  0.19355  0.55652  0.03145  1.0000
  C   C513      1.0  0.19521  0.57083  0.03030  1.0000
  C   C514      1.0  0.20616  0.54492  0.02802  1.0000
  H   H608      1.0  0.01492  0.61785  0.20732  1.0000
  S   S135      1.0  0.25542  0.51982  0.00586  1.0000
  H   H609      1.0  0.14621  0.53804  0.02194  1.0000
  H   H610      1.0  0.07121  0.51750  0.21726  1.0000
  H   H611      1.0  0.21051  0.58524  0.02437  1.0000
  C   C515      1.0  0.20933  0.57404  0.02565  1.0000
  H   H612      1.0  0.07300  0.46857  0.08535  1.0000
  H   H613      1.0  0.05777  0.43781  0.08394  1.0000
  C   C516      1.0  0.30164  0.48293  0.00920  1.0000
  C   C517      1.0  0.03118  0.45197  0.13488  1.0000
  H   H614      1.0  0.28100  0.45166  0.99592  1.0000
  S   S136      1.0  0.02485  0.42624  0.18718  1.0000
  Fe  Fe73      1.0  0.01413  0.46188  0.20279  1.0000
  S   S137      1.0  0.00998  0.51256  0.11535  1.0000
  H   H615      1.0  0.03153  0.51657  0.13560  1.0000
  H   H616      1.0  0.07102  0.44277  0.09080  1.0000
  C   C518      1.0  0.31592  0.48088  0.99943  1.0000
  H   H617      1.0  0.22064  0.52803  0.00748  1.0000
  H   H618      1.0  0.15785  0.48545  0.01689  1.0000
  C   C519      1.0  0.03045  0.48405  0.05340  1.0000
  H   H619      1.0  0.30824  0.61623  0.99863  1.0000
  C   C520      1.0  0.05586  0.44536  0.22930  1.0000
  S   S138      1.0  0.02425  0.47151  0.11011  1.0000
  C   C521      1.0  0.14830  0.55788  0.00520  1.0000
  H   H620      1.0  0.07024  0.44941  0.05736  1.0000
  H   H621      1.0  0.04960  0.51951  0.13454  1.0000
  H   H622      1.0  0.03935  0.52891  0.15723  1.0000
  H   H623      1.0  0.09309  0.52079  0.02767  1.0000
  H   H624      1.0  0.00843  0.50722  0.22206  1.0000
  S   S139      1.0  0.01236  0.53809  0.08422  1.0000
  H   H625      1.0  0.31138  0.45227  0.01422  1.0000
  H   H626      1.0  0.00757  0.54260  0.12265  1.0000
  C   C522      1.0  0.04546  0.46608  0.07040  1.0000
  H   H627      1.0  0.08314  0.45178  0.06674  1.0000
  H   H628      1.0  0.00741  0.48311  0.05739  1.0000
  Fe  Fe74      1.0  0.02023  0.42880  0.21072  1.0000
  H   H629      1.0  0.23722  0.59786  0.00814  1.0000
  S   S140      1.0  0.00725  0.50566  0.08436  1.0000
  C   C523      1.0  0.20114  0.47318  0.00875  1.0000
  N   N39       1.0  0.05976  0.46053  0.07553  1.0000
  C   C524      1.0  0.06438  0.52341  0.22584  1.0000
  C   C525      1.0  0.06874  0.53506  0.22831  1.0000
  H   H630      1.0  0.03235  0.45152  0.08749  1.0000
  C   C526      1.0  0.32246  0.45477  0.01268  1.0000
  C   C527      1.0  0.02050  0.59188  0.23644  1.0000
  Fe  Fe75      1.0  0.00495  0.44511  0.18528  1.0000
  C   C528      1.0  0.24161  0.59426  0.99773  1.0000
  C   C529      1.0  0.03250  0.46036  0.07775  1.0000
  C   C530      1.0  0.06233  0.47216  0.08139  1.0000
  S   S141      1.0  0.00214  0.56978  0.16091  1.0000
  H   H631      1.0  0.28902  0.52026  0.99909  1.0000
  C   C531      1.0  0.31394  0.41941  0.00606  1.0000
  H   H632      1.0  0.30258  0.59283  0.00445  1.0000
  H   H633      1.0  0.26435  0.58716  0.00067  1.0000
  H   H634      1.0  0.06285  0.48257  0.07290  1.0000
  C   C532      1.0  0.01795  0.47825  0.06088  1.0000
  H   H635      1.0  0.32262  0.45852  0.02263  1.0000
  C   C533      1.0  0.32935  0.62193  0.99324  1.0000
  H   H636      1.0  0.00918  0.46204  0.07894  1.0000
  S   S142      1.0  0.12982  0.50261  0.00654  1.0000
  H   H637      1.0  0.05163  0.44911  0.09779  1.0000
  C   C534      1.0  0.04638  0.46994  0.23467  1.0000
  S   S143      1.0  0.23206  0.49557  0.00048  1.0000
  H   H638      1.0  0.32555  0.63003  0.00020  1.0000
  H   H639      1.0  0.17794  0.53308  0.00121  1.0000
  C   C535      1.0  0.29653  0.50940  0.99920  1.0000
  H   H640      1.0  0.07188  0.53430  0.01473  1.0000
  H   H641      1.0  0.24504  0.55128  0.99480  1.0000
  H   H642      1.0  0.00729  0.63684  0.19924  1.0000
  H   H643      1.0  0.06359  0.55222  0.23995  1.0000
  H   H644      1.0  0.00102  0.51844  0.19439  1.0000
  H   H645      1.0  0.08429  0.54351  0.99995  1.0000
  C   C536      1.0  0.30835  0.58647  0.99561  1.0000
  C   C537      1.0  0.25694  0.58825  0.99348  1.0000
  H   H646      1.0  0.30032  0.58030  0.99490  1.0000
  C   C538      1.0  0.16606  0.51737  0.99150  1.0000
  S   S144      1.0  0.21272  0.60309  0.99409  1.0000
  S   S145      1.0  0.12675  0.47664  0.99192  1.0000
  C   C539      1.0  0.05964  0.54315  0.23889  1.0000
  Fe  Fe76      1.0  0.17573  0.57521  0.99342  1.0000
  C   C540      1.0  0.13037  0.54917  0.99172  1.0000
  H   H647      1.0  0.99975  0.43640  0.24055  1.0000
  S   S146      1.0  0.20036  0.56932  0.99203  1.0000
  C   C541      1.0  0.45421  0.60749  0.99179  1.0000
  H   H648      1.0  0.47760  0.59886  0.99192  1.0000
  Fe  Fe77      1.0  0.24869  0.47715  0.99121  1.0000
  C   C542      1.0  0.31336  0.42553  0.99119  1.0000
  C   C543      1.0  0.03163  0.33488  0.37347  1.0000
  C   C544      1.0  0.05105  0.33467  0.41148  1.0000
  H   H649      1.0  0.01419  0.38260  0.29087  1.0000
  C   C545      1.0  0.04175  0.52772  0.24462  1.0000
  C   C546      1.0  0.03759  0.34708  0.36512  1.0000
  H   H650      1.0  0.05504  0.35453  0.34743  1.0000
  C   C547      1.0  0.00649  0.39014  0.31144  1.0000
  H   H651      1.0  0.02063  0.49638  0.26161  1.0000
  H   H652      1.0  0.02720  0.49602  0.24262  1.0000
  H   H653      1.0  0.02504  0.37711  0.33998  1.0000
  H   H654      1.0  0.01727  0.47582  0.27987  1.0000
  C   C548      1.0  0.02904  0.37147  0.30580  1.0000
  H   H655      1.0  0.00622  0.46645  0.25640  1.0000
  S   S147      1.0  0.02964  0.36464  0.36922  1.0000
  C   C549      1.0  0.02209  0.37872  0.32948  1.0000
  S   S148      1.0  0.00611  0.43103  0.29115  1.0000
  C   C550      1.0  0.01975  0.41258  0.27214  1.0000
  H   H656      1.0  0.00538  0.58780  0.47581  1.0000
  H   H657      1.0  0.02523  0.54522  0.28139  1.0000
  C   C551      1.0  0.03843  0.34844  0.43133  1.0000
  C   C552      1.0  0.05749  0.33089  0.35126  1.0000
  C   C553      1.0  0.02523  0.62986  0.28263  1.0000
  H   H658      1.0  0.03331  0.62154  0.27705  1.0000
  C   C554      1.0  0.04588  0.33513  0.42674  1.0000
  C   C555      1.0  0.00532  0.42974  0.24934  1.0000
  H   H659      1.0  0.03120  0.52475  0.25031  1.0000
  C   C556      1.0  0.04111  0.56097  0.25936  1.0000
  C   C557      1.0  0.01579  0.41647  0.24734  1.0000
  C   C558      1.0  0.04548  0.44000  0.24145  1.0000
  C   C559      1.0  0.03272  0.53884  0.27299  1.0000
  H   H660      1.0  0.03573  0.46449  0.27520  1.0000
  H   H661      1.0  0.03463  0.34855  0.44304  1.0000
  H   H662      1.0  0.04090  0.63286  0.29304  1.0000
  H   H663      1.0  0.02158  0.33637  0.38200  1.0000
  N   N40       1.0  0.03544  0.54857  0.25806  1.0000
  N   N41       1.0  0.02369  0.65377  0.30911  1.0000
  H   H664      1.0  0.04340  0.53330  0.27673  1.0000
  C   C560      1.0  0.00996  0.47703  0.25366  1.0000
  C   C561      1.0  0.04773  0.34826  0.40116  1.0000
  H   H665      1.0  0.01369  0.33058  0.46115  1.0000
  H   H666      1.0  0.05173  0.55689  0.26340  1.0000
  C   C562      1.0  0.01897  0.64715  0.29934  1.0000
  S   S149      1.0  0.02091  0.60124  0.26068  1.0000
  C   C563      1.0  0.00096  0.34454  0.47656  1.0000
  H   H667      1.0  0.03999  0.48836  0.25521  1.0000
  S   S150      1.0  0.00596  0.34982  0.40915  1.0000
  H   H668      1.0  0.04298  0.56895  0.24856  1.0000
  C   C564      1.0  0.02942  0.63639  0.29180  1.0000
  H   H669      1.0  0.00263  0.35680  0.33830  1.0000
  H   H670      1.0  0.03724  0.37155  0.39774  1.0000
  C   C565      1.0  0.03562  0.44952  0.25035  1.0000
  H   H671      1.0  0.02903  0.37171  0.42454  1.0000
  C   C566      1.0  0.05042  0.34511  0.35391  1.0000
  H   H672      1.0  0.02761  0.44487  0.25943  1.0000
  H   H673      1.0  0.05067  0.34899  0.38934  1.0000
  C   C567      1.0  0.02750  0.59924  0.24228  1.0000
  H   H674      1.0  0.04599  0.65393  0.29570  1.0000
  C   C568      1.0  0.01633  0.38142  0.30173  1.0000
  C   C569      1.0  0.01746  0.33527  0.34104  1.0000
  H   H675      1.0  0.01323  0.56280  0.26037  1.0000
  H   H676      1.0  0.01335  0.39909  0.34830  1.0000
  H   H677      1.0  0.03298  0.56758  0.26728  1.0000
  H   H678      1.0  0.00737  0.62869  0.27362  1.0000
  H   H679      1.0  0.02571  0.40614  0.28075  1.0000
  H   H680      1.0  0.01930  0.45810  0.27654  1.0000
  H   H681      1.0  0.03673  0.36487  0.29816  1.0000
  C   C570      1.0  0.02096  0.55506  0.25339  1.0000
  H   H682      1.0  0.06752  0.32936  0.34268  1.0000
  C   C571      1.0  0.03193  0.37015  0.31963  1.0000
  C   C572      1.0  0.02943  0.64188  0.32108  1.0000
  C   C573      1.0  0.00913  0.42563  0.27432  1.0000
  C   C574      1.0  0.00179  0.43421  0.26295  1.0000
  H   H683      1.0  0.00656  0.41739  0.32482  1.0000
  H   H684      1.0  0.01080  0.58783  0.24308  1.0000
  Fe  Fe78      1.0  0.00844  0.36413  0.38628  1.0000
  H   H685      1.0  0.04189  0.36247  0.32277  1.0000
  C   C575      1.0  0.03533  0.36153  0.42092  1.0000
  C   C576      1.0  0.02436  0.46796  0.27270  1.0000
  C   C577      1.0  0.04575  0.53978  0.24731  1.0000
  C   C578      1.0  0.00898  0.38898  0.32568  1.0000
  H   H686      1.0  0.02711  0.53001  0.27329  1.0000
  N   N42       1.0  0.02495  0.47469  0.25671  1.0000
  H   H687      1.0  0.00140  0.48479  0.26011  1.0000
  H   H688      1.0  0.00133  0.61473  0.33313  1.0000
  C   C579      1.0  0.02284  0.40786  0.25884  1.0000
  H   H689      1.0  0.02724  0.33931  0.33433  1.0000
  H   H690      1.0  0.02262  0.56119  0.24165  1.0000
  C   C580      1.0  0.03996  0.36143  0.40587  1.0000
  C   C581      1.0  0.00255  0.39583  0.35019  1.0000
  H   H691      1.0  0.07503  0.32893  0.38905  1.0000
  H   H692      1.0  0.02109  0.63499  0.32704  1.0000
  H   H693      1.0  0.03099  0.39768  0.25732  1.0000
  H   H694      1.0  0.00995  0.48186  0.24177  1.0000
  H   H695      1.0  0.00651  0.34908  0.43917  1.0000
  C   C582      1.0  0.03587  0.46475  0.24737  1.0000
  C   C583      1.0  0.02847  0.48946  0.25386  1.0000
  C   C584      1.0  0.00007  0.64443  0.28780  1.0000
  H   H696      1.0  0.03995  0.63428  0.31685  1.0000
  H   H697      1.0  0.04483  0.42846  0.24383  1.0000
  H   H698      1.0  0.03178  0.64647  0.32949  1.0000
  H   H699      1.0  0.01495  0.54649  0.25412  1.0000
  C   C585      1.0  0.00649  0.34128  0.46244  1.0000
  H   H700      1.0  0.02756  0.65614  0.42461  1.0000
  C   C586      1.0  0.00363  0.34514  0.34335  1.0000
  C   C587      1.0  0.00408  0.65096  0.29709  1.0000
  H   H701      1.0  0.00363  0.38416  0.35654  1.0000
  C   C588      1.0  0.01059  0.63387  0.28064  1.0000
  C   C589      1.0  0.00241  0.35172  0.45000  1.0000
  H   H702      1.0  0.05914  0.32757  0.38317  1.0000
  H   H703      1.0  0.04718  0.32521  0.43530  1.0000
  S   S151      1.0  0.00907  0.51932  0.59909  1.0000
  H   H704      1.0  0.05197  0.43850  0.62031  1.0000
  C   C590      1.0  0.07671  0.54140  0.73127  1.0000
  C   C591      1.0  0.00251  0.48916  0.72879  1.0000
  H   H705      1.0  0.07749  0.40787  0.65084  1.0000
  C   C592      1.0  0.01596  0.65732  0.53160  1.0000
  S   S152      1.0  0.03069  0.55042  0.58003  1.0000
  Fe  Fe79      1.0  0.00951  0.39963  0.62027  1.0000
  N   N43       1.0  0.06639  0.42590  0.63550  1.0000
  H   H706      1.0  0.03798  0.49557  0.72165  1.0000
  H   H707      1.0  0.06826  0.55539  0.69195  1.0000
  C   C593      1.0  0.06654  0.41237  0.64751  1.0000
  H   H708      1.0  0.00362  0.49951  0.67320  1.0000
  Fe  Fe80      1.0  0.02308  0.56862  0.65505  1.0000
  S   S153      1.0  0.01303  0.54875  0.66175  1.0000
  S   S154      1.0  0.02818  0.58104  0.63152  1.0000
  Fe  Fe81      1.0  0.02429  0.56785  0.68676  1.0000
  S   S155      1.0  0.01410  0.54810  0.69620  1.0000
  S   S156      1.0  0.03038  0.57904  0.70122  1.0000
  Fe  Fe82      1.0  0.02951  0.53961  0.67667  1.0000
  S   S157      1.0  0.04420  0.51694  0.68046  1.0000
  H   H709      1.0  0.09095  0.42644  0.72364  1.0000
  H   H710      1.0  0.02534  0.46757  0.73702  1.0000
  S   S158      1.0  0.04093  0.55856  0.66826  1.0000
  S   S159      1.0  0.00752  0.58008  0.67272  1.0000
  H   H711      1.0  0.07976  0.43287  0.61404  1.0000
  H   H712      1.0  0.05174  0.41926  0.62599  1.0000
  C   C594      1.0  0.07490  0.53535  0.70860  1.0000
  C   C595      1.0  0.03157  0.39808  0.64411  1.0000
  H   H713      1.0  0.01952  0.46596  0.61639  1.0000
  H   H714      1.0  0.06679  0.57298  0.70636  1.0000
  C   C596      1.0  0.06905  0.47087  0.72731  1.0000
  C   C597      1.0  0.07928  0.42283  0.62313  1.0000
  C   C598      1.0  0.09096  0.51414  0.69879  1.0000
  H   H715      1.0  0.04691  0.57047  0.58198  1.0000
  Fe  Fe83      1.0  0.02648  0.43053  0.72080  1.0000
  S   S160      1.0  0.04915  0.41595  0.71497  1.0000
  H   H716      1.0  0.01079  0.47177  0.64146  1.0000
  Fe  Fe84      1.0  0.02710  0.44817  0.68958  1.0000
  S   S161      1.0  0.04975  0.43520  0.68085  1.0000
  S   S162      1.0  0.01518  0.46796  0.67540  1.0000
  Fe  Fe85      1.0  0.04124  0.41542  0.69508  1.0000
  C   C599      1.0  0.09338  0.47148  0.71116  1.0000
  Fe  Fe86      1.0  0.05535  0.43725  0.70138  1.0000
  S   S163      1.0  0.07711  0.44341  0.69879  1.0000
  H   H717      1.0  0.01617  0.38241  0.70565  1.0000
  S   S164      1.0  0.03329  0.45180  0.70906  1.0000
  H   H718      1.0  0.06135  0.53733  0.68556  1.0000
  C   C600      1.0  0.07803  0.45693  0.70759  1.0000
  C   C601      1.0  0.06671  0.46168  0.71927  1.0000
  H   H719      1.0  0.06650  0.50907  0.71971  1.0000
  C   C602      1.0  0.09120  0.46210  0.70343  1.0000
  H   H720      1.0  0.05647  0.45779  0.72248  1.0000
  H   H721      1.0  0.08041  0.51936  0.72850  1.0000
  H   H722      1.0  0.09997  0.45852  0.69442  1.0000
  C   C603      1.0  0.07291  0.53044  0.68519  1.0000
  H   H723      1.0  0.10383  0.47502  0.70808  1.0000
  H   H724      1.0  0.00671  0.39812  0.71409  1.0000
  C   C604      1.0  0.00920  0.64801  0.52804  1.0000
  Fe  Fe87      1.0  0.01080  0.54093  0.58359  1.0000
  H   H725      1.0  0.06403  0.40319  0.64424  1.0000
  H   H726      1.0  0.01128  0.48865  0.70526  1.0000
  C   C605      1.0  0.07768  0.53095  0.72316  1.0000
  C   C606      1.0  0.05650  0.45179  0.64116  1.0000
  H   H727      1.0  0.08099  0.53731  0.67829  1.0000
  H   H728      1.0  0.08861  0.42685  0.64821  1.0000
  H   H729      1.0  0.02567  0.41811  0.67045  1.0000
  C   C607      1.0  0.04369  0.38365  0.66435  1.0000
  C   C608      1.0  0.04035  0.38493  0.65065  1.0000
  H   H730      1.0  0.05077  0.37353  0.66916  1.0000
  C   C609      1.0  0.09428  0.41845  0.73366  1.0000
  C   C610      1.0  0.02317  0.48197  0.67595  1.0000
  C   C611      1.0  0.03772  0.47824  0.67831  1.0000
  C   C612      1.0  0.04411  0.48907  0.67968  1.0000
  C   C613      1.0  0.03593  0.50368  0.67871  1.0000
  C   C614      1.0  0.02133  0.50750  0.67637  1.0000
  C   C615      1.0  0.01497  0.49664  0.67483  1.0000
  H   H731      1.0  0.04414  0.46696  0.67908  1.0000
  H   H732      1.0  0.05538  0.48607  0.68159  1.0000
  H   H733      1.0  0.01485  0.51872  0.67597  1.0000
  H   H734      1.0  0.00938  0.42920  0.56616  1.0000
  C   C616      1.0  0.03319  0.56823  0.71858  1.0000
  C   C617      1.0  0.03346  0.57532  0.72942  1.0000
  S   S165      1.0  0.04512  0.39432  0.68734  1.0000
  S   S166      1.0  0.00451  0.38373  0.57592  1.0000
  S   S167      1.0  0.01800  0.42825  0.70202  1.0000
  C   C618      1.0  0.03547  0.55274  0.72168  1.0000
  H   H735      1.0  0.03174  0.58728  0.72704  1.0000
  H   H736      1.0  0.01740  0.45967  0.58831  1.0000
  H   H737      1.0  0.03206  0.56238  0.51117  1.0000
  H   H738      1.0  0.03552  0.54721  0.71326  1.0000
  H   H739      1.0  0.09969  0.52057  0.69285  1.0000
  N   N44       1.0  0.07581  0.52404  0.70033  1.0000
  C   C619      1.0  0.00533  0.46322  0.59027  1.0000
  H   H740      1.0  0.09375  0.50809  0.70966  1.0000
  C   C620      1.0  0.06756  0.43829  0.64124  1.0000
  C   C621      1.0  0.03814  0.54440  0.73559  1.0000
  H   H741      1.0  0.05805  0.41473  0.65764  1.0000
  S   S168      1.0  0.00431  0.53494  0.56558  1.0000
  C   C622      1.0  0.08080  0.44802  0.65389  1.0000
  C   C623      1.0  0.06460  0.51503  0.70850  1.0000
  C   C624      1.0  0.99984  0.38840  0.67816  1.0000
  C   C625      1.0  0.00186  0.48822  0.71447  1.0000
  C   C626      1.0  0.03869  0.39567  0.67139  1.0000
  H   H742      1.0  0.01059  0.41209  0.56167  1.0000
  H   H743      1.0  0.00180  0.44119  0.59961  1.0000
  S   S169      1.0  0.03080  0.40073  0.62546  1.0000
  H   H744      1.0  0.04667  0.45395  0.63671  1.0000
  H   H745      1.0  0.03601  0.48028  0.59683  1.0000
  H   H746      1.0  0.07185  0.56457  0.73160  1.0000
  C   C627      1.0  0.00732  0.42434  0.55782  1.0000
  C   C628      1.0  0.02813  0.49379  0.71879  1.0000
  C   C629      1.0  0.02962  0.55888  0.59449  1.0000
  C   C630      1.0  0.01958  0.55611  0.60807  1.0000
  C   C631      1.0  0.01942  0.56242  0.61975  1.0000
  C   C632      1.0  0.02887  0.57199  0.61763  1.0000
  C   C633      1.0  0.03861  0.57501  0.60393  1.0000
  C   C634      1.0  0.03918  0.56826  0.59248  1.0000
  H   H747      1.0  0.01202  0.54904  0.60960  1.0000
  H   H748      1.0  0.01165  0.56029  0.63017  1.0000
  H   H749      1.0  0.04584  0.58249  0.60219  1.0000
  H   H750      1.0  0.04870  0.47277  0.64781  1.0000
  H   H751      1.0  0.09204  0.50546  0.69263  1.0000
  C   C635      1.0  0.05759  0.46289  0.64743  1.0000
  H   H752      1.0  0.08996  0.44643  0.65925  1.0000
  C   C636      1.0  0.07301  0.55649  0.72514  1.0000
  C   C637      1.0  0.02582  0.40988  0.65152  1.0000
  C   C638      1.0  0.01998  0.56436  0.51318  1.0000
  H   H753      1.0  0.03249  0.48418  0.71324  1.0000
  H   H754      1.0  0.06489  0.50643  0.70256  1.0000
  C   C639      1.0  0.06968  0.46101  0.65381  1.0000
  H   H755      1.0  0.09013  0.41930  0.62670  1.0000
  S   S170      1.0  0.08712  0.48532  0.73394  1.0000
  H   H756      1.0  0.07385  0.52165  0.67921  1.0000
  C   C640      1.0  0.07023  0.56121  0.71089  1.0000
  C   C641      1.0  0.02954  0.40875  0.66508  1.0000
  N   N45       1.0  0.01607  0.49104  0.73212  1.0000
  H   H757      1.0  0.07853  0.41375  0.61837  1.0000
  H   H758      1.0  0.04237  0.43109  0.63875  1.0000
  H   H759      1.0  0.05308  0.52215  0.70988  1.0000
  C   C642      1.0  0.07985  0.43684  0.64763  1.0000
  N   N46       1.0  0.03434  0.51151  0.62780  1.0000
  C   C643      1.0  0.04411  0.50615  0.63869  1.0000
  C   C644      1.0  0.04206  0.52080  0.61448  1.0000
  C   C645      1.0  0.02027  0.52129  0.63415  1.0000
  C   C646      1.0  0.03102  0.49862  0.62464  1.0000
  C   C647      1.0  0.02189  0.48985  0.63570  1.0000
  C   C648      1.0  0.03665  0.49432  0.61072  1.0000
  C   C649      1.0  0.01800  0.47808  0.63282  1.0000
  C   C650      1.0  0.03244  0.48270  0.60785  1.0000
  C   C651      1.0  0.02304  0.47468  0.61882  1.0000
  H   H760      1.0  0.05499  0.49911  0.63425  1.0000
  H   H761      1.0  0.04646  0.51552  0.64179  1.0000
  H   H762      1.0  0.03887  0.49940  0.64911  1.0000
  H   H763      1.0  0.05335  0.51468  0.60974  1.0000
  H   H764      1.0  0.04377  0.53078  0.61704  1.0000
  H   H765      1.0  0.03540  0.52501  0.60568  1.0000
  H   H766      1.0  0.01206  0.52463  0.62687  1.0000
  H   H767      1.0  0.01468  0.51600  0.64527  1.0000
  H   H768      1.0  0.02229  0.53161  0.63562  1.0000
  H   H769      1.0  0.01747  0.49214  0.64664  1.0000
  H   H770      1.0  0.04366  0.50026  0.60158  1.0000
  H   H771      1.0  0.00245  0.39919  0.67501  1.0000
  C   C652      1.0  0.08256  0.47553  0.72337  1.0000
  H   H772      1.0  0.01916  0.42013  0.64641  1.0000
  H   H773      1.0  0.04501  0.37587  0.64488  1.0000
  H   H774      1.0  0.07024  0.46944  0.65908  1.0000
  C   C653      1.0  0.07108  0.55087  0.70269  1.0000
  C   C654      1.0  0.05252  0.42891  0.62989  1.0000
  C   C655      1.0  0.01018  0.64817  0.51327  1.0000
  H   H775      1.0  0.04001  0.53250  0.73789  1.0000
  H   H776      1.0  0.08924  0.40872  0.73589  1.0000
  H   H777      1.0  0.02417  0.50386  0.71059  1.0000
  H   H778      1.0  0.01147  0.40054  0.69449  1.0000
  S   S171      1.0  0.00533  0.33097  0.49206  1.0000
  H   H779      1.0  0.00484  0.64090  0.51064  1.0000
  S   S172      1.0  0.00366  0.37926  0.61829  1.0000
  H   H780      1.0  0.01845  0.54776  0.53340  1.0000
  H   H781      1.0  0.01503  0.65726  0.54313  1.0000
  H   H782      1.0  0.06643  0.42406  0.73450  1.0000
  H   H783      1.0  0.00929  0.36773  0.55318  1.0000
  S   S173      1.0  0.01006  0.49108  0.57817  1.0000
  H   H784      1.0  0.01850  0.58156  0.49395  1.0000
  H   H785      1.0  0.06069  0.47389  0.73681  1.0000
  H   H786      1.0  0.10662  0.41432  0.73063  1.0000
  H   H787      1.0  0.00092  0.56712  0.72212  1.0000
  H   H788      1.0  0.00314  0.60492  0.49171  1.0000
  C   C656      1.0  0.01234  0.55609  0.52571  1.0000
  C   C657      1.0  0.01209  0.57531  0.50340  1.0000
  H   H789      1.0  0.01516  0.42746  0.54716  1.0000
  H   H790      1.0  0.00309  0.64067  0.53674  1.0000
  H   H791      1.0  0.00690  0.51419  0.73245  1.0000
  C   C658      1.0  0.00738  0.39289  0.70481  1.0000
  S   S174      1.0  0.00548  0.41209  0.59780  1.0000
  H   H792      1.0  0.00323  0.59612  0.59337  1.0000
  H   H793      1.0  0.00558  0.38617  0.65539  1.0000
  C   C659      1.0  0.01791  0.65765  0.50196  1.0000
  C   C660      1.0  0.00170  0.38103  0.66683  1.0000
  H   H794      1.0  0.99994  0.45454  0.72200  1.0000
  H   H795      1.0  0.11032  0.43345  0.73954  1.0000
  H   H796      1.0  0.09444  0.44635  0.73352  1.0000
  C   C661      1.0  0.01220  0.50382  0.73945  1.0000
  Fe  Fe88      1.0  0.00025  0.51420  0.58224  1.0000
  H   H797      1.0  0.01829  0.65736  0.49070  1.0000
  H   H798      1.0  0.43592  0.64592  0.97722  1.0000
  Fe  Fe89      1.0  0.04181  0.48750  0.77551  1.0000
  S   S175      1.0  0.06549  0.47471  0.77542  1.0000
  S   S176      1.0  0.02314  0.47619  0.77868  1.0000
  H   H799      1.0  0.17608  0.51084  0.94057  1.0000
  C   C662      1.0  0.18425  0.53057  0.93628  1.0000
  H   H800      1.0  0.17660  0.42769  0.86739  1.0000
  C   C663      1.0  0.02224  0.47738  0.74220  1.0000
  Fe  Fe90      1.0  0.06712  0.49167  0.78688  1.0000
  S   S177      1.0  0.07742  0.48500  0.80711  1.0000
  C   C664      1.0  0.18861  0.53983  0.94242  1.0000
  H   H801      1.0  0.15788  0.55685  0.90567  1.0000
  Fe  Fe91      1.0  0.12113  0.51983  0.84138  1.0000
  S   S178      1.0  0.11214  0.50878  0.86468  1.0000
  S   S179      1.0  0.10773  0.52787  0.82333  1.0000
  Fe  Fe92      1.0  0.15136  0.51783  0.84754  1.0000
  S   S180      1.0  0.14508  0.50616  0.87106  1.0000
  S   S181      1.0  0.17526  0.52023  0.84119  1.0000
  Fe  Fe93      1.0  0.13463  0.49307  0.86242  1.0000
  S   S182      1.0  0.13587  0.46882  0.87211  1.0000
  Fe  Fe94      1.0  0.12334  0.52266  0.87166  1.0000
  S   S183      1.0  0.11427  0.53276  0.89191  1.0000
  S   S184      1.0  0.14297  0.50300  0.83863  1.0000
  S   S185      1.0  0.13023  0.53555  0.84856  1.0000
  C   C665      1.0  0.17379  0.44853  0.85174  1.0000
  C   C666      1.0  0.19400  0.43896  0.86477  1.0000
  Fe  Fe95      1.0  0.30724  0.56590  0.92419  1.0000
  S   S186      1.0  0.31273  0.58711  0.90948  1.0000
  S   S187      1.0  0.31319  0.54520  0.91499  1.0000
  H   H802      1.0  0.36021  0.60821  0.96923  1.0000
  Fe  Fe96      1.0  0.28909  0.59747  0.91903  1.0000
  C   C667      1.0  0.09003  0.50160  0.90673  1.0000
  S   S188      1.0  0.31520  0.56857  0.94305  1.0000
  S   S189      1.0  0.28302  0.57613  0.93233  1.0000
  Fe  Fe97      1.0  0.20212  0.57023  0.88927  1.0000
  S   S190      1.0  0.19789  0.59171  0.87312  1.0000
  S   S191      1.0  0.18456  0.56403  0.90893  1.0000
  Fe  Fe98      1.0  0.23139  0.55861  0.87008  1.0000
  S   S192      1.0  0.22957  0.57903  0.85191  1.0000
  S   S193      1.0  0.24972  0.53834  0.86832  1.0000
  Fe  Fe99      1.0  0.22221  0.59085  0.87093  1.0000
  S   S194      1.0  0.22888  0.61149  0.87121  1.0000
  Fe  Fe100     1.0  0.20551  0.57765  0.85612  1.0000
  S   S195      1.0  0.18968  0.58069  0.84128  1.0000
  S   S196      1.0  0.22568  0.57048  0.88873  1.0000
  S   S197      1.0  0.20817  0.55623  0.87262  1.0000
  C   C668      1.0  0.25851  0.62544  0.88411  1.0000
  S   S198      1.0  0.20303  0.59426  0.96066  1.0000
  H   H803      1.0  0.16603  0.50623  0.99037  1.0000
  S   S199      1.0  0.47610  0.32754  0.95945  1.0000
  S   S200      1.0  0.17812  0.57388  0.96993  1.0000
  H   H804      1.0  0.05207  0.55244  0.81621  1.0000
  Fe  Fe101     1.0  0.20262  0.57027  0.96802  1.0000
  S   S201      1.0  0.21888  0.55248  0.95719  1.0000
  Fe  Fe102     1.0  0.17812  0.59802  0.96478  1.0000
  S   S202      1.0  0.16674  0.61266  0.94674  1.0000
  H   H805      1.0  0.34357  0.59461  0.96665  1.0000
  H   H806      1.0  0.36616  0.64106  0.90315  1.0000
  Fe  Fe103     1.0  0.44020  0.34208  0.92551  1.0000
  S   S203      1.0  0.41933  0.35693  0.93529  1.0000
  C   C669      1.0  0.33234  0.62093  0.88806  1.0000
  Fe  Fe104     1.0  0.45555  0.33876  0.95009  1.0000
  S   S204      1.0  0.43622  0.35377  0.96198  1.0000
  C   C670      1.0  0.36448  0.37339  0.97208  1.0000
  H   H807      1.0  0.42831  0.36811  0.88102  1.0000
  H   H808      1.0  0.26325  0.52950  0.93942  1.0000
  Fe  Fe105     1.0  0.43488  0.36817  0.93951  1.0000
  S   S205      1.0  0.43017  0.39302  0.93587  1.0000
  H   H809      1.0  0.31531  0.61996  0.94147  1.0000
  S   S206      1.0  0.45573  0.35448  0.92806  1.0000
  Fe  Fe106     1.0  0.34207  0.46503  0.94329  1.0000
  S   S207      1.0  0.34312  0.46376  0.91999  1.0000
  S   S208      1.0  0.34493  0.48426  0.95074  1.0000
  Fe  Fe107     1.0  0.33188  0.43600  0.95652  1.0000
  S   S209      1.0  0.33145  0.43249  0.93455  1.0000
  C   C671      1.0  0.49274  0.33175  0.93097  1.0000
  Fe  Fe108     1.0  0.35331  0.43957  0.92700  1.0000
  S   S210      1.0  0.37100  0.42580  0.91236  1.0000
  Fe  Fe109     1.0  0.32137  0.45682  0.92955  1.0000
  S   S211      1.0  0.30183  0.46929  0.91930  1.0000
  S   S212      1.0  0.35449  0.44136  0.94947  1.0000
  S   S213      1.0  0.31949  0.45971  0.95237  1.0000
  H   H810      1.0  0.22765  0.45015  0.94657  1.0000
  H   H811      1.0  0.43895  0.62029  0.96163  1.0000
  Fe  Fe110     1.0  0.22270  0.47367  0.88122  1.0000
  S   S214      1.0  0.22692  0.44889  0.88680  1.0000
  S   S215      1.0  0.22958  0.48587  0.85800  1.0000
  Fe  Fe111     1.0  0.21257  0.47632  0.91350  1.0000
  S   S216      1.0  0.21569  0.45174  0.92160  1.0000
  S   S217      1.0  0.20433  0.49047  0.93060  1.0000
  Fe  Fe112     1.0  0.23724  0.45039  0.90465  1.0000
  S   S218      1.0  0.25884  0.43494  0.90991  1.0000
  Fe  Fe113     1.0  0.20506  0.45284  0.90306  1.0000
  S   S219      1.0  0.18790  0.43949  0.90706  1.0000
  S   S220      1.0  0.23468  0.47505  0.89756  1.0000
  S   S221      1.0  0.20005  0.47771  0.89631  1.0000
  C   C672      1.0  0.13779  0.60974  0.88650  1.0000
  C   C673      1.0  0.01581  0.51183  0.82269  1.0000
  H   H812      1.0  0.14559  0.46792  0.96214  1.0000
  H   H813      1.0  0.10471  0.47176  0.88106  1.0000
  S   S222      1.0  0.25428  0.47542  0.96751  1.0000
  H   H814      1.0  0.32438  0.64923  0.87326  1.0000
  C   C674      1.0  0.17901  0.51832  0.94539  1.0000
  C   C675      1.0  0.35306  0.62849  0.94056  1.0000
  C   C676      1.0  0.03836  0.55158  0.74642  1.0000
  C   C677      1.0  0.02332  0.53715  0.80287  1.0000
  H   H815      1.0  0.34114  0.62424  0.87835  1.0000
  C   C678      1.0  0.09418  0.47946  0.88000  1.0000
  S   S223      1.0  0.40933  0.64833  0.96756  1.0000
  S   S224      1.0  0.13928  0.50554  0.97055  1.0000
  H   H816      1.0  0.00776  0.45415  0.81269  1.0000
  Fe  Fe114     1.0  0.12069  0.49472  0.97268  1.0000
  S   S225      1.0  0.11985  0.48721  0.95267  1.0000
  H   H817      1.0  0.02091  0.44205  0.79167  1.0000
  S   S226      1.0  0.01082  0.42907  0.74287  1.0000
  H   H818      1.0  0.28961  0.41751  0.97561  1.0000
  H   H819      1.0  0.04910  0.52307  0.83479  1.0000
  C   C679      1.0  0.18163  0.52505  0.96734  1.0000
  S   S227      1.0  0.48878  0.63707  0.96624  1.0000
  C   C680      1.0  0.18740  0.53714  0.95766  1.0000
  H   H820      1.0  0.36330  0.37693  0.98256  1.0000
  H   H821      1.0  0.19103  0.54476  0.96156  1.0000
  H   H822      1.0  0.26985  0.40941  0.95945  1.0000
  C   C681      1.0  0.32396  0.46100  0.98640  1.0000
  C   C682      1.0  0.05626  0.53448  0.79743  1.0000
  H   H823      1.0  0.26296  0.50407  0.94538  1.0000
  H   H824      1.0  0.46484  0.37700  0.87214  1.0000
  H   H825      1.0  0.35307  0.37371  0.97095  1.0000
  H   H826      1.0  0.03989  0.43347  0.74262  1.0000
  C   C683      1.0  0.21773  0.48642  0.94144  1.0000
  C   C684      1.0  0.21365  0.48792  0.95625  1.0000
  C   C685      1.0  0.22472  0.48474  0.96457  1.0000
  C   C686      1.0  0.23979  0.48010  0.95798  1.0000
  C   C687      1.0  0.24372  0.47886  0.94322  1.0000
  C   C688      1.0  0.23276  0.48192  0.93503  1.0000
  H   H827      1.0  0.20199  0.49112  0.96133  1.0000
  H   H828      1.0  0.22162  0.48557  0.97608  1.0000
  H   H829      1.0  0.25532  0.47518  0.93828  1.0000
  H   H830      1.0  0.23596  0.48098  0.92366  1.0000
  C   C689      1.0  0.29062  0.45912  0.91661  1.0000
  C   C690      1.0  0.27610  0.46648  0.91518  1.0000
  C   C691      1.0  0.26636  0.45880  0.91369  1.0000
  C   C692      1.0  0.27125  0.44401  0.91255  1.0000
  C   C693      1.0  0.28597  0.43658  0.91370  1.0000
  C   C694      1.0  0.29564  0.44410  0.91596  1.0000
  H   H831      1.0  0.27224  0.47811  0.91561  1.0000
  H   H832      1.0  0.25496  0.46423  0.91374  1.0000
  H   H833      1.0  0.28985  0.42505  0.91289  1.0000
  H   H834      1.0  0.30697  0.43838  0.91691  1.0000
  C   C695      1.0  0.08933  0.48100  0.86705  1.0000
  C   C696      1.0  0.30121  0.48898  0.88340  1.0000
  C   C697      1.0  0.17788  0.51544  0.96068  1.0000
  C   C698      1.0  0.31073  0.62843  0.90630  1.0000
  C   C699      1.0  0.09802  0.43761  0.74289  1.0000
  H   H835      1.0  0.17430  0.50546  0.96714  1.0000
  H   H836      1.0  0.12370  0.55814  0.87220  1.0000
  H   H837      1.0  0.02586  0.54692  0.79481  1.0000
  C   C700      1.0  0.41368  0.40218  0.92942  1.0000
  C   C701      1.0  0.40835  0.39579  0.92103  1.0000
  C   C702      1.0  0.39522  0.40310  0.91591  1.0000
  C   C703      1.0  0.38715  0.41675  0.91937  1.0000
  C   C704      1.0  0.39230  0.42314  0.92795  1.0000
  C   C705      1.0  0.40567  0.41592  0.93283  1.0000
  H   H838      1.0  0.41452  0.38541  0.91811  1.0000
  H   H839      1.0  0.39141  0.39822  0.90910  1.0000
  H   H840      1.0  0.38623  0.43380  0.93047  1.0000
  H   H841      1.0  0.40976  0.42095  0.93931  1.0000
  H   H842      1.0  0.05107  0.54315  0.78887  1.0000
  Fe  Fe115     1.0  0.42221  0.34139  0.95687  1.0000
  N   N47       1.0  0.31319  0.59618  0.98117  1.0000
  C   C706      1.0  0.27735  0.42247  0.97772  1.0000
  C   C707      1.0  0.32607  0.63363  0.94770  1.0000
  C   C708      1.0  0.24824  0.44024  0.95408  1.0000
  H   H843      1.0  0.31568  0.64006  0.95295  1.0000
  Fe  Fe116     1.0  0.12293  0.51866  0.98652  1.0000
  C   C709      1.0  0.05211  0.44504  0.76666  1.0000
  C   C710      1.0  0.40500  0.41198  0.87733  1.0000
  C   C711      1.0  0.23197  0.54416  0.96836  1.0000
  C   C712      1.0  0.23876  0.52913  0.96950  1.0000
  C   C713      1.0  0.15850  0.60557  0.86617  1.0000
  C   C714      1.0  0.43750  0.65120  0.96558  1.0000
  H   H844      1.0  0.37078  0.36160  0.97364  1.0000
  N   N48       1.0  0.46823  0.61373  0.94415  1.0000
  H   H845      1.0  0.23679  0.52285  0.96272  1.0000
  C   C715      1.0  0.04212  0.54866  0.81595  1.0000
  S   S228      1.0  0.44273  0.33713  0.90333  1.0000
  C   C716      1.0  0.47558  0.59916  0.94008  1.0000
  H   H846      1.0  0.48293  0.33155  0.92752  1.0000
  C   C717      1.0  0.01052  0.53278  0.80285  1.0000
  C   C718      1.0  0.37979  0.36383  0.94338  1.0000
  H   H847      1.0  0.48588  0.59380  0.94458  1.0000
  H   H848      1.0  0.31205  0.46097  0.98750  1.0000
  H   H849      1.0  0.39382  0.38805  0.95087  1.0000
  C   C719      1.0  0.05547  0.52361  0.82315  1.0000
  H   H850      1.0  0.13203  0.56932  0.97530  1.0000
  C   C720      1.0  0.49239  0.33001  0.94602  1.0000
  C   C721      1.0  0.17850  0.57824  0.91878  1.0000
  C   C722      1.0  0.16732  0.57724  0.93167  1.0000
  C   C723      1.0  0.16291  0.58841  0.93983  1.0000
  C   C724      1.0  0.16954  0.60064  0.93496  1.0000
  C   C725      1.0  0.18030  0.60186  0.92176  1.0000
  C   C726      1.0  0.18491  0.59059  0.91376  1.0000
  H   H851      1.0  0.16246  0.56761  0.93568  1.0000
  H   H852      1.0  0.15475  0.58732  0.95019  1.0000
  H   H853      1.0  0.18557  0.61116  0.91806  1.0000
  H   H854      1.0  0.19375  0.59131  0.90396  1.0000
  C   C727      1.0  0.24260  0.52537  0.86420  1.0000
  C   C728      1.0  0.24949  0.51966  0.85143  1.0000
  C   C729      1.0  0.24487  0.50804  0.84899  1.0000
  C   C730      1.0  0.23357  0.50200  0.85948  1.0000
  C   C731      1.0  0.22637  0.50804  0.87199  1.0000
  C   C732      1.0  0.23076  0.51982  0.87425  1.0000
  H   H855      1.0  0.25849  0.52411  0.84352  1.0000
  H   H856      1.0  0.25040  0.50340  0.83927  1.0000
  H   H857      1.0  0.21754  0.50346  0.88004  1.0000
  H   H858      1.0  0.22525  0.52426  0.88402  1.0000
  C   C733      1.0  0.32349  0.52890  0.92453  1.0000
  C   C734      1.0  0.32950  0.51663  0.91782  1.0000
  C   C735      1.0  0.33665  0.50307  0.92561  1.0000
  C   C736      1.0  0.33790  0.50169  0.94013  1.0000
  C   C737      1.0  0.33245  0.51413  0.94663  1.0000
  C   C738      1.0  0.32515  0.52768  0.93890  1.0000
  H   H859      1.0  0.32841  0.51754  0.90666  1.0000
  H   H860      1.0  0.34107  0.49367  0.92037  1.0000
  H   H861      1.0  0.33353  0.51321  0.95778  1.0000
  H   H862      1.0  0.32050  0.53705  0.94418  1.0000
  H   H863      1.0  0.16345  0.44751  0.84982  1.0000
  C   C739      1.0  0.26020  0.59978  0.89681  1.0000
  C   C740      1.0  0.24970  0.59872  0.88938  1.0000
  C   C741      1.0  0.24339  0.61120  0.87957  1.0000
  C   C742      1.0  0.23291  0.44645  0.95601  1.0000
  H   H864      1.0  0.13868  0.57200  0.85062  1.0000
  H   H865      1.0  0.26474  0.59033  0.90468  1.0000
  H   H866      1.0  0.24623  0.58843  0.89151  1.0000
  H   H867      1.0  0.18503  0.53282  0.92445  1.0000
  H   H868      1.0  0.25431  0.43952  0.94292  1.0000
  N   N49       1.0  0.18028  0.52199  0.98356  1.0000
  C   C743      1.0  0.25309  0.58526  0.97065  1.0000
  S   S229      1.0  0.40135  0.33796  0.97372  1.0000
  H   H869      1.0  0.15150  0.61196  0.85794  1.0000
  C   C744      1.0  0.11706  0.52039  0.90873  1.0000
  C   C745      1.0  0.11211  0.52546  0.92203  1.0000
  C   C746      1.0  0.11330  0.51545  0.93564  1.0000
  C   C747      1.0  0.11940  0.50035  0.93593  1.0000
  C   C748      1.0  0.12472  0.49538  0.92262  1.0000
  C   C749      1.0  0.12356  0.50536  0.90908  1.0000
  H   H870      1.0  0.10707  0.53708  0.92186  1.0000
  H   H871      1.0  0.10918  0.51936  0.94590  1.0000
  H   H872      1.0  0.12956  0.48373  0.92280  1.0000
  H   H873      1.0  0.12717  0.50124  0.89901  1.0000
  C   C750      1.0  0.15013  0.46098  0.88208  1.0000
  C   C751      1.0  0.14992  0.44752  0.89235  1.0000
  C   C752      1.0  0.16145  0.44107  0.90016  1.0000
  C   C753      1.0  0.17325  0.44804  0.89766  1.0000
  C   C754      1.0  0.17343  0.46149  0.88742  1.0000
  C   C755      1.0  0.16191  0.46792  0.87962  1.0000
  H   H874      1.0  0.14091  0.44203  0.89418  1.0000
  H   H875      1.0  0.16134  0.43060  0.90799  1.0000
  H   H876      1.0  0.18274  0.46661  0.88499  1.0000
  H   H877      1.0  0.16253  0.47784  0.87117  1.0000
  C   C756      1.0  0.17917  0.53717  0.84084  1.0000
  C   C757      1.0  0.19316  0.53719  0.84295  1.0000
  C   C758      1.0  0.19654  0.55051  0.84294  1.0000
  C   C759      1.0  0.18603  0.56394  0.84055  1.0000
  C   C760      1.0  0.17224  0.56395  0.83796  1.0000
  C   C761      1.0  0.16867  0.55057  0.83842  1.0000
  H   H878      1.0  0.20142  0.52687  0.84464  1.0000
  H   H879      1.0  0.20740  0.55041  0.84447  1.0000
  H   H880      1.0  0.16433  0.57435  0.83554  1.0000
  H   H881      1.0  0.15800  0.55067  0.83645  1.0000
  C   C762      1.0  0.08743  0.49622  0.81059  1.0000
  C   C763      1.0  0.08959  0.50958  0.80087  1.0000
  C   C764      1.0  0.09609  0.51907  0.80477  1.0000
  C   C765      1.0  0.10082  0.51512  0.81824  1.0000
  C   C766      1.0  0.09924  0.50148  0.82768  1.0000
  C   C767      1.0  0.09248  0.49212  0.82391  1.0000
  H   H882      1.0  0.08610  0.51269  0.79043  1.0000
  H   H883      1.0  0.09748  0.52951  0.79732  1.0000
  H   H884      1.0  0.10299  0.49830  0.83801  1.0000
  H   H885      1.0  0.09102  0.48171  0.83138  1.0000
  C   C768      1.0  0.27037  0.53033  0.94603  1.0000
  H   H886      1.0  0.12956  0.61531  0.87928  1.0000
  C   C769      1.0  0.16030  0.53330  0.90621  1.0000
  H   H887      1.0  0.21902  0.64784  0.91050  1.0000
  C   C770      1.0  0.46316  0.61159  0.96047  1.0000
  C   C771      1.0  0.23719  0.62360  0.95650  1.0000
  H   H888      1.0  0.39758  0.43279  0.88438  1.0000
  H   H889      1.0  0.03238  0.47830  0.74524  1.0000
  H   H890      1.0  0.09622  0.44310  0.75224  1.0000
  H   H891      1.0  0.19291  0.54928  0.93546  1.0000
  H   H892      1.0  0.03648  0.55719  0.80759  1.0000
  C   C772      1.0  0.00675  0.52016  0.81276  1.0000
  H   H893      1.0  0.41413  0.39084  0.87205  1.0000
  H   H894      1.0  0.08835  0.40538  0.76285  1.0000
  C   C773      1.0  0.33966  0.63682  0.94739  1.0000
  H   H895      1.0  0.35219  0.40061  0.95859  1.0000
  H   H896      1.0  0.25122  0.43532  0.98996  1.0000
  H   H897      1.0  0.31549  0.62080  0.91568  1.0000
  H   H898      1.0  0.14261  0.61843  0.88799  1.0000
  H   H899      1.0  0.15066  0.44806  0.96747  1.0000
  H   H900      1.0  0.29313  0.61328  0.98566  1.0000
  N   N50       1.0  0.28526  0.50366  0.94670  1.0000
  C   C774      1.0  0.30039  0.50100  0.93717  1.0000
  C   C775      1.0  0.28483  0.49180  0.96031  1.0000
  C   C776      1.0  0.27459  0.50230  0.93864  1.0000
  C   C777      1.0  0.28194  0.51830  0.95063  1.0000
  S   S230      1.0  0.44162  0.32512  0.94673  1.0000
  H   H901      1.0  0.30137  0.51006  0.92712  1.0000
  H   H902      1.0  0.30911  0.50035  0.94310  1.0000
  H   H903      1.0  0.30327  0.49035  0.93350  1.0000
  H   H904      1.0  0.29361  0.49080  0.96634  1.0000
  H   H905      1.0  0.28646  0.48070  0.95783  1.0000
  H   H906      1.0  0.27380  0.49399  0.96801  1.0000
  N   N51       1.0  0.37210  0.38301  0.95905  1.0000
  H   H907      1.0  0.27725  0.49100  0.93624  1.0000
  S   S231      1.0  0.12036  0.54330  0.98233  1.0000
  H   H908      1.0  0.16853  0.58140  0.88599  1.0000
  H   H909      1.0  0.32576  0.61535  0.88418  1.0000
  N   N52       1.0  0.23428  0.52745  0.91728  1.0000
  C   C778      1.0  0.22838  0.52248  0.93334  1.0000
  C   C779      1.0  0.22156  0.53617  0.91025  1.0000
  C   C780      1.0  0.24085  0.51401  0.91084  1.0000
  C   C781      1.0  0.24506  0.53678  0.91505  1.0000
  C   C782      1.0  0.24041  0.55011  0.92043  1.0000
  C   C783      1.0  0.26029  0.53308  0.90759  1.0000
  C   C784      1.0  0.25034  0.55907  0.91860  1.0000
  C   C785      1.0  0.27017  0.54205  0.90600  1.0000
  C   C786      1.0  0.26522  0.55500  0.91148  1.0000
  H   H910      1.0  0.22000  0.51571  0.93538  1.0000
  H   H911      1.0  0.23748  0.51566  0.93913  1.0000
  H   H912      1.0  0.22257  0.53192  0.93891  1.0000
  H   H913      1.0  0.21527  0.54600  0.91508  1.0000
  H   H914      1.0  0.21330  0.52947  0.91153  1.0000
  H   H915      1.0  0.22559  0.54020  0.89820  1.0000
  H   H916      1.0  0.24992  0.50637  0.91626  1.0000
  H   H917      1.0  0.23229  0.50760  0.91224  1.0000
  H   H918      1.0  0.24536  0.51700  0.89869  1.0000
  H   H919      1.0  0.22899  0.55378  0.92605  1.0000
  H   H920      1.0  0.26484  0.52338  0.90281  1.0000
  H   H921      1.0  0.24647  0.56919  0.92283  1.0000
  H   H922      1.0  0.28178  0.53907  0.90042  1.0000
  H   H923      1.0  0.27298  0.56187  0.91020  1.0000
  N   N53       1.0  0.16796  0.45795  0.95188  1.0000
  C   C787      1.0  0.17357  0.47163  0.94882  1.0000
  C   C788      1.0  0.16246  0.45825  0.93868  1.0000
  C   C789      1.0  0.15497  0.45834  0.96459  1.0000
  C   C790      1.0  0.17996  0.44479  0.95554  1.0000
  C   C791      1.0  0.18577  0.43359  0.94708  1.0000
  C   C792      1.0  0.18622  0.44287  0.96798  1.0000
  H   H924      1.0  0.06701  0.53722  0.79694  1.0000
  C   C793      1.0  0.19758  0.43057  0.97164  1.0000
  H   H925      1.0  0.32913  0.57775  0.97283  1.0000
  H   H926      1.0  0.17712  0.47286  0.95846  1.0000
  H   H927      1.0  0.18345  0.47161  0.93942  1.0000
  H   H928      1.0  0.16487  0.48179  0.94601  1.0000
  H   H929      1.0  0.15334  0.46821  0.93639  1.0000
  H   H930      1.0  0.15775  0.44842  0.94026  1.0000
  H   H931      1.0  0.17154  0.45858  0.92851  1.0000
  H   H932      1.0  0.07848  0.53779  0.74251  1.0000
  C   C794      1.0  0.46926  0.60345  0.98514  1.0000
  H   H933      1.0  0.15773  0.45946  0.97469  1.0000
  H   H934      1.0  0.18162  0.43391  0.93759  1.0000
  H   H935      1.0  0.18233  0.45088  0.97500  1.0000
  C   C795      1.0  0.38060  0.35929  0.93046  1.0000
  C   C796      1.0  0.42591  0.65417  0.95813  1.0000
  Fe  Fe117     1.0  0.48977  0.65434  0.94511  1.0000
  N   N54       1.0  0.44129  0.38293  0.88186  1.0000
  C   C797      1.0  0.43861  0.37218  0.87480  1.0000
  C   C798      1.0  0.45562  0.38699  0.87343  1.0000
  C   C799      1.0  0.44296  0.37510  0.89711  1.0000
  C   C800      1.0  0.42919  0.39653  0.88235  1.0000
  C   C801      1.0  0.41613  0.39893  0.87675  1.0000
  C   C802      1.0  0.43032  0.40795  0.88851  1.0000
  S   S232      1.0  0.38266  0.65476  0.93942  1.0000
  C   C803      1.0  0.24663  0.43796  0.98020  1.0000
  H   H936      1.0  0.31364  0.51737  0.98154  1.0000
  H   H937      1.0  0.44784  0.36202  0.87480  1.0000
  H   H938      1.0  0.36025  0.39958  0.93392  1.0000
  H   H939      1.0  0.30747  0.65414  0.88651  1.0000
  H   H940      1.0  0.45458  0.39369  0.86215  1.0000
  C   C804      1.0  0.31941  0.58673  0.96998  1.0000
  C   C805      1.0  0.34614  0.65620  0.91112  1.0000
  H   H941      1.0  0.43278  0.37099  0.90353  1.0000
  H   H942      1.0  0.30083  0.44176  0.97610  1.0000
  H   H943      1.0  0.44499  0.38220  0.90346  1.0000
  H   H944      1.0  0.36380  0.40176  0.96978  1.0000
  H   H945      1.0  0.43970  0.40680  0.89336  1.0000
  H   H946      1.0  0.30967  0.63938  0.87758  1.0000
  C   C806      1.0  0.45117  0.65497  0.95805  1.0000
  H   H947      1.0  0.45997  0.65268  0.96394  1.0000
  C   C807      1.0  0.19734  0.42149  0.95065  1.0000
  H   H948      1.0  0.01408  0.47491  0.75277  1.0000
  H   H949      1.0  0.28857  0.41246  0.95367  1.0000
  H   H950      1.0  0.16177  0.51471  0.88797  1.0000
  C   C808      1.0  0.18428  0.52357  0.89142  1.0000
  H   H951      1.0  0.27507  0.51020  0.92776  1.0000
  H   H952      1.0  0.16790  0.59745  0.86090  1.0000
  H   H953      1.0  0.19539  0.64291  0.92810  1.0000
  C   C809      1.0  0.45589  0.62084  0.93607  1.0000
  C   C810      1.0  0.00887  0.44360  0.79520  1.0000
  H   H954      1.0  0.25745  0.58196  0.96010  1.0000
  S   S233      1.0  0.28201  0.57672  0.97473  1.0000
  H   H955      1.0  0.07854  0.50862  0.90844  1.0000
  H   H956      1.0  0.45939  0.39358  0.87905  1.0000
  C   C811      1.0  0.31577  0.64463  0.88239  1.0000
  H   H957      1.0  0.19907  0.46751  0.98933  1.0000
  C   C812      1.0  0.29060  0.52092  0.95920  1.0000
  N   N55       1.0  0.19796  0.47710  0.84126  1.0000
  C   C813      1.0  0.21422  0.47349  0.83465  1.0000
  C   C814      1.0  0.19042  0.48729  0.82944  1.0000
  C   C815      1.0  0.19556  0.48520  0.85313  1.0000
  C   C816      1.0  0.19232  0.46335  0.84774  1.0000
  C   C817      1.0  0.17921  0.46137  0.84484  1.0000
  C   C818      1.0  0.19949  0.45176  0.85799  1.0000
  H   H958      1.0  0.21664  0.46659  0.82629  1.0000
  H   H959      1.0  0.21856  0.48371  0.82917  1.0000
  H   H960      1.0  0.22106  0.46748  0.84307  1.0000
  H   H961      1.0  0.19151  0.48177  0.82028  1.0000
  H   H962      1.0  0.19521  0.49733  0.82453  1.0000
  H   H963      1.0  0.17835  0.49167  0.83385  1.0000
  H   H964      1.0  0.20118  0.47839  0.86227  1.0000
  H   H965      1.0  0.20006  0.49545  0.84885  1.0000
  H   H966      1.0  0.18346  0.48868  0.85801  1.0000
  H   H967      1.0  0.17266  0.46973  0.83765  1.0000
  H   H968      1.0  0.20909  0.45273  0.86129  1.0000
  C   C819      1.0  0.15534  0.54642  0.91201  1.0000
  H   H969      1.0  0.09695  0.50774  0.89699  1.0000
  H   H970      1.0  0.48552  0.60211  0.96512  1.0000
  C   C820      1.0  0.12897  0.56610  0.87373  1.0000
  C   C821      1.0  0.18115  0.43737  0.86168  1.0000
  H   H971      1.0  0.18405  0.51196  0.89741  1.0000
  H   H972      1.0  0.21321  0.61182  0.90883  1.0000
  H   H973      1.0  0.19120  0.52306  0.88005  1.0000
  C   C822      1.0  0.37254  0.37846  0.94533  1.0000
  H   H974      1.0  0.03530  0.50891  0.83058  1.0000
  H   H975      1.0  0.29203  0.60184  0.97443  1.0000
  C   C823      1.0  0.26735  0.54385  0.95032  1.0000
  H   H976      1.0  0.32999  0.49297  0.98080  1.0000
  Fe  Fe118     1.0  0.29140  0.58039  0.95019  1.0000
  C   C824      1.0  0.26446  0.61326  0.89429  1.0000
  Fe  Fe119     1.0  0.31839  0.59085  0.92925  1.0000
  C   C825      1.0  0.32583  0.62219  0.94128  1.0000
  C   C826      1.0  0.37409  0.36914  0.91915  1.0000
  H   H977      1.0  0.30308  0.61554  0.96675  1.0000
  C   C827      1.0  0.26766  0.48626  0.87661  1.0000
  H   H978      1.0  0.14970  0.53265  0.88361  1.0000
  H   H979      1.0  0.19025  0.52805  0.89711  1.0000
  C   C828      1.0  0.09467  0.41434  0.75938  1.0000
  H   H980      1.0  0.30595  0.47728  0.88668  1.0000
  H   H981      1.0  0.25821  0.55278  0.94708  1.0000
  H   H982      1.0  0.47451  0.63390  0.94274  1.0000
  N   N56       1.0  0.04645  0.53371  0.81244  1.0000
  H   H983      1.0  0.21584  0.63753  0.89889  1.0000
  C   C829      1.0  0.30664  0.49859  0.88819  1.0000
  H   H984      1.0  0.05927  0.51219  0.82094  1.0000
  S   S234      1.0  0.04139  0.54172  0.76404  1.0000
  H   H985      1.0  0.13151  0.60523  0.89764  1.0000
  C   C830      1.0  0.24544  0.61997  0.94307  1.0000
  C   C831      1.0  0.16161  0.52662  0.88317  1.0000
  H   H986      1.0  0.26249  0.47917  0.87294  1.0000
  H   H987      1.0  0.26587  0.48314  0.88888  1.0000
  H   H988      1.0  0.27899  0.50032  0.84965  1.0000
  H   H989      1.0  0.28145  0.48148  0.84907  1.0000
  N   N57       1.0  0.16906  0.53296  0.89092  1.0000
  H   H990      1.0  0.36324  0.61034  0.92924  1.0000
  C   C832      1.0  0.21813  0.61140  0.91828  1.0000
  H   H991      1.0  0.23029  0.60668  0.91503  1.0000
  H   H992      1.0  0.21348  0.60335  0.92798  1.0000
  H   H993      1.0  0.19341  0.63282  0.91590  1.0000
  H   H994      1.0  0.45247  0.36522  0.89706  1.0000
  H   H995      1.0  0.19935  0.43052  0.87298  1.0000
  Fe  Fe120     1.0  0.05019  0.51715  0.76691  1.0000
  C   C833      1.0  0.28552  0.48897  0.85336  1.0000
  H   H996      1.0  0.16723  0.52722  0.87128  1.0000
  H   H997      1.0  0.17704  0.55298  0.88645  1.0000
  H   H998      1.0  0.25287  0.51042  0.98088  1.0000
  H   H999      1.0  0.48973  0.61800  0.94290  1.0000
  H   H1000     1.0  0.23031  0.59176  0.96802  1.0000
  H   H1001     1.0  0.06581  0.52729  0.82239  1.0000
  H   H1002     1.0  0.05896  0.52372  0.79394  1.0000
  C   C834      1.0  0.17074  0.54782  0.88182  1.0000
  H   H1003     1.0  0.26118  0.49780  0.87380  1.0000
  H   H1004     1.0  0.29745  0.48864  0.84776  1.0000
  H   H1005     1.0  0.28626  0.46167  0.86938  1.0000
  H   H1006     1.0  0.30199  0.63749  0.91070  1.0000
  C   C835      1.0  0.22100  0.63657  0.90833  1.0000
  C   C836      1.0  0.19854  0.63175  0.92537  1.0000
  H   H1007     1.0  0.23320  0.63281  0.90434  1.0000
  C   C837      1.0  0.04221  0.44286  0.75957  1.0000
  H   H1008     1.0  0.44747  0.61394  0.93898  1.0000
  C   C838      1.0  0.23766  0.59073  0.97519  1.0000
  H   H1009     1.0  0.27293  0.55611  0.96295  1.0000
  N   N58       1.0  0.28380  0.48468  0.86971  1.0000
  H   H1010     1.0  0.15971  0.55536  0.88077  1.0000
  H   H1011     1.0  0.17713  0.54719  0.87035  1.0000
  H   H1012     1.0  0.19314  0.62401  0.93487  1.0000
  H   H1013     1.0  0.20389  0.51311  0.98203  1.0000
  N   N59       1.0  0.21503  0.62623  0.92179  1.0000
  C   C839      1.0  0.29114  0.46870  0.87344  1.0000
  C   C840      1.0  0.47370  0.60540  0.96973  1.0000
  C   C841      1.0  0.14698  0.54635  0.92647  1.0000
  C   C842      1.0  0.32401  0.60394  0.98252  1.0000
  H   H1014     1.0  0.13222  0.58042  0.90094  1.0000
  N   N60       1.0  0.14958  0.59808  0.87998  1.0000
  C   C843      1.0  0.28998  0.49447  0.87486  1.0000
  H   H1015     1.0  0.28964  0.46444  0.88561  1.0000
  H   H1016     1.0  0.30333  0.46665  0.86842  1.0000
  C   C844      1.0  0.07591  0.49072  0.86461  1.0000
  H   H1017     1.0  0.35365  0.62792  0.89379  1.0000
  H   H1018     1.0  0.15077  0.58985  0.85346  1.0000
  C   C845      1.0  0.15658  0.52017  0.91587  1.0000
  C   C846      1.0  0.13394  0.57890  0.88979  1.0000
  S   S235      1.0  0.07463  0.50719  0.76573  1.0000
  H   H1019     1.0  0.31513  0.49409  0.89482  1.0000
  H   H1020     1.0  0.16009  0.50972  0.91234  1.0000
  H   H1021     1.0  0.03431  0.54870  0.82694  1.0000
  H   H1022     1.0  0.14338  0.55644  0.93073  1.0000
  H   H1023     1.0  0.29205  0.43765  0.95289  1.0000
  C   C847      1.0  0.28457  0.51009  0.87152  1.0000
  C   C848      1.0  0.14326  0.53335  0.93553  1.0000
  S   S236      1.0  0.04277  0.50283  0.78894  1.0000
  C   C849      1.0  0.14811  0.52027  0.93025  1.0000
  C   C850      1.0  0.30147  0.43719  0.98756  1.0000
  H   H1024     1.0  0.01258  0.50610  0.78407  1.0000
  H   H1025     1.0  0.27599  0.51512  0.86516  1.0000
  H   H1026     1.0  0.12076  0.56219  0.89727  1.0000
  C   C851      1.0  0.23130  0.44434  0.98195  1.0000
  C   C852      1.0  0.28739  0.53446  0.96349  1.0000
  H   H1027     1.0  0.02224  0.50593  0.74152  1.0000
  H   H1028     1.0  0.13664  0.53344  0.94667  1.0000
  C   C853      1.0  0.30117  0.51387  0.88461  1.0000
  H   H1029     1.0  0.36359  0.63084  0.94028  1.0000
  H   H1030     1.0  0.42034  0.32647  0.92786  1.0000
  C   C854      1.0  0.22237  0.62519  0.93393  1.0000
  N   N61       1.0  0.27198  0.42951  0.96373  1.0000
  C   C855      1.0  0.33922  0.61363  0.93474  1.0000
  S   S237      1.0  0.04724  0.50274  0.75360  1.0000
  C   C856      1.0  0.06749  0.43955  0.76234  1.0000
  C   C857      1.0  0.29012  0.51961  0.87629  1.0000
  H   H1031     1.0  0.14516  0.51016  0.93731  1.0000
  H   H1032     1.0  0.30553  0.52125  0.88826  1.0000
  H   H1033     1.0  0.28578  0.53151  0.87347  1.0000
  C   C858      1.0  0.24766  0.52204  0.97996  1.0000
  H   H1034     1.0  0.30475  0.62224  0.90244  1.0000
  H   H1035     1.0  0.08057  0.46819  0.91626  1.0000
  H   H1036     1.0  0.09427  0.50096  0.91669  1.0000
  C   C859      1.0  0.47921  0.62331  0.93888  1.0000
  C   C860      1.0  0.27652  0.41806  0.95461  1.0000
  H   H1037     1.0  0.21526  0.62995  0.96966  1.0000
  H   H1038     1.0  0.24509  0.61763  0.92183  1.0000
  C   C861      1.0  0.36589  0.38819  0.93361  1.0000
  H   H1039     1.0  0.10744  0.46607  0.90437  1.0000
  H   H1040     1.0  0.06463  0.50372  0.89619  1.0000
  S   S238      1.0  0.33938  0.59872  0.92715  1.0000
  H   H1041     1.0  0.07233  0.49197  0.85445  1.0000
  C   C862      1.0  0.02868  0.51606  0.82278  1.0000
  C   C863      1.0  0.12730  0.56848  0.88784  1.0000
  H   H1042     1.0  0.21272  0.45390  0.97110  1.0000
  C   C864      1.0  0.13740  0.57397  0.86157  1.0000
  H   H1043     1.0  0.36959  0.40653  0.95009  1.0000
  H   H1044     1.0  0.09619  0.47474  0.85875  1.0000
  H   H1045     1.0  0.29995  0.51250  0.96258  1.0000
  N   N62       1.0  0.32272  0.63388  0.89430  1.0000
  H   H1046     1.0  0.41998  0.42925  0.89430  1.0000
  C   C865      1.0  0.35283  0.61687  0.93434  1.0000
  H   H1047     1.0  0.16564  0.59829  0.89202  1.0000
  H   H1048     1.0  0.08399  0.47803  0.92808  1.0000
  H   H1049     1.0  0.10972  0.47744  0.91505  1.0000
  H   H1050     1.0  0.15389  0.58574  0.90155  1.0000
  C   C866      1.0  0.40650  0.42295  0.88344  1.0000
  C   C867      1.0  0.13500  0.56252  0.98554  1.0000
  C   C868      1.0  0.06303  0.42969  0.74362  1.0000
  H   H1051     1.0  0.27514  0.42278  0.94302  1.0000
  H   H1052     1.0  0.07465  0.44145  0.76832  1.0000
  C   C869      1.0  0.35415  0.64457  0.90408  1.0000
  C   C870      1.0  0.15977  0.59054  0.89033  1.0000
  C   C871      1.0  0.20324  0.41998  0.96290  1.0000
  C   C872      1.0  0.24802  0.62444  0.87688  1.0000
  H   H1053     1.0  0.24329  0.63408  0.86928  1.0000
  C   C873      1.0  0.08054  0.47940  0.91748  1.0000
  C   C874      1.0  0.10619  0.47782  0.90478  1.0000
  S   S239      1.0  0.29513  0.60286  0.93778  1.0000
  H   H1054     1.0  0.20219  0.63154  0.95071  1.0000
  C   C875      1.0  0.00522  0.48789  0.78145  1.0000
  N   N63       1.0  0.08979  0.42562  0.74662  1.0000
  H   H1055     1.0  0.39407  0.36971  0.96178  1.0000
  H   H1056     1.0  0.26174  0.63587  0.88207  1.0000
  C   C876      1.0  0.06715  0.49880  0.87523  1.0000
  C   C877      1.0  0.14424  0.58430  0.86339  1.0000
  C   C878      1.0  0.14264  0.58714  0.87761  1.0000
  C   C879      1.0  0.25559  0.43561  0.96615  1.0000
  H   H1057     1.0  0.01293  0.50188  0.83024  1.0000
  H   H1058     1.0  0.38771  0.38508  0.97063  1.0000
  H   H1059     1.0  0.16376  0.61356  0.86832  1.0000
  C   C880      1.0  0.36672  0.38354  0.92074  1.0000
  C   C881      1.0  0.22448  0.44857  0.96987  1.0000
  C   C882      1.0  0.07190  0.49734  0.88823  1.0000
  H   H1060     1.0  0.06880  0.48595  0.91870  1.0000
  H   H1061     1.0  0.11435  0.48266  0.89526  1.0000
  H   H1062     1.0  0.05665  0.50628  0.87334  1.0000
  C   C883      1.0  0.08576  0.48787  0.89088  1.0000
  C   C884      1.0  0.21426  0.62854  0.94789  1.0000
  H   H1063     1.0  0.33780  0.61232  0.89656  1.0000
  S   S240      1.0  0.10360  0.50939  0.98701  1.0000
  H   H1064     1.0  0.19330  0.49975  0.98400  1.0000
  H   H1065     1.0  0.27732  0.45012  0.96265  1.0000
  C   C885      1.0  0.22165  0.62774  0.95894  1.0000
  C   C886      1.0  0.31977  0.49369  0.98919  1.0000
  S   S241      1.0  0.17385  0.59982  0.98851  1.0000
  H   H1066     1.0  0.31117  0.65716  0.90865  1.0000
  S   S242      1.0  0.27601  0.61612  0.90440  1.0000
  C   C887      1.0  0.23818  0.62070  0.93197  1.0000
  H   H1067     1.0  0.37482  0.36561  0.90911  1.0000
  N   N64       1.0  0.09065  0.48665  0.90465  1.0000
  C   C888      1.0  0.44786  0.61542  0.96764  1.0000
  C   C889      1.0  0.03286  0.52890  0.81279  1.0000
  C   C890      1.0  0.19301  0.50992  0.98754  1.0000
  H   H1068     1.0  0.47913  0.60026  0.92785  1.0000
  H   H1069     1.0  0.21219  0.41056  0.96563  1.0000
  H   H1070     1.0  0.04785  0.45103  0.77559  1.0000
  H   H1071     1.0  0.32291  0.59336  0.95871  1.0000
  C   C891      1.0  0.44354  0.61341  0.98306  1.0000
  H   H1072     1.0  0.15644  0.52529  0.98715  1.0000
  C   C892      1.0  0.00311  0.50210  0.78392  1.0000
  C   C893      1.0  0.23489  0.55228  0.97693  1.0000
  H   H1073     1.0  0.19144  0.53816  0.98504  1.0000
  H   H1074     1.0  0.43773  0.37706  0.86307  1.0000
  C   C894      1.0  0.34890  0.60959  0.97584  1.0000
  C   C895      1.0  0.33911  0.60183  0.97446  1.0000
  Fe  Fe121     1.0  0.19898  0.59373  0.98489  1.0000
  C   C896      1.0  0.18039  0.53507  0.98890  1.0000
  C   C897      1.0  0.03592  0.56704  0.74332  1.0000
  C   C898      1.0  0.41913  0.42093  0.88904  1.0000
  C   C899      1.0  0.27564  0.54579  0.95926  1.0000
  H   H1075     1.0  0.38640  0.34809  0.92922  1.0000
  H   H1076     1.0  0.46005  0.62254  0.92384  1.0000
  H   H1077     1.0  0.03605  0.57265  0.75165  1.0000
  C   C900      1.0  0.36408  0.39865  0.95932  1.0000
  H   H1078     1.0  0.39494  0.41350  0.87336  1.0000
  H   H1079     1.0  0.27588  0.44772  0.94536  1.0000
  H   H1080     1.0  0.36182  0.39130  0.91186  1.0000
  H   H1081     1.0  0.46792  0.59137  0.94442  1.0000
  Fe  Fe122     1.0  0.07093  0.49124  0.75443  1.0000
  C   C901      1.0  0.07346  0.43173  0.75064  1.0000
  H   H1082     1.0  0.29397  0.53628  0.97015  1.0000
  C   C902      1.0  0.26272  0.58388  0.97987  1.0000
  S   S243      1.0  0.32773  0.41872  0.97727  1.0000
  H   H1083     1.0  0.00360  0.53913  0.79496  1.0000
  C   C903      1.0  0.27969  0.44173  0.95580  1.0000
  H   H1084     1.0  0.00697  0.43468  0.77795  1.0000
  H   H1085     1.0  0.09289  0.41920  0.76918  1.0000
  H   H1086     1.0  0.25753  0.61637  0.94129  1.0000
  H   H1087     1.0  0.45011  0.63202  0.93848  1.0000
  C   C904      1.0  0.34675  0.63710  0.89872  1.0000
  H   H1088     1.0  0.34632  0.47227  0.98512  1.0000
  C   C905      1.0  0.38756  0.38138  0.96065  1.0000
  H   H1089     1.0  0.00455  0.50202  0.75048  1.0000
  C   C906      1.0  0.00147  0.45043  0.80709  1.0000
  H   H1090     1.0  0.38504  0.35578  0.95182  1.0000
  H   H1091     1.0  0.03029  0.44715  0.76296  1.0000
  H   H1092     1.0  0.31104  0.58108  0.96921  1.0000
  C   C907      1.0  0.00078  0.43936  0.78750  1.0000
  H   H1093     1.0  0.24280  0.62266  0.96525  1.0000
  H   H1094     1.0  0.23021  0.56406  0.97556  1.0000
  C   C908      1.0  0.32316  0.65331  0.90720  1.0000
  H   H1095     1.0  0.27154  0.41350  0.98443  1.0000
  H   H1096     1.0  0.48254  0.62611  0.92657  1.0000
  H   H1097     1.0  0.17172  0.54481  0.98509  1.0000
  H   H1098     1.0  0.32737  0.46850  0.97565  1.0000
  C   C909      1.0  0.23190  0.59541  0.98865  1.0000
  S   S244      1.0  0.33935  0.65086  0.95622  1.0000
  H   H1099     1.0  0.20176  0.41326  0.94380  1.0000
  H   H1100     1.0  0.14778  0.57703  0.98722  1.0000
  C   C910      1.0  0.33095  0.64128  0.90011  1.0000
  S   S245      1.0  0.16827  0.47605  0.98865  1.0000
  H   H1101     1.0  0.43181  0.61672  0.98821  1.0000
  C   C911      1.0  0.29982  0.60718  0.97684  1.0000
  C   C912      1.0  0.24349  0.54510  0.98765  1.0000
  H   H1102     1.0  0.35145  0.62621  0.98554  1.0000
  H   H1103     1.0  0.00693  0.56110  0.74684  1.0000
  C   C913      1.0  0.04764  0.43517  0.74811  1.0000
  C   C914      1.0  0.24921  0.52979  0.98966  1.0000
  C   C915      1.0  0.34399  0.61973  0.98507  1.0000
  H   H1104     1.0  0.10681  0.40907  0.75667  1.0000
  H   H1105     1.0  0.20205  0.42930  0.98128  1.0000
  H   H1106     1.0  0.33076  0.44960  0.98567  1.0000
  C   C916      1.0  0.31033  0.50775  0.98932  1.0000
  H   H1107     1.0  0.27567  0.43067  0.98460  1.0000
  H   H1108     1.0  0.44818  0.32632  0.98257  1.0000
  Fe  Fe123     1.0  0.14431  0.48845  0.99065  1.0000
  N   N65       1.0  0.45039  0.87946  0.20388  1.0000
  S   S246      1.0  0.48487  0.72822  0.04243  1.0000
  Fe  Fe124     1.0  0.45497  0.84551  0.03391  1.0000
  S   S247      1.0  0.47342  0.84901  0.04201  1.0000
  S   S248      1.0  0.43901  0.86560  0.02435  1.0000
  Fe  Fe125     1.0  0.46175  0.81240  0.04534  1.0000
  S   S249      1.0  0.48061  0.81292  0.05487  1.0000
  S   S250      1.0  0.45829  0.78977  0.04642  1.0000
  Fe  Fe126     1.0  0.46578  0.83316  0.06277  1.0000
  S   S251      1.0  0.46382  0.83647  0.08583  1.0000
  H   H1109     1.0  0.38420  0.82360  0.01936  1.0000
  H   H1110     1.0  0.43946  0.88122  0.15873  1.0000
  S   S252      1.0  0.44606  0.83109  0.05540  1.0000
  S   S253      1.0  0.46925  0.82668  0.02327  1.0000
  Fe  Fe127     1.0  0.46236  0.91350  0.13003  1.0000
  S   S254      1.0  0.47559  0.91473  0.14549  1.0000
  S   S255      1.0  0.43829  0.92491  0.13045  1.0000
  Fe  Fe128     1.0  0.48830  0.89418  0.11296  1.0000
  C   C917      1.0  0.47060  0.93644  0.18264  1.0000
  H   H1111     1.0  0.44853  0.67140  0.02290  1.0000
  H   H1112     1.0  0.47539  0.92528  0.18889  1.0000
  H   H1113     1.0  0.49539  0.73733  0.07392  1.0000
  H   H1114     1.0  0.42801  0.95344  0.17107  1.0000
  H   H1115     1.0  0.46493  0.96332  0.10863  1.0000
  S   S256      1.0  0.46993  0.88887  0.13238  1.0000
  S   S257      1.0  0.47965  0.91897  0.10955  1.0000
  H   H1116     1.0  0.34105  0.73377  0.00906  1.0000
  C   C918      1.0  0.43513  0.88195  0.17025  1.0000
  H   H1117     1.0  0.49828  0.92386  0.17046  1.0000
  Fe  Fe129     1.0  0.40639  0.75996  0.01880  1.0000
  S   S258      1.0  0.42892  0.74540  0.01293  1.0000
  S   S259      1.0  0.40410  0.78187  0.02489  1.0000
  Fe  Fe130     1.0  0.39096  0.73906  0.01229  1.0000
  S   S260      1.0  0.41232  0.72295  0.00570  1.0000
  C   C919      1.0  0.38968  0.83179  0.01994  1.0000
  Fe  Fe131     1.0  0.41824  0.72633  0.02535  1.0000
  S   S261      1.0  0.42907  0.70701  0.04101  1.0000
  C   C920      1.0  0.40827  0.68470  0.01100  1.0000
  S   S262      1.0  0.49539  0.88370  0.09296  1.0000
  S   S263      1.0  0.39618  0.74102  0.03306  1.0000
  H   H1118     1.0  0.45679  0.87774  0.17456  1.0000
  C   C921      1.0  0.44588  0.88999  0.05189  1.0000
  C   C922      1.0  0.49330  0.93479  0.16400  1.0000
  H   H1119     1.0  0.44093  0.73330  0.06391  1.0000
  S   S264      1.0  0.41075  0.91839  0.23278  1.0000
  H   H1120     1.0  0.48306  0.95152  0.19313  1.0000
  H   H1121     1.0  0.41067  0.99025  0.15335  1.0000
  C   C923      1.0  0.40323  0.85240  0.02373  1.0000
  H   H1122     1.0  0.44771  0.95409  0.13095  1.0000
  S   S265      1.0  0.39795  0.92337  0.19489  1.0000
  H   H1123     1.0  0.42936  0.91945  0.08402  1.0000
  H   H1124     1.0  0.44409  0.96140  0.16348  1.0000
  S   S266      1.0  0.39834  0.95257  0.21553  1.0000
  C   C924      1.0  0.46105  0.86482  0.20401  1.0000
  H   H1125     1.0  0.46794  0.91541  0.06207  1.0000
  H   H1126     1.0  0.40950  0.97291  0.13927  1.0000
  H   H1127     1.0  0.43571  0.89135  0.22045  1.0000
  H   H1128     1.0  0.48600  0.90031  0.21631  1.0000
  H   H1129     1.0  0.45160  0.90989  0.05172  1.0000
  H   H1130     1.0  0.49863  0.95362  0.17788  1.0000
  H   H1131     1.0  0.43642  0.87162  0.22481  1.0000
  H   H1132     1.0  0.48593  0.95592  0.14298  1.0000
  H   H1133     1.0  0.41212  0.88722  0.16849  1.0000
  Fe  Fe132     1.0  0.40321  0.94115  0.23801  1.0000
  H   H1134     1.0  0.45388  0.90945  0.10204  1.0000
  H   H1135     1.0  0.49483  0.97671  0.20736  1.0000
  C   C925      1.0  0.44583  0.97350  0.21365  1.0000
  C   C926      1.0  0.45982  0.98416  0.16611  1.0000
  C   C927      1.0  0.43765  0.74322  0.06825  1.0000
  C   C928      1.0  0.42722  0.92374  0.14846  1.0000
  C   C929      1.0  0.43381  0.91926  0.16079  1.0000
  C   C930      1.0  0.42486  0.91929  0.17504  1.0000
  C   C931      1.0  0.40928  0.92352  0.17707  1.0000
  C   C932      1.0  0.40266  0.92761  0.16478  1.0000
  C   C933      1.0  0.41162  0.92788  0.15048  1.0000
  H   H1136     1.0  0.44576  0.91565  0.15942  1.0000
  H   H1137     1.0  0.42998  0.91536  0.18452  1.0000
  H   H1138     1.0  0.39060  0.93074  0.16631  1.0000
  H   H1139     1.0  0.40646  0.93129  0.14099  1.0000
  H   H1140     1.0  0.44634  0.89270  0.04005  1.0000
  C   C934      1.0  0.44390  0.85881  0.99675  1.0000
  C   C935      1.0  0.47306  0.84921  0.08785  1.0000
  C   C936      1.0  0.47065  0.85264  0.10177  1.0000
  C   C937      1.0  0.47758  0.86300  0.10359  1.0000
  C   C938      1.0  0.48700  0.87002  0.09148  1.0000
  N   N66       1.0  0.48245  0.94443  0.17375  1.0000
  C   C939      1.0  0.48259  0.85612  0.07580  1.0000
  H   H1141     1.0  0.46336  0.84727  0.11117  1.0000
  H   H1142     1.0  0.47566  0.86551  0.11437  1.0000
  H   H1143     1.0  0.49617  0.94442  0.09841  1.0000
  H   H1144     1.0  0.49245  0.96934  0.08174  1.0000
  C   C940      1.0  0.44321  0.78798  0.04022  1.0000
  C   C941      1.0  0.43118  0.79993  0.03763  1.0000
  C   C942      1.0  0.41919  0.79792  0.03302  1.0000
  C   C943      1.0  0.41919  0.78402  0.03092  1.0000
  C   C944      1.0  0.43125  0.77212  0.03352  1.0000
  C   C945      1.0  0.44325  0.77413  0.03803  1.0000
  H   H1145     1.0  0.43104  0.81066  0.03931  1.0000
  H   H1146     1.0  0.40988  0.80715  0.03117  1.0000
  H   H1147     1.0  0.43139  0.76130  0.03220  1.0000
  H   H1148     1.0  0.45262  0.76489  0.03980  1.0000
  C   C946      1.0  0.47091  0.72021  0.04148  1.0000
  C   C947      1.0  0.46384  0.71156  0.05425  1.0000
  C   C948      1.0  0.45156  0.70645  0.05389  1.0000
  C   C949      1.0  0.44636  0.71010  0.04078  1.0000
  C   C950      1.0  0.45411  0.71781  0.02782  1.0000
  C   C951      1.0  0.46625  0.72305  0.02820  1.0000
  H   H1149     1.0  0.46758  0.70921  0.06451  1.0000
  H   H1150     1.0  0.44569  0.70030  0.06390  1.0000
  H   H1151     1.0  0.45059  0.72004  0.01751  1.0000
  H   H1152     1.0  0.47156  0.72979  0.01836  1.0000
  H   H1153     1.0  0.44511  0.87852  0.09396  1.0000
  H   H1154     1.0  0.44115  0.94780  0.15544  1.0000
  C   C952      1.0  0.45036  0.69638  0.00250  1.0000
  S   S267      1.0  0.39906  0.75944  0.99860  1.0000
  H   H1155     1.0  0.44364  0.69806  0.01358  1.0000
  C   C953      1.0  0.44247  0.87661  0.06023  1.0000
  H   H1156     1.0  0.46816  0.86379  0.19289  1.0000
  H   H1157     1.0  0.46185  0.69718  0.00236  1.0000
  H   H1158     1.0  0.40862  0.86030  0.02525  1.0000
  C   C954      1.0  0.45553  0.66994  0.01182  1.0000
  C   C955      1.0  0.43640  0.86869  0.00622  1.0000
  H   H1159     1.0  0.45145  0.87846  0.22637  1.0000
  H   H1160     1.0  0.46004  0.89089  0.09943  1.0000
  H   H1161     1.0  0.45537  0.65889  0.01033  1.0000
  C   C956      1.0  0.41628  0.96403  0.14649  1.0000
  H   H1162     1.0  0.42586  0.98615  0.16286  1.0000
  H   H1163     1.0  0.40510  0.72766  0.06389  1.0000
  H   H1164     1.0  0.39913  0.81134  0.00135  1.0000
  H   H1165     1.0  0.42144  0.72196  0.07141  1.0000
  H   H1166     1.0  0.49351  0.67984  0.01007  1.0000
  C   C957      1.0  0.41964  0.76377  0.07757  1.0000
  S   S268      1.0  0.36822  0.73547  0.01401  1.0000
  Fe  Fe133     1.0  0.43339  0.92376  0.22557  1.0000
  C   C958      1.0  0.44613  0.76177  0.07455  1.0000
  H   H1167     1.0  0.45870  0.97266  0.22936  1.0000
  C   C959      1.0  0.47316  0.97782  0.14268  1.0000
  H   H1168     1.0  0.42151  0.73396  0.05329  1.0000
  C   C960      1.0  0.45721  0.98609  0.11064  1.0000
  H   H1169     1.0  0.42904  0.77965  0.08212  1.0000
  H   H1170     1.0  0.44140  0.92649  0.06718  1.0000
  H   H1171     1.0  0.40810  0.73234  0.09389  1.0000
  H   H1172     1.0  0.45136  0.90245  0.19786  1.0000
  H   H1173     1.0  0.39052  0.75233  0.06144  1.0000
  H   H1174     1.0  0.45525  0.80738  0.01238  1.0000
  C   C961      1.0  0.44927  0.74873  0.06947  1.0000
  H   H1175     1.0  0.46727  0.89014  0.20451  1.0000
  C   C962      1.0  0.49007  0.93300  0.22041  1.0000
  C   C963      1.0  0.46578  0.96989  0.17347  1.0000
  H   H1176     1.0  0.39496  0.76654  0.06698  1.0000
  C   C964      1.0  0.43706  0.98273  0.20368  1.0000
  C   C965      1.0  0.44861  0.89622  0.07413  1.0000
  H   H1177     1.0  0.40844  0.95927  0.15642  1.0000
  C   C966      1.0  0.45727  0.97103  0.11520  1.0000
  N   N67       1.0  0.40531  0.83257  0.99361  1.0000
  N   N68       1.0  0.42706  0.96984  0.15066  1.0000
  C   C967      1.0  0.44309  0.88022  0.21953  1.0000
  H   H1178     1.0  0.42199  0.95504  0.14027  1.0000
  C   C968      1.0  0.44206  0.87287  0.07538  1.0000
  S   S269      1.0  0.48829  0.87458  0.16719  1.0000
  C   C969      1.0  0.46849  0.91627  0.22686  1.0000
  C   C970      1.0  0.41472  0.73156  0.06476  1.0000
  C   C971      1.0  0.40046  0.83752  0.00786  1.0000
  H   H1179     1.0  0.46705  0.82496  0.99157  1.0000
  H   H1180     1.0  0.48155  0.76895  0.06180  1.0000
  C   C972      1.0  0.44888  0.89970  0.05869  1.0000
  C   C973      1.0  0.48312  0.91079  0.21974  1.0000
  H   H1181     1.0  0.45179  0.76556  0.00061  1.0000
  H   H1182     1.0  0.44646  0.78796  0.00759  1.0000
  C   C974      1.0  0.42243  0.75059  0.07226  1.0000
  H   H1183     1.0  0.37783  0.83164  0.04258  1.0000
  N   N69       1.0  0.45033  0.68195  0.99968  1.0000
  H   H1184     1.0  0.47101  0.91548  0.07962  1.0000
  H   H1185     1.0  0.40638  0.75980  0.05100  1.0000
  C   C975      1.0  0.46721  0.90917  0.07372  1.0000
  N   N70       1.0  0.45199  0.90665  0.08100  1.0000
  Fe  Fe134     1.0  0.48502  0.89062  0.14591  1.0000
  C   C976      1.0  0.47568  0.95916  0.16561  1.0000
  H   H1186     1.0  0.45197  0.84898  0.00042  1.0000
  S   S270      1.0  0.43157  0.93354  0.20202  1.0000
  S   S271      1.0  0.49869  0.73160  0.99780  1.0000
  H   H1187     1.0  0.45502  0.85564  0.20789  1.0000
  H   H1188     1.0  0.45515  0.76632  0.07498  1.0000
  S   S272      1.0  0.42848  0.97527  0.19444  1.0000
  H   H1189     1.0  0.46401  0.93487  0.17545  1.0000
  Fe  Fe135     1.0  0.49372  0.91805  0.12525  1.0000
  H   H1190     1.0  0.38996  0.84984  0.04589  1.0000
  C   C977      1.0  0.40095  0.74070  0.08663  1.0000
  H   H1191     1.0  0.40216  0.88982  0.19449  1.0000
  C   C978      1.0  0.43136  0.76930  0.07854  1.0000
  C   C979      1.0  0.41416  0.88664  0.19042  1.0000
  C   C980      1.0  0.40000  0.75638  0.06241  1.0000
  H   H1192     1.0  0.42365  0.81583  0.00083  1.0000
  H   H1193     1.0  0.41118  0.97638  0.16998  1.0000
  H   H1194     1.0  0.39582  0.75042  0.09194  1.0000
  Fe  Fe136     1.0  0.40817  0.93028  0.20970  1.0000
  H   H1195     1.0  0.46898  0.86292  0.21134  1.0000
  C   C981      1.0  0.44497  0.88002  0.17944  1.0000
  C   C982      1.0  0.39274  0.84650  0.03537  1.0000
  H   H1196     1.0  0.41522  0.85290  0.00154  1.0000
  H   H1197     1.0  0.40839  0.76998  0.08090  1.0000
  C   C983      1.0  0.47566  0.93813  0.22809  1.0000
  C   C984      1.0  0.41835  0.98121  0.15950  1.0000
  H   H1198     1.0  0.45391  0.93355  0.23768  1.0000
  H   H1199     1.0  0.46264  0.94242  0.19111  1.0000
  H   H1200     1.0  0.49212  0.77106  0.04329  1.0000
  H   H1201     1.0  0.46250  0.96726  0.18540  1.0000
  H   H1202     1.0  0.49724  0.93574  0.18903  1.0000
  C   C985      1.0  0.43499  0.68169  0.99921  1.0000
  H   H1203     1.0  0.46526  0.89113  0.18628  1.0000
  H   H1204     1.0  0.49856  0.80115  0.02712  1.0000
  C   C986      1.0  0.43969  0.88132  0.19448  1.0000
  C   C987      1.0  0.49063  0.94646  0.18387  1.0000
  C   C988      1.0  0.42390  0.88479  0.19970  1.0000
  C   C989      1.0  0.45149  0.90130  0.09716  1.0000
  H   H1205     1.0  0.48472  0.85347  0.06508  1.0000
  H   H1206     1.0  0.49935  0.80166  0.99886  1.0000
  C   C990      1.0  0.41974  0.88527  0.17574  1.0000
  C   C991      1.0  0.44747  0.96584  0.12813  1.0000
  H   H1207     1.0  0.44294  0.92901  0.08443  1.0000
  H   H1208     1.0  0.47604  0.98091  0.13069  1.0000
  C   C992      1.0  0.38593  0.83628  0.03346  1.0000
  H   H1209     1.0  0.47555  0.89843  0.07349  1.0000
  H   H1210     1.0  0.44027  0.89940  0.10342  1.0000
  C   C993      1.0  0.47893  0.96345  0.14992  1.0000
  N   N71       1.0  0.40984  0.74484  0.07148  1.0000
  H   H1211     1.0  0.39164  0.73584  0.08659  1.0000
  H   H1212     1.0  0.49260  0.75276  0.08219  1.0000
  Fe  Fe137     1.0  0.42202  0.95487  0.20948  1.0000
  H   H1213     1.0  0.44034  0.86902  0.05489  1.0000
  H   H1214     1.0  0.46080  0.74307  0.06595  1.0000
  C   C994      1.0  0.44096  0.92102  0.07903  1.0000
  C   C995      1.0  0.44516  0.88242  0.08229  1.0000
  H   H1215     1.0  0.48788  0.93235  0.15633  1.0000
  H   H1216     1.0  0.44795  0.96159  0.21522  1.0000
  H   H1217     1.0  0.43971  0.86227  0.08175  1.0000
  C   C996      1.0  0.45894  0.89129  0.19783  1.0000
  S   S273      1.0  0.42602  0.94567  0.23244  1.0000
  C   C997      1.0  0.45653  0.80648  0.00104  1.0000
  C   C998      1.0  0.43741  0.97562  0.13707  1.0000
  H   H1218     1.0  0.42016  0.88905  0.00868  1.0000
  H   H1219     1.0  0.49220  0.77811  0.07463  1.0000
  C   C999      1.0  0.42597  0.88139  0.00144  1.0000
  C   C1000     1.0  0.43551  0.95760  0.16051  1.0000
  C   C1001     1.0  0.49020  0.76284  0.05388  1.0000
  H   H1220     1.0  0.42469  0.68653  0.02121  1.0000
  Fe  Fe138     1.0  0.48692  0.82865  0.03357  1.0000
  H   H1221     1.0  0.41872  0.88656  0.21076  1.0000
  H   H1222     1.0  0.48504  0.75469  0.05189  1.0000
  H   H1223     1.0  0.47279  0.94860  0.23146  1.0000
  C   C1002     1.0  0.34993  0.72731  0.00208  1.0000
  H   H1224     1.0  0.39919  0.68711  0.02030  1.0000
  C   C1003     1.0  0.45149  0.79540  0.99820  1.0000
  C   C1004     1.0  0.45209  0.97971  0.22149  1.0000
  H   H1225     1.0  0.49690  0.87170  0.06821  1.0000
  C   C1005     1.0  0.40700  0.84805  0.01018  1.0000
  H   H1226     1.0  0.47522  0.98458  0.19195  1.0000
  C   C1006     1.0  0.48955  0.86643  0.07762  1.0000
  C   C1007     1.0  0.49683  0.98812  0.20286  1.0000
  H   H1227     1.0  0.42830  0.78321  0.99935  1.0000
  C   C1008     1.0  0.49833  0.95365  0.10126  1.0000
  H   H1228     1.0  0.38782  0.71592  0.99391  1.0000
  Fe  Fe139     1.0  0.42099  0.74334  0.99395  1.0000
  H   H1229     1.0  0.44569  0.70580  0.99412  1.0000
  C   C1009     1.0  0.49626  0.96774  0.09183  1.0000
  C   C1010     1.0  0.49905  0.97975  0.09545  1.0000
  H   H1230     1.0  0.38490  0.82662  0.99426  1.0000
  H   H1231     1.0  0.46724  0.66952  0.01220  1.0000
  H   H1232     1.0  0.39386  0.68218  0.99846  1.0000
  Fe  Fe140     1.0  0.49905  0.73507  0.01999  1.0000
  C   C1011     1.0  0.40523  0.68199  0.99870  1.0000
  C   C1012     1.0  0.39713  0.82179  0.99285  1.0000
  C   C1013     1.0  0.36481  0.72559  0.00269  1.0000
  C   C1014     1.0  0.42293  0.68441  0.01136  1.0000
  C   C1015     1.0  0.37627  0.71721  0.99357  1.0000
  C   C1016     1.0  0.46366  0.98818  0.15074  1.0000
  C   C1017     1.0  0.49393  0.91914  0.21655  1.0000
  H   H1233     1.0  0.48347  0.85021  0.99603  1.0000
  C   C1018     1.0  0.46490  0.92972  0.23140  1.0000
  S   S274      1.0  0.45449  0.90694  0.22892  1.0000
  H   H1234     1.0  0.46487  0.99008  0.10062  1.0000
  C   C1019     1.0  0.43753  0.99096  0.13201  1.0000
  C   C1020     1.0  0.34643  0.72135  0.99204  1.0000
  C   C1021     1.0  0.42143  0.82529  0.99141  1.0000
  H   H1235     1.0  0.42176  0.97881  0.24045  1.0000
  H   H1236     1.0  0.33487  0.72328  0.99132  1.0000
  H   H1237     1.0  0.49957  0.82541  0.99760  1.0000
  S   S275      1.0  0.10032  0.86306  0.41562  1.0000
  C   C1022     1.0  0.05394  0.69141  0.35783  1.0000
  H   H1238     1.0  0.04203  0.66104  0.47898  1.0000
  C   C1023     1.0  0.11519  0.82454  0.44160  1.0000
  S   S276      1.0  0.28971  0.95893  0.35889  1.0000
  C   C1024     1.0  0.19507  0.97047  0.40249  1.0000
  H   H1239     1.0  0.26041  0.88384  0.47911  1.0000
  C   C1025     1.0  0.41611  0.97075  0.36768  1.0000
  H   H1240     1.0  0.00860  0.71635  0.38049  1.0000
  C   C1026     1.0  0.03069  0.77345  0.27494  1.0000
  Fe  Fe141     1.0  0.07117  0.83178  0.40706  1.0000
  S   S277      1.0  0.09236  0.82732  0.41485  1.0000
  S   S278      1.0  0.06991  0.82815  0.38533  1.0000
  Fe  Fe142     1.0  0.05197  0.84216  0.43443  1.0000
  S   S279      1.0  0.06271  0.85434  0.41245  1.0000
  S   S280      1.0  0.05913  0.81990  0.42837  1.0000
  S   S281      1.0  0.14636  0.91588  0.43915  1.0000
  H   H1241     1.0  0.11324  0.86719  0.38457  1.0000
  H   H1242     1.0  0.08505  0.87136  0.37584  1.0000
  S   S282      1.0  0.17864  0.90393  0.40666  1.0000
  C   C1027     1.0  0.29466  0.94609  0.45862  1.0000
  H   H1243     1.0  0.39436  0.97912  0.24613  1.0000
  S   S283      1.0  0.35707  0.95835  0.41559  1.0000
  Fe  Fe143     1.0  0.00784  0.68290  0.35129  1.0000
  C   C1028     1.0  0.38106  0.95529  0.28438  1.0000
  H   H1244     1.0  0.03918  0.66712  0.30734  1.0000
  C   C1029     1.0  0.01817  0.83818  0.42756  1.0000
  Fe  Fe144     1.0  0.34839  0.96748  0.39464  1.0000
  S   S284      1.0  0.34925  0.95347  0.37900  1.0000
  C   C1030     1.0  0.00173  0.83043  0.36661  1.0000
  S   S285      1.0  0.39307  0.97207  0.40977  1.0000
  H   H1245     1.0  0.02037  0.79403  0.30703  1.0000
  H   H1246     1.0  0.12226  0.80164  0.47387  1.0000
  C   C1031     1.0  0.01059  0.78772  0.39247  1.0000
  C   C1032     1.0  0.22843  0.88902  0.38267  1.0000
  H   H1247     1.0  0.00193  0.72604  0.34048  1.0000
  Fe  Fe145     1.0  0.24210  0.94283  0.38497  1.0000
  S   S286      1.0  0.24370  0.93076  0.40813  1.0000
  S   S287      1.0  0.22226  0.94702  0.37494  1.0000
  Fe  Fe146     1.0  0.27304  0.94900  0.37755  1.0000
  S   S288      1.0  0.27758  0.93745  0.40003  1.0000
  C   C1033     1.0  0.06478  0.76691  0.47231  1.0000
  Fe  Fe147     1.0  0.26702  0.92028  0.39789  1.0000
  S   S289      1.0  0.27704  0.89629  0.40579  1.0000
  Fe  Fe148     1.0  0.25404  0.94891  0.40832  1.0000
  S   S290      1.0  0.24818  0.95741  0.42917  1.0000
  S   S291      1.0  0.26461  0.93071  0.37453  1.0000
  S   S292      1.0  0.25024  0.96210  0.38598  1.0000
  H   H1248     1.0  0.01681  0.79129  0.48591  1.0000
  H   H1249     1.0  0.13434  0.80230  0.45580  1.0000
  S   S293      1.0  0.38658  0.94626  0.25863  1.0000
  H   H1250     1.0  0.29945  0.87712  0.42150  1.0000
  N   N72       1.0  0.05889  0.68938  0.40371  1.0000
  H   H1251     1.0  0.21772  0.84289  0.47830  1.0000
  H   H1252     1.0  0.08405  0.85240  0.37875  1.0000
  C   C1034     1.0  0.24709  0.97645  0.42571  1.0000
  H   H1253     1.0  0.00093  0.81254  0.40252  1.0000
  H   H1254     1.0  0.17804  0.94989  0.41743  1.0000
  H   H1255     1.0  0.05351  0.77085  0.27634  1.0000
  H   H1256     1.0  0.04936  0.80709  0.40431  1.0000
  H   H1257     1.0  0.01834  0.77703  0.39039  1.0000
  H   H1258     1.0  0.05387  0.68930  0.43410  1.0000
  C   C1035     1.0  0.27250  0.90355  0.44646  1.0000
  H   H1259     1.0  0.24793  0.90517  0.37404  1.0000
  H   H1260     1.0  0.42006  0.94436  0.35325  1.0000
  Fe  Fe149     1.0  0.04420  0.74750  0.38067  1.0000
  S   S294      1.0  0.06648  0.73320  0.38356  1.0000
  S   S295      1.0  0.02504  0.74241  0.39928  1.0000
  Fe  Fe150     1.0  0.05708  0.76292  0.34972  1.0000
  S   S296      1.0  0.08041  0.74937  0.35020  1.0000
  S   S297      1.0  0.05356  0.78011  0.32917  1.0000
  Fe  Fe151     1.0  0.06912  0.73026  0.36060  1.0000
  S   S298      1.0  0.07437  0.70678  0.35755  1.0000
  Fe  Fe152     1.0  0.07501  0.75386  0.37310  1.0000
  S   S299      1.0  0.08992  0.75994  0.38393  1.0000
  S   S300      1.0  0.04625  0.74350  0.35824  1.0000
  S   S301      1.0  0.05228  0.76858  0.37203  1.0000
  C   C1036     1.0  0.03945  0.67443  0.44329  1.0000
  H   H1261     1.0  0.40758  0.93292  0.31509  1.0000
  C   C1037     1.0  0.02526  0.78991  0.34434  1.0000
  C   C1038     1.0  0.03657  0.79296  0.33195  1.0000
  C   C1039     1.0  0.03392  0.80587  0.32108  1.0000
  N   N73       1.0  0.16821  0.97060  0.40387  1.0000
  H   H1262     1.0  0.07503  0.69042  0.41524  1.0000
  H   H1263     1.0  0.02743  0.78011  0.35290  1.0000
  H   H1264     1.0  0.04277  0.80832  0.31161  1.0000
  C   C1040     1.0  0.24236  0.98372  0.43752  1.0000
  H   H1265     1.0  0.12178  0.82088  0.48415  1.0000
  C   C1041     1.0  0.04355  0.71138  0.33372  1.0000
  C   C1042     1.0  0.05470  0.71397  0.33908  1.0000
  C   C1043     1.0  0.06006  0.70388  0.35103  1.0000
  H   H1266     1.0  0.21800  0.89792  0.38361  1.0000
  H   H1267     1.0  0.04349  0.79914  0.45964  1.0000
  H   H1268     1.0  0.03990  0.71890  0.32412  1.0000
  H   H1269     1.0  0.05948  0.72354  0.33366  1.0000
  H   H1270     1.0  0.38813  0.91976  0.38166  1.0000
  C   C1044     1.0  0.06755  0.69778  0.40781  1.0000
  H   H1271     1.0  0.21058  0.97407  0.47417  1.0000
  H   H1272     1.0  0.02511  0.65893  0.45010  1.0000
  N   N74       1.0  0.25754  0.86280  0.47804  1.0000
  C   C1045     1.0  0.32727  0.96708  0.48812  1.0000
  H   H1273     1.0  0.37585  0.96364  0.30422  1.0000
  H   H1274     1.0  0.10981  0.83637  0.43772  1.0000
  C   C1046     1.0  0.01349  0.73991  0.32259  1.0000
  C   C1047     1.0  0.33004  0.91813  0.45439  1.0000
  H   H1275     1.0  0.03275  0.80862  0.47385  1.0000
  H   H1276     1.0  0.10001  0.82152  0.47832  1.0000
  C   C1048     1.0  0.02286  0.78846  0.29801  1.0000
  C   C1049     1.0  0.41067  0.95593  0.28265  1.0000
  C   C1050     1.0  0.40708  0.95097  0.27176  1.0000
  C   C1051     1.0  0.39218  0.95087  0.27252  1.0000
  C   C1052     1.0  0.24311  0.85498  0.44825  1.0000
  S   S302      1.0  0.18993  0.87028  0.47511  1.0000
  H   H1277     1.0  0.42213  0.95611  0.28201  1.0000
  H   H1278     1.0  0.41579  0.94733  0.26280  1.0000
  C   C1053     1.0  0.04440  0.71956  0.44037  1.0000
  C   C1054     1.0  0.20663  0.97771  0.40008  1.0000
  C   C1055     1.0  0.40706  0.96822  0.39428  1.0000
  C   C1056     1.0  0.42087  0.95901  0.39646  1.0000
  C   C1057     1.0  0.43218  0.95549  0.38432  1.0000
  H   H1279     1.0  0.03618  0.82860  0.37191  1.0000
  C   C1058     1.0  0.13045  0.98349  0.44312  1.0000
  C   C1059     1.0  0.01225  0.72153  0.36865  1.0000
  H   H1280     1.0  0.42276  0.95444  0.40759  1.0000
  H   H1281     1.0  0.44279  0.94825  0.38613  1.0000
  H   H1282     1.0  0.39420  0.98158  0.37809  1.0000
  C   C1060     1.0  0.33244  0.95571  0.37354  1.0000
  C   C1061     1.0  0.33311  0.95170  0.36036  1.0000
  C   C1062     1.0  0.31995  0.95310  0.35575  1.0000
  C   C1063     1.0  0.17087  0.96313  0.39147  1.0000
  H   H1283     1.0  0.43762  0.98921  0.34702  1.0000
  H   H1284     1.0  0.11613  0.79846  0.45930  1.0000
  H   H1285     1.0  0.34380  0.94760  0.35364  1.0000
  H   H1286     1.0  0.32055  0.95002  0.34552  1.0000
  H   H1287     1.0  0.26688  0.94414  0.46041  1.0000
  H   H1288     1.0  0.21117  0.95041  0.46679  1.0000
  H   H1289     1.0  0.02967  0.83267  0.42422  1.0000
  H   H1290     1.0  0.00997  0.82721  0.41563  1.0000
  H   H1291     1.0  0.26055  0.91217  0.42884  1.0000
  H   H1292     1.0  0.00754  0.77713  0.27578  1.0000
  Fe  Fe153     1.0  0.08307  0.84894  0.42228  1.0000
  C   C1064     1.0  0.33428  0.92908  0.45825  1.0000
  H   H1293     1.0  0.21194  0.98656  0.43979  1.0000
  C   C1065     1.0  0.05073  0.78500  0.41754  1.0000
  C   C1066     1.0  0.00387  0.82540  0.47125  1.0000
  H   H1294     1.0  0.44863  0.97879  0.36943  1.0000
  H   H1295     1.0  0.22533  0.87813  0.38538  1.0000
  H   H1296     1.0  0.03381  0.76759  0.26596  1.0000
  C   C1067     1.0  0.03715  0.69912  0.34074  1.0000
  H   H1297     1.0  0.02889  0.69465  0.47397  1.0000
  C   C1068     1.0  0.24018  0.98459  0.47543  1.0000
  C   C1069     1.0  0.04992  0.68096  0.41662  1.0000
  S   S303      1.0  0.02290  0.69631  0.33408  1.0000
  C   C1070     1.0  0.16800  0.95918  0.41789  1.0000
  C   C1071     1.0  0.19014  0.91656  0.39834  1.0000
  C   C1072     1.0  0.19200  0.92229  0.38308  1.0000
  C   C1073     1.0  0.20167  0.93188  0.37603  1.0000
  C   C1074     1.0  0.20975  0.93554  0.38416  1.0000
  C   C1075     1.0  0.20783  0.92991  0.39945  1.0000
  C   C1076     1.0  0.19797  0.92049  0.40655  1.0000
  H   H1298     1.0  0.18597  0.91926  0.37670  1.0000
  H   H1299     1.0  0.20310  0.93626  0.36420  1.0000
  H   H1300     1.0  0.21395  0.93277  0.40582  1.0000
  H   H1301     1.0  0.19684  0.91589  0.41825  1.0000
  C   C1077     1.0  0.12302  0.88138  0.43351  1.0000
  C   C1078     1.0  0.11806  0.87638  0.42358  1.0000
  H   H1302     1.0  0.13234  0.88677  0.42959  1.0000
  H   H1303     1.0  0.12363  0.87799  0.41201  1.0000
  C   C1079     1.0  0.07617  0.80931  0.38456  1.0000
  C   C1080     1.0  0.07355  0.80430  0.37330  1.0000
  C   C1081     1.0  0.07786  0.78915  0.37301  1.0000
  C   C1082     1.0  0.08495  0.77900  0.38388  1.0000
  C   C1083     1.0  0.08790  0.78408  0.39493  1.0000
  C   C1084     1.0  0.08334  0.79920  0.39540  1.0000
  H   H1304     1.0  0.06805  0.81209  0.36488  1.0000
  H   H1305     1.0  0.07587  0.78535  0.36424  1.0000
  H   H1306     1.0  0.09340  0.77626  0.40334  1.0000
  H   H1307     1.0  0.08536  0.80297  0.40416  1.0000
  N   N75       1.0  0.11610  0.82138  0.45741  1.0000
  C   C1085     1.0  0.02229  0.78726  0.41200  1.0000
  C   C1086     1.0  0.03201  0.66500  0.44089  1.0000
  H   H1308     1.0  0.02077  0.84531  0.38870  1.0000
  H   H1309     1.0  0.40475  0.91991  0.38665  1.0000
  C   C1087     1.0  0.00020  0.77646  0.41728  1.0000
  C   C1088     1.0  0.05070  0.73053  0.42974  1.0000
  C   C1089     1.0  0.14102  0.98282  0.45107  1.0000
  C   C1090     1.0  0.41794  0.93418  0.36163  1.0000
  H   H1310     1.0  0.06020  0.73360  0.43126  1.0000
  H   H1311     1.0  0.41712  0.93475  0.33524  1.0000
  C   C1091     1.0  0.23628  0.85115  0.47907  1.0000
  H   H1312     1.0  0.49562  0.93979  0.26082  1.0000
  H   H1313     1.0  0.26502  0.91103  0.45325  1.0000
  C   C1092     1.0  0.04364  0.77320  0.42347  1.0000
  C   C1093     1.0  0.48657  0.98890  0.34034  1.0000
  H   H1314     1.0  0.10248  0.87038  0.35047  1.0000
  C   C1094     1.0  0.03194  0.71583  0.43852  1.0000
  C   C1095     1.0  0.02606  0.72279  0.42584  1.0000
  C   C1096     1.0  0.03231  0.73382  0.41522  1.0000
  C   C1097     1.0  0.04466  0.73765  0.41716  1.0000
  C   C1098     1.0  0.29186  0.88441  0.42851  1.0000
  H   H1315     1.0  0.01677  0.71951  0.42422  1.0000
  H   H1316     1.0  0.04948  0.74626  0.40906  1.0000
  H   H1317     1.0  0.39686  0.94770  0.38080  1.0000
  C   C1099     1.0  0.01557  0.77903  0.28070  1.0000
  C   C1100     1.0  0.32361  0.92029  0.48456  1.0000
  N   N76       1.0  0.28825  0.94668  0.44596  1.0000
  H   H1318     1.0  0.21443  0.90440  0.48547  1.0000
  C   C1101     1.0  0.28180  0.96239  0.43977  1.0000
  C   C1102     1.0  0.27579  0.93884  0.45196  1.0000
  C   C1103     1.0  0.30009  0.94024  0.43433  1.0000
  C   C1104     1.0  0.31289  0.94633  0.42767  1.0000
  C   C1105     1.0  0.29916  0.92819  0.42894  1.0000
  C   C1106     1.0  0.32400  0.94071  0.41640  1.0000
  C   C1107     1.0  0.31026  0.92274  0.41756  1.0000
  C   C1108     1.0  0.32262  0.92905  0.41124  1.0000
  H   H1319     1.0  0.24059  0.97743  0.44879  1.0000
  H   H1320     1.0  0.07493  0.70315  0.39790  1.0000
  H   H1321     1.0  0.06349  0.75637  0.47144  1.0000
  H   H1322     1.0  0.29011  0.96939  0.43660  1.0000
  H   H1323     1.0  0.03370  0.78991  0.44605  1.0000
  H   H1324     1.0  0.27758  0.96331  0.42973  1.0000
  H   H1325     1.0  0.15837  0.95379  0.42059  1.0000
  C   C1109     1.0  0.01143  0.66471  0.31626  1.0000
  H   H1326     1.0  0.27019  0.93905  0.44314  1.0000
  H   H1327     1.0  0.31429  0.95565  0.43097  1.0000
  H   H1328     1.0  0.28982  0.92297  0.43307  1.0000
  H   H1329     1.0  0.33355  0.94569  0.41128  1.0000
  H   H1330     1.0  0.30905  0.91377  0.41342  1.0000
  H   H1331     1.0  0.33102  0.92509  0.40214  1.0000
  H   H1332     1.0  0.05487  0.70716  0.38494  1.0000
  C   C1110     1.0  0.12704  0.82838  0.47496  1.0000
  C   C1111     1.0  0.19104  0.98761  0.48430  1.0000
  Fe  Fe154     1.0  0.36947  0.97671  0.40704  1.0000
  S   S304      1.0  0.23640  0.95615  0.48355  1.0000
  C   C1112     1.0  0.26683  0.98888  0.33299  1.0000
  H   H1333     1.0  0.37004  0.97095  0.35376  1.0000
  H   H1334     1.0  0.31785  0.96431  0.39227  1.0000
  H   H1335     1.0  0.41417  0.97532  0.35665  1.0000
  H   H1336     1.0  0.20063  0.89746  0.47061  1.0000
  C   C1113     1.0  0.13263  0.84018  0.44897  1.0000
  H   H1337     1.0  0.35363  0.98120  0.31999  1.0000
  C   C1114     1.0  0.49539  0.96945  0.29115  1.0000
  H   H1338     1.0  0.00005  0.78841  0.38914  1.0000
  H   H1339     1.0  0.02403  0.81883  0.35796  1.0000
  H   H1340     1.0  0.27221  0.96741  0.44789  1.0000
  Fe  Fe155     1.0  0.44175  0.96789  0.33183  1.0000
  C   C1115     1.0  0.47277  0.98937  0.35035  1.0000
  C   C1116     1.0  0.02229  0.75834  0.32856  1.0000
  H   H1341     1.0  0.39162  0.98151  0.26454  1.0000
  S   S305      1.0  0.01424  0.72796  0.47647  1.0000
  C   C1117     1.0  0.41864  0.98633  0.24837  1.0000
  S   S306      1.0  0.32824  0.98297  0.40474  1.0000
  H   H1342     1.0  0.04917  0.76308  0.43000  1.0000
  H   H1343     1.0  0.10832  0.81781  0.43980  1.0000
  H   H1344     1.0  0.41909  0.97899  0.25943  1.0000
  N   N77       1.0  0.00784  0.78848  0.40824  1.0000
  H   H1345     1.0  0.15081  0.98724  0.41365  1.0000
  H   H1346     1.0  0.27982  0.92707  0.45729  1.0000
  H   H1347     1.0  0.22302  0.96294  0.45602  1.0000
  Fe  Fe156     1.0  0.00002  0.66737  0.38368  1.0000
  H   H1348     1.0  0.21836  0.97867  0.36383  1.0000
  H   H1349     1.0  0.28606  0.95104  0.46741  1.0000
  C   C1118     1.0  0.24644  0.96975  0.48102  1.0000
  C   C1119     1.0  0.02411  0.83177  0.37303  1.0000
  C   C1120     1.0  0.01964  0.81523  0.32208  1.0000
  H   H1350     1.0  0.38099  0.94687  0.37496  1.0000
  H   H1351     1.0  0.00213  0.79674  0.35471  1.0000
  Fe  Fe157     1.0  0.33820  0.97564  0.42482  1.0000
  H   H1352     1.0  0.18600  0.95369  0.45869  1.0000
  H   H1353     1.0  0.14403  0.97438  0.40824  1.0000
  C   C1121     1.0  0.19905  0.97907  0.47378  1.0000
  C   C1122     1.0  0.12251  0.80528  0.46180  1.0000
  H   H1354     1.0  0.02175  0.80708  0.43913  1.0000
  H   H1355     1.0  0.01655  0.76037  0.35087  1.0000
  H   H1356     1.0  0.04284  0.69461  0.38980  1.0000
  H   H1357     1.0  0.04550  0.69417  0.48864  1.0000
  H   H1358     1.0  0.03826  0.67587  0.45436  1.0000
  N   N78       1.0  0.01954  0.80181  0.46279  1.0000
  C   C1123     1.0  0.38160  0.93171  0.35406  1.0000
  H   H1359     1.0  0.01433  0.74653  0.37368  1.0000
  H   H1360     1.0  0.13169  0.84251  0.43756  1.0000
  H   H1361     1.0  0.33249  0.91728  0.44290  1.0000
  H   H1362     1.0  0.06168  0.78408  0.41949  1.0000
  H   H1363     1.0  0.28065  0.86095  0.47827  1.0000
  C   C1124     1.0  0.25029  0.98455  0.41123  1.0000
  C   C1125     1.0  0.38462  0.96018  0.29517  1.0000
  C   C1126     1.0  0.99989  0.84554  0.38381  1.0000
  H   H1364     1.0  0.35275  0.96644  0.44901  1.0000
  C   C1127     1.0  0.35958  0.98910  0.32123  1.0000
  C   C1128     1.0  0.23091  0.84902  0.45656  1.0000
  H   H1365     1.0  0.30363  0.95230  0.45539  1.0000
  C   C1129     1.0  0.30602  0.95794  0.36459  1.0000
  C   C1130     1.0  0.17745  0.98563  0.46280  1.0000
  C   C1131     1.0  0.03277  0.80716  0.46273  1.0000
  H   H1366     1.0  0.01232  0.71373  0.36191  1.0000
  H   H1367     1.0  0.00042  0.66624  0.43583  1.0000
  H   H1368     1.0  0.33952  0.97981  0.34406  1.0000
  C   C1132     1.0  0.21414  0.95767  0.45575  1.0000
  S   S307      1.0  0.32188  0.97277  0.44656  1.0000
  C   C1133     1.0  0.39652  0.93297  0.35232  1.0000
  H   H1369     1.0  0.22914  0.98769  0.47300  1.0000
  C   C1134     1.0  0.39934  0.96074  0.29424  1.0000
  H   H1370     1.0  0.08200  0.76894  0.45240  1.0000
  H   H1371     1.0  0.25278  0.90361  0.39097  1.0000
  H   H1372     1.0  0.33998  0.93687  0.44972  1.0000
  C   C1135     1.0  0.02138  0.75112  0.31816  1.0000
  H   H1373     1.0  0.25494  0.97898  0.40213  1.0000
  H   H1374     1.0  0.02695  0.75407  0.30670  1.0000
  N   N79       1.0  0.10645  0.85616  0.37142  1.0000
  C   C1136     1.0  0.10641  0.85847  0.35547  1.0000
  C   C1137     1.0  0.11427  0.86697  0.37278  1.0000
  C   C1138     1.0  0.11337  0.84053  0.37730  1.0000
  C   C1139     1.0  0.12407  0.83652  0.38638  1.0000
  C   C1140     1.0  0.10892  0.82873  0.37463  1.0000
  C   C1141     1.0  0.13023  0.82163  0.39191  1.0000
  C   C1142     1.0  0.11519  0.81390  0.38016  1.0000
  C   C1143     1.0  0.12584  0.81035  0.38877  1.0000
  H   H1375     1.0  0.09869  0.85267  0.35362  1.0000
  H   H1376     1.0  0.11781  0.85444  0.34905  1.0000
  H   H1377     1.0  0.10934  0.87855  0.36761  1.0000
  H   H1378     1.0  0.12634  0.86443  0.36738  1.0000
  H   H1379     1.0  0.12760  0.84468  0.38964  1.0000
  H   H1380     1.0  0.10023  0.83080  0.36859  1.0000
  H   H1381     1.0  0.13830  0.81882  0.39887  1.0000
  H   H1382     1.0  0.11150  0.80511  0.37802  1.0000
  H   H1383     1.0  0.13046  0.79882  0.39323  1.0000
  C   C1144     1.0  0.00697  0.83513  0.42264  1.0000
  C   C1145     1.0  0.25180  0.85930  0.45525  1.0000
  H   H1384     1.0  0.24521  0.97705  0.35569  1.0000
  H   H1385     1.0  0.39411  0.95721  0.36251  1.0000
  C   C1146     1.0  0.35195  0.96410  0.47221  1.0000
  Fe  Fe158     1.0  0.16920  0.90254  0.43099  1.0000
  H   H1386     1.0  0.15663  0.96849  0.46428  1.0000
  C   C1147     1.0  0.40008  0.92020  0.37708  1.0000
  C   C1148     1.0  0.19883  0.87639  0.48546  1.0000
  C   C1149     1.0  0.19132  0.96056  0.44831  1.0000
  N   N80       1.0  0.23803  0.88951  0.39236  1.0000
  C   C1150     1.0  0.25113  0.87683  0.39146  1.0000
  C   C1151     1.0  0.23015  0.88864  0.40809  1.0000
  C   C1152     1.0  0.21649  0.88383  0.41391  1.0000
  C   C1153     1.0  0.23662  0.89167  0.41835  1.0000
  C   C1154     1.0  0.20984  0.88221  0.42899  1.0000
  C   C1155     1.0  0.22972  0.89030  0.43335  1.0000
  C   C1156     1.0  0.21643  0.88544  0.43868  1.0000
  H   H1387     1.0  0.24766  0.86607  0.39601  1.0000
  H   H1388     1.0  0.25920  0.87711  0.39785  1.0000
  H   H1389     1.0  0.25742  0.87693  0.37982  1.0000
  H   H1390     1.0  0.23419  0.89072  0.37077  1.0000
  H   H1391     1.0  0.21052  0.88144  0.40707  1.0000
  H   H1392     1.0  0.13413  0.94641  0.44670  1.0000
  H   H1393     1.0  0.19937  0.87862  0.43317  1.0000
  C   C1157     1.0  0.27385  0.85764  0.47242  1.0000
  H   H1394     1.0  0.21121  0.88411  0.45035  1.0000
  H   H1395     1.0  0.09817  0.87092  0.46498  1.0000
  C   C1158     1.0  0.02306  0.68697  0.48314  1.0000
  C   C1159     1.0  0.40574  0.93347  0.33785  1.0000
  C   C1160     1.0  0.01542  0.84124  0.38243  1.0000
  H   H1396     1.0  0.02863  0.76691  0.32518  1.0000
  N   N81       1.0  0.36019  0.98744  0.33692  1.0000
  C   C1161     1.0  0.40471  0.97419  0.37986  1.0000
  C   C1162     1.0  0.01093  0.79921  0.34525  1.0000
  H   H1397     1.0  0.21780  0.97132  0.40105  1.0000
  H   H1398     1.0  0.27896  0.98858  0.32844  1.0000
  H   H1399     1.0  0.29451  0.96583  0.38462  1.0000
  H   H1400     1.0  0.12640  0.82183  0.43431  1.0000
  H   H1401     1.0  0.23483  0.89282  0.44091  1.0000
  C   C1163     1.0  0.30528  0.96193  0.37782  1.0000
  H   H1402     1.0  0.24556  0.85670  0.43627  1.0000
  H   H1403     1.0  0.03330  0.81789  0.45467  1.0000
  C   C1164     1.0  0.15306  0.98062  0.40504  1.0000
  H   H1404     1.0  0.36397  0.96201  0.47078  1.0000
  H   H1405     1.0  0.05822  0.68343  0.36685  1.0000
  C   C1165     1.0  0.10595  0.86938  0.42851  1.0000
  H   H1406     1.0  0.03747  0.67966  0.35834  1.0000
  H   H1407     1.0  0.09044  0.85816  0.39173  1.0000
  H   H1408     1.0  0.19789  0.95302  0.44065  1.0000
  S   S308      1.0  0.40270  0.96790  0.30772  1.0000
  C   C1166     1.0  0.09082  0.85969  0.37973  1.0000
  H   H1409     1.0  0.11970  0.97083  0.43553  1.0000
  C   C1167     1.0  0.39307  0.94690  0.37109  1.0000
  Fe  Fe159     1.0  0.42510  0.97123  0.30783  1.0000
  H   H1410     1.0  0.45295  0.99110  0.37814  1.0000
  H   H1411     1.0  0.23437  0.91325  0.38830  1.0000
  C   C1168     1.0  0.42985  0.96136  0.36991  1.0000
  H   H1412     1.0  0.40589  0.90987  0.37286  1.0000
  C   C1169     1.0  0.04224  0.68923  0.35295  1.0000
  H   H1413     1.0  0.03196  0.67027  0.29101  1.0000
  H   H1414     1.0  0.02480  0.76466  0.42581  1.0000
  C   C1170     1.0  0.13608  0.95653  0.44792  1.0000
  C   C1171     1.0  0.00533  0.81305  0.46506  1.0000
  S   S309      1.0  0.02792  0.85063  0.44495  1.0000
  H   H1415     1.0  0.22386  0.84614  0.45111  1.0000
  H   H1416     1.0  0.42173  0.93449  0.37153  1.0000
  H   H1417     1.0  0.00672  0.67419  0.30795  1.0000
  H   H1418     1.0  0.04204  0.67036  0.40359  1.0000
  C   C1172     1.0  0.10060  0.82484  0.46620  1.0000
  H   H1419     1.0  0.27988  0.97394  0.48375  1.0000
  H   H1420     1.0  0.09555  0.83694  0.46357  1.0000
  N   N82       1.0  0.40191  0.93356  0.36520  1.0000
  N   N83       1.0  0.20081  0.96881  0.45142  1.0000
  S   S310      1.0  0.05136  0.71129  0.45649  1.0000
  H   H1421     1.0  0.02684  0.70756  0.44685  1.0000
  S   S311      1.0  0.16523  0.88075  0.44537  1.0000
  S   S312      1.0  0.12205  0.88518  0.46141  1.0000
  H   H1422     1.0  0.17113  0.97126  0.38069  1.0000
  Fe  Fe160     1.0  0.45816  0.97154  0.29990  1.0000
  C   C1173     1.0  0.04872  0.70015  0.39450  1.0000
  Fe  Fe161     1.0  0.17408  0.88691  0.46177  1.0000
  H   H1423     1.0  0.14830  0.85338  0.46919  1.0000
  S   S313      1.0  0.44447  0.95677  0.35506  1.0000
  H   H1424     1.0  0.43393  0.99092  0.37921  1.0000
  H   H1425     1.0  0.36454  0.96357  0.34130  1.0000
  H   H1426     1.0  0.21370  0.97328  0.42906  1.0000
  H   H1427     1.0  0.00906  0.78371  0.47524  1.0000
  C   C1174     1.0  0.01437  0.84806  0.43705  1.0000
  S   S314      1.0  0.09056  0.79612  0.44956  1.0000
  H   H1428     1.0  0.38100  0.97090  0.33526  1.0000
  C   C1175     1.0  0.00280  0.74571  0.37430  1.0000
  H   H1429     1.0  0.37088  0.98681  0.31396  1.0000
  C   C1176     1.0  0.12792  0.97034  0.44163  1.0000
  H   H1430     1.0  0.38168  0.93042  0.31890  1.0000
  H   H1431     1.0  0.30432  0.87635  0.44588  1.0000
  C   C1177     1.0  0.27968  0.89470  0.42355  1.0000
  H   H1432     1.0  0.42535  0.92431  0.35740  1.0000
  Fe  Fe162     1.0  0.07949  0.81763  0.43681  1.0000
  C   C1178     1.0  0.01544  0.75428  0.34345  1.0000
  S   S315      1.0  0.18007  0.90740  0.44654  1.0000
  H   H1433     1.0  0.24713  0.89501  0.41491  1.0000
  H   H1434     1.0  0.26473  0.98352  0.36246  1.0000
  H   H1435     1.0  0.36956  0.95516  0.28507  1.0000
  S   S316      1.0  0.48065  0.96783  0.28431  1.0000
  S   S317      1.0  0.07148  0.83886  0.44498  1.0000
  C   C1179     1.0  0.01122  0.78673  0.29249  1.0000
  S   S318      1.0  0.15155  0.89845  0.47258  1.0000
  S   S319      1.0  0.15720  0.93896  0.46376  1.0000
  C   C1180     1.0  0.04841  0.68221  0.43141  1.0000
  H   H1436     1.0  0.29942  0.93446  0.46368  1.0000
  H   H1437     1.0  0.02410  0.72229  0.36679  1.0000
  H   H1438     1.0  0.17211  0.98636  0.45397  1.0000
  C   C1181     1.0  0.11588  0.87942  0.44849  1.0000
  H   H1439     1.0  0.26067  0.86454  0.44822  1.0000
  Fe  Fe163     1.0  0.15694  0.91882  0.45617  1.0000
  C   C1182     1.0  0.14881  0.96903  0.45773  1.0000
  H   H1440     1.0  0.21969  0.95039  0.44763  1.0000
  H   H1441     1.0  0.26641  0.97730  0.33898  1.0000
  C   C1183     1.0  0.09881  0.86742  0.44348  1.0000
  H   H1442     1.0  0.05246  0.67505  0.47497  1.0000
  C   C1184     1.0  0.14652  0.95590  0.45599  1.0000
  H   H1443     1.0  0.48523  0.96287  0.31415  1.0000
  C   C1185     1.0  0.24346  0.90345  0.38623  1.0000
  H   H1444     1.0  0.08934  0.86226  0.44735  1.0000
  H   H1445     1.0  0.30890  0.97164  0.47728  1.0000
  C   C1186     1.0  0.00801  0.81152  0.33382  1.0000
  Fe  Fe164     1.0  0.03868  0.72684  0.47152  1.0000
  H   H1446     1.0  0.06008  0.70686  0.41327  1.0000
  C   C1187     1.0  0.07528  0.77399  0.46158  1.0000
  H   H1447     1.0  0.47248  0.98067  0.36021  1.0000
  C   C1188     1.0  0.02993  0.79899  0.40602  1.0000
  H   H1448     1.0  0.02539  0.80899  0.39879  1.0000
  C   C1189     1.0  0.26997  0.90420  0.43257  1.0000
  C   C1190     1.0  0.20592  0.97921  0.43764  1.0000
  C   C1191     1.0  0.02958  0.77427  0.42089  1.0000
  H   H1449     1.0  0.06993  0.80449  0.47559  1.0000
  C   C1192     1.0  0.04191  0.67152  0.41454  1.0000
  C   C1193     1.0  0.29463  0.88403  0.44224  1.0000
  S   S320      1.0  0.28878  0.89317  0.46815  1.0000
  Fe  Fe165     1.0  0.14302  0.89425  0.45471  1.0000
  C   C1194     1.0  0.04380  0.79793  0.40897  1.0000
  C   C1195     1.0  0.25368  0.87920  0.47446  1.0000
  C   C1196     1.0  0.32092  0.96957  0.47584  1.0000
  C   C1197     1.0  0.07714  0.78754  0.46275  1.0000
  S   S321      1.0  0.03599  0.75155  0.46539  1.0000
  C   C1198     1.0  0.40038  0.93243  0.32605  1.0000
  H   H1450     1.0  0.34440  0.98536  0.35795  1.0000
  C   C1199     1.0  0.10376  0.87243  0.45342  1.0000
  H   H1451     1.0  0.00671  0.76544  0.41501  1.0000
  S   S322      1.0  0.44526  0.95464  0.31470  1.0000
  H   H1452     1.0  0.09326  0.81886  0.46391  1.0000
  H   H1453     1.0  0.04655  0.78405  0.29696  1.0000
  H   H1454     1.0  0.07748  0.67068  0.40134  1.0000
  C   C1200     1.0  0.28497  0.89364  0.45119  1.0000
  C   C1201     1.0  0.00799  0.74236  0.34847  1.0000
  C   C1202     1.0  0.33111  0.93018  0.47307  1.0000
  C   C1203     1.0  0.26885  0.97689  0.48132  1.0000
  H   H1455     1.0  0.37384  0.93150  0.36466  1.0000
  C   C1204     1.0  0.38575  0.93108  0.32817  1.0000
  C   C1205     1.0  0.24875  0.85737  0.47092  1.0000
  C   C1206     1.0  0.02241  0.79726  0.44846  1.0000
  S   S323      1.0  0.01493  0.65957  0.36341  1.0000
  C   C1207     1.0  0.36938  0.97258  0.34200  1.0000
  C   C1208     1.0  0.00708  0.73543  0.33753  1.0000
  C   C1209     1.0  0.23785  0.98793  0.35414  1.0000
  H   H1456     1.0  0.01579  0.79678  0.38492  1.0000
  H   H1457     1.0  0.27706  0.84535  0.47385  1.0000
  H   H1458     1.0  0.27758  0.86260  0.46055  1.0000
  C   C1210     1.0  0.37638  0.93070  0.34215  1.0000
  C   C1211     1.0  0.03574  0.66157  0.30040  1.0000
  H   H1459     1.0  0.01455  0.79068  0.44837  1.0000
  N   N84       1.0  0.00254  0.73633  0.36439  1.0000
  H   H1460     1.0  0.13619  0.83556  0.48937  1.0000
  C   C1212     1.0  0.12528  0.83000  0.46032  1.0000
  H   H1461     1.0  0.06442  0.67314  0.39001  1.0000
  Fe  Fe166     1.0  0.03506  0.74929  0.48957  1.0000
  H   H1462     1.0  0.01745  0.82489  0.31336  1.0000
  C   C1213     1.0  0.33008  0.96947  0.46172  1.0000
  C   C1214     1.0  0.31851  0.96110  0.38214  1.0000
  H   H1463     1.0  0.36501  0.92957  0.34378  1.0000
  C   C1215     1.0  0.05641  0.77321  0.48441  1.0000
  C   C1216     1.0  0.04582  0.66800  0.48412  1.0000
  C   C1217     1.0  0.34560  0.96664  0.45989  1.0000
  H   H1464     1.0  0.04008  0.70780  0.40102  1.0000
  C   C1218     1.0  0.14227  0.84661  0.46672  1.0000
  C   C1219     1.0  0.14107  0.84822  0.45221  1.0000
  H   H1465     1.0  0.19788  0.95852  0.40501  1.0000
  H   H1466     1.0  0.01293  0.73410  0.31458  1.0000
  C   C1220     1.0  0.18034  0.97849  0.40119  1.0000
  C   C1221     1.0  0.03791  0.78276  0.29228  1.0000
  C   C1222     1.0  0.19236  0.97748  0.46291  1.0000
  Fe  Fe167     1.0  0.01150  0.75241  0.47285  1.0000
  C   C1223     1.0  0.34468  0.98806  0.34585  1.0000
  H   H1467     1.0  0.18231  0.96802  0.44275  1.0000
  S   S324      1.0  0.45616  0.98344  0.31764  1.0000
  H   H1468     1.0  0.07688  0.68518  0.38494  1.0000
  C   C1224     1.0  0.06984  0.67912  0.39467  1.0000
  H   H1469     1.0  0.26119  0.99166  0.32354  1.0000
  C   C1225     1.0  0.22247  0.98874  0.35890  1.0000
  H   H1470     1.0  0.16205  0.95699  0.39296  1.0000
  C   C1226     1.0  0.06851  0.79402  0.47465  1.0000
  H   H1471     1.0  0.14620  0.85627  0.44349  1.0000
  C   C1227     1.0  0.20322  0.89000  0.48072  1.0000
  H   H1472     1.0  0.40367  0.98993  0.27755  1.0000
  S   S325      1.0  0.43823  0.98688  0.29130  1.0000
  H   H1473     1.0  0.24167  0.88358  0.47903  1.0000
  H   H1474     1.0  0.18175  0.95492  0.39048  1.0000
  C   C1228     1.0  0.49470  0.96656  0.30638  1.0000
  Fe  Fe168     1.0  0.26993  0.90504  0.48355  1.0000
  H   H1475     1.0  0.49751  0.95840  0.25852  1.0000
  H   H1476     1.0  0.49621  0.98017  0.34275  1.0000
  H   H1477     1.0  0.01320  0.82770  0.47387  1.0000
  S   S326      1.0  0.36239  0.98440  0.38529  1.0000
  H   H1478     1.0  0.25573  0.88369  0.46232  1.0000
  H   H1479     1.0  0.16699  0.96419  0.42740  1.0000
  H   H1480     1.0  0.01839  0.68076  0.47798  1.0000
  H   H1481     1.0  0.33452  0.93896  0.47541  1.0000
  C   C1229     1.0  0.26065  0.96598  0.48430  1.0000
  C   C1230     1.0  0.05831  0.78674  0.48560  1.0000
  C   C1231     1.0  0.01726  0.82628  0.36523  1.0000
  H   H1482     1.0  0.02891  0.77982  0.47363  1.0000
  C   C1232     1.0  0.44524  0.99014  0.37175  1.0000
  C   C1233     1.0  0.32237  0.90842  0.46532  1.0000
  C   C1234     1.0  0.39217  0.98762  0.25287  1.0000
  C   C1235     1.0  0.04182  0.77528  0.28074  1.0000
  S   S327      1.0  0.42083  0.98318  0.32614  1.0000
  S   S328      1.0  0.24604  0.91489  0.48155  1.0000
  C   C1236     1.0  0.01848  0.78859  0.47492  1.0000
  H   H1483     1.0  0.17761  0.95809  0.48722  1.0000
  H   H1484     1.0  0.01539  0.66959  0.32340  1.0000
  C   C1237     1.0  0.03334  0.66347  0.42654  1.0000
  C   C1238     1.0  0.13533  0.83665  0.47807  1.0000
  H   H1485     1.0  0.31878  0.90009  0.46226  1.0000
  C   C1239     1.0  0.22752  0.84712  0.47192  1.0000
  C   C1240     1.0  0.31905  0.90951  0.48018  1.0000
  C   C1241     1.0  0.34278  0.96454  0.48631  1.0000
  S   S329      1.0  0.00649  0.66513  0.40524  1.0000
  H   H1486     1.0  0.01343  0.69399  0.48943  1.0000
  H   H1487     1.0  0.26529  0.95469  0.48918  1.0000
  H   H1488     1.0  0.15152  0.98838  0.39434  1.0000
  C   C1242     1.0  0.21110  0.89390  0.48907  1.0000
  H   H1489     1.0  0.31280  0.90181  0.48798  1.0000
  H   H1490     1.0  0.00225  0.65944  0.32358  1.0000
  H   H1491     1.0  0.17432  0.90554  0.49027  1.0000
  H   H1492     1.0  0.19639  0.98671  0.43281  1.0000
  C   C1243     1.0  0.26262  0.99168  0.47553  1.0000
  H   H1493     1.0  0.05356  0.66040  0.49120  1.0000
  H   H1494     1.0  0.30981  0.94518  0.49393  1.0000
  H   H1495     1.0  0.46315  0.93405  0.69961  1.0000
  H   H1496     1.0  0.24205  0.98173  0.51790  1.0000
  C   C1244     1.0  0.47214  0.93518  0.70376  1.0000
  H   H1497     1.0  0.35224  0.99051  0.55706  1.0000
  C   C1245     1.0  0.17214  0.93692  0.49779  1.0000
  S   S330      1.0  0.41297  0.94067  0.63134  1.0000
  H   H1498     1.0  0.49692  0.91527  0.72550  1.0000
  S   S331      1.0  0.26418  0.89146  0.50632  1.0000
  Fe  Fe169     1.0  0.32974  0.97361  0.55279  1.0000
  H   H1499     1.0  0.26188  0.86160  0.49941  1.0000
  S   S332      1.0  0.33802  0.96603  0.57428  1.0000
  Fe  Fe170     1.0  0.30405  0.97379  0.53942  1.0000
  C   C1246     1.0  0.37199  0.94284  0.69756  1.0000
  S   S333      1.0  0.28170  0.96963  0.54039  1.0000
  Fe  Fe171     1.0  0.33530  0.97145  0.52062  1.0000
  S   S334      1.0  0.35087  0.96195  0.50148  1.0000
  C   C1247     1.0  0.38768  0.96395  0.55362  1.0000
  C   C1248     1.0  0.37205  0.95324  0.72279  1.0000
  S   S335      1.0  0.32565  0.95737  0.54192  1.0000
  H   H1500     1.0  0.45078  0.97483  0.69747  1.0000
  S   S336      1.0  0.43966  0.92069  0.69800  1.0000
  S   S337      1.0  0.42528  0.89228  0.68876  1.0000
  H   H1501     1.0  0.17400  0.89890  0.53096  1.0000
  C   C1249     1.0  0.46111  0.91648  0.66311  1.0000
  H   H1502     1.0  0.43910  0.97097  0.72784  1.0000
  S   S338      1.0  0.04328  0.76451  0.49796  1.0000
  S   S339      1.0  0.22336  0.88862  0.51375  1.0000
  Fe  Fe172     1.0  0.26483  0.91116  0.51407  1.0000
  S   S340      1.0  0.34139  0.98623  0.53157  1.0000
  S   S341      1.0  0.27795  0.90821  0.53126  1.0000
  C   C1250     1.0  0.47389  0.91483  0.66832  1.0000
  Fe  Fe173     1.0  0.24042  0.90274  0.50503  1.0000
  C   C1251     1.0  0.20212  0.86690  0.49860  1.0000
  S   S342      1.0  0.41307  0.98029  0.61189  1.0000
  S   S343      1.0  0.24039  0.92126  0.51520  1.0000
  H   H1503     1.0  0.34327  0.91577  0.50136  1.0000
  H   H1504     1.0  0.41130  0.92989  0.60674  1.0000
  H   H1505     1.0  0.35182  0.96202  0.68377  1.0000
  C   C1252     1.0  0.42161  0.94132  0.57862  1.0000
  C   C1253     1.0  0.49538  0.93826  0.71452  1.0000
  S   S344      1.0  0.40700  0.95480  0.70470  1.0000
  C   C1254     1.0  0.40706  0.97511  0.74043  1.0000
  H   H1506     1.0  0.43369  0.95396  0.67774  1.0000
  N   N85       1.0  0.40588  0.94515  0.58676  1.0000
  H   H1507     1.0  0.29697  0.93316  0.50026  1.0000
  H   H1508     1.0  0.25410  0.98856  0.55117  1.0000
  H   H1509     1.0  0.45351  0.97015  0.66767  1.0000
  C   C1255     1.0  0.24517  0.98929  0.54537  1.0000
  C   C1256     1.0  0.36965  0.96361  0.70943  1.0000
  C   C1257     1.0  0.37513  0.94456  0.56835  1.0000
  H   H1510     1.0  0.40496  0.96724  0.56161  1.0000
  H   H1511     1.0  0.14390  0.91104  0.52395  1.0000
  C   C1258     1.0  0.41654  0.96881  0.70042  1.0000
  C   C1259     1.0  0.47666  0.94863  0.69956  1.0000
  N   N86       1.0  0.36863  0.95917  0.69613  1.0000
  H   H1512     1.0  0.24296  0.86283  0.49975  1.0000
  S   S345      1.0  0.47302  0.90674  0.71942  1.0000
  H   H1513     1.0  0.35052  0.97771  0.69093  1.0000
  H   H1514     1.0  0.37174  0.93985  0.68721  1.0000
  N   N87       1.0  0.31999  0.92197  0.50014  1.0000
  C   C1260     1.0  0.16359  0.90921  0.49791  1.0000
  C   C1261     1.0  0.47827  0.92732  0.66881  1.0000
  C   C1262     1.0  0.48781  0.95037  0.70544  1.0000
  H   H1515     1.0  0.30482  0.90718  0.50996  1.0000
  C   C1263     1.0  0.45236  0.97087  0.65625  1.0000
  H   H1516     1.0  0.36374  0.93763  0.70660  1.0000
  C   C1264     1.0  0.30738  0.93496  0.50194  1.0000
  H   H1517     1.0  0.42958  0.93788  0.58620  1.0000
  C   C1265     1.0  0.47933  0.92320  0.71325  1.0000
  H   H1518     1.0  0.43830  0.95295  0.63903  1.0000
  H   H1519     1.0  0.45797  0.97348  0.71947  1.0000
  C   C1266     1.0  0.49123  0.92460  0.71829  1.0000
  H   H1520     1.0  0.16457  0.88994  0.52343  1.0000
  H   H1521     1.0  0.46330  0.97135  0.64838  1.0000
  H   H1522     1.0  0.38344  0.93759  0.69974  1.0000
  H   H1523     1.0  0.15716  0.90041  0.50077  1.0000
  H   H1524     1.0  0.43779  0.95412  0.70326  1.0000
  H   H1525     1.0  0.48809  0.92596  0.67314  1.0000
  C   C1267     1.0  0.45257  0.93062  0.65854  1.0000
  C   C1268     1.0  0.31558  0.90879  0.51096  1.0000
  S   S346      1.0  0.40724  0.91517  0.71956  1.0000
  C   C1269     1.0  0.45114  0.96613  0.72792  1.0000
  C   C1270     1.0  0.19459  0.94352  0.49856  1.0000
  S   S347      1.0  0.37945  0.97445  0.62929  1.0000
  H   H1526     1.0  0.40633  0.96812  0.58465  1.0000
  C   C1271     1.0  0.36356  0.97730  0.59527  1.0000
  H   H1527     1.0  0.21192  0.86351  0.51731  1.0000
  H   H1528     1.0  0.38862  0.97314  0.54418  1.0000
  H   H1529     1.0  0.39107  0.95994  0.68381  1.0000
  C   C1272     1.0  0.39694  0.96050  0.56373  1.0000
  N   N88       1.0  0.16620  0.91217  0.51127  1.0000
  H   H1530     1.0  0.36932  0.95897  0.54834  1.0000
  H   H1531     1.0  0.03054  0.69434  0.50458  1.0000
  H   H1532     1.0  0.33553  0.93544  0.49856  1.0000
  H   H1533     1.0  0.41158  0.95570  0.60092  1.0000
  C   C1273     1.0  0.37684  0.95596  0.55591  1.0000
  S   S348      1.0  0.49101  0.96807  0.70257  1.0000
  S   S349      1.0  0.40193  0.97803  0.64804  1.0000
  H   H1534     1.0  0.31519  0.98648  0.59581  1.0000
  H   H1535     1.0  0.32016  0.96681  0.49902  1.0000
  H   H1536     1.0  0.18304  0.89193  0.51423  1.0000
  C   C1274     1.0  0.43175  0.96552  0.70059  1.0000
  H   H1537     1.0  0.04773  0.68032  0.50506  1.0000
  H   H1538     1.0  0.16190  0.94023  0.49372  1.0000
  C   C1275     1.0  0.40332  0.93244  0.59930  1.0000
  H   H1539     1.0  0.38216  0.93223  0.58805  1.0000
  S   S350      1.0  0.43821  0.89145  0.72565  1.0000
  C   C1276     1.0  0.40877  0.98348  0.69681  1.0000
  H   H1540     1.0  0.44248  0.93126  0.65509  1.0000
  H   H1541     1.0  0.34481  0.96162  0.70331  1.0000
  C   C1277     1.0  0.28151  0.95251  0.53728  1.0000
  C   C1278     1.0  0.27168  0.95205  0.52897  1.0000
  C   C1279     1.0  0.27066  0.93847  0.52700  1.0000
  C   C1280     1.0  0.27919  0.92524  0.53369  1.0000
  C   C1281     1.0  0.28903  0.92564  0.54203  1.0000
  C   C1282     1.0  0.29036  0.93929  0.54365  1.0000
  H   H1542     1.0  0.26481  0.96218  0.52401  1.0000
  H   H1543     1.0  0.26304  0.93824  0.52056  1.0000
  H   H1544     1.0  0.29556  0.91539  0.54732  1.0000
  H   H1545     1.0  0.29780  0.93957  0.55027  1.0000
  C   C1283     1.0  0.43198  0.95856  0.66625  1.0000
  H   H1546     1.0  0.32435  0.89851  0.50965  1.0000
  C   C1284     1.0  0.39566  0.94881  0.57644  1.0000
  S   S351      1.0  0.00317  0.71132  0.51790  1.0000
  Fe  Fe174     1.0  0.42040  0.93261  0.71270  1.0000
  H   H1547     1.0  0.36621  0.93885  0.57036  1.0000
  C   C1285     1.0  0.43912  0.97709  0.69728  1.0000
  H   H1548     1.0  0.19414  0.90876  0.51823  1.0000
  C   C1286     1.0  0.17622  0.92266  0.50681  1.0000
  H   H1549     1.0  0.45396  0.95551  0.72411  1.0000
  H   H1550     1.0  0.42335  0.93205  0.57302  1.0000
  Fe  Fe175     1.0  0.01507  0.72715  0.49976  1.0000
  S   S352      1.0  0.01026  0.75185  0.49664  1.0000
  C   C1287     1.0  0.34993  0.97511  0.57807  1.0000
  C   C1288     1.0  0.35406  0.97043  0.59186  1.0000
  S   S353      1.0  0.43087  0.92522  0.73246  1.0000
  H   H1551     1.0  0.02832  0.67405  0.52397  1.0000
  H   H1552     1.0  0.39236  0.96130  0.59951  1.0000
  H   H1553     1.0  0.34985  0.96145  0.59995  1.0000
  H   H1554     1.0  0.36650  0.97361  0.60596  1.0000
  C   C1289     1.0  0.42100  0.90598  0.67322  1.0000
  C   C1290     1.0  0.41410  0.92073  0.67432  1.0000
  C   C1291     1.0  0.41101  0.93149  0.66161  1.0000
  C   C1292     1.0  0.41531  0.92756  0.64778  1.0000
  C   C1293     1.0  0.42209  0.91283  0.64677  1.0000
  C   C1294     1.0  0.42478  0.90206  0.65946  1.0000
  H   H1555     1.0  0.41106  0.92380  0.68498  1.0000
  H   H1556     1.0  0.40545  0.94278  0.66248  1.0000
  H   H1557     1.0  0.42537  0.90972  0.63612  1.0000
  H   H1558     1.0  0.43007  0.89069  0.65857  1.0000
  H   H1559     1.0  0.40485  0.92214  0.59535  1.0000
  C   C1295     1.0  0.02489  0.66735  0.50516  1.0000
  C   C1296     1.0  0.40398  0.95813  0.59317  1.0000
  S   S354      1.0  0.03998  0.72435  0.49510  1.0000
  Fe  Fe176     1.0  0.40312  0.96470  0.63171  1.0000
  H   H1560     1.0  0.43650  0.97219  0.63738  1.0000
  C   C1297     1.0  0.37931  0.96503  0.68284  1.0000
  H   H1561     1.0  0.44462  0.98179  0.65318  1.0000
  H   H1562     1.0  0.40969  0.98082  0.72893  1.0000
  H   H1563     1.0  0.31359  0.90996  0.52263  1.0000
  C   C1298     1.0  0.21432  0.88428  0.50227  1.0000
  C   C1299     1.0  0.37101  0.97292  0.73464  1.0000
  C   C1300     1.0  0.33302  0.92441  0.50414  1.0000
  C   C1301     1.0  0.17225  0.89764  0.52039  1.0000
  H   H1564     1.0  0.14570  0.92910  0.51350  1.0000
  Fe  Fe177     1.0  0.42726  0.90249  0.70625  1.0000
  H   H1565     1.0  0.24744  0.97837  0.54231  1.0000
  C   C1302     1.0  0.03949  0.68686  0.49811  1.0000
  C   C1303     1.0  0.25459  0.85791  0.49446  1.0000
  C   C1304     1.0  0.15163  0.91878  0.52005  1.0000
  H   H1566     1.0  0.37797  0.97718  0.68086  1.0000
  H   H1567     1.0  0.20951  0.92667  0.51082  1.0000
  H   H1568     1.0  0.39194  0.93491  0.60645  1.0000
  H   H1569     1.0  0.37790  0.96278  0.67257  1.0000
  Fe  Fe178     1.0  0.38913  0.99086  0.61035  1.0000
  H   H1570     1.0  0.25660  0.84561  0.49792  1.0000
  H   H1571     1.0  0.19876  0.85641  0.50234  1.0000
  H   H1572     1.0  0.42480  0.96996  0.66588  1.0000
  Fe  Fe179     1.0  0.44893  0.91094  0.71849  1.0000
  C   C1305     1.0  0.18998  0.91930  0.51142  1.0000
  H   H1573     1.0  0.47134  0.95777  0.69199  1.0000
  N   N89       1.0  0.44650  0.95834  0.65551  1.0000
  C   C1306     1.0  0.44391  0.96108  0.64033  1.0000
  C   C1307     1.0  0.19902  0.92957  0.50723  1.0000
  H   H1574     1.0  0.42498  0.95087  0.57004  1.0000
  C   C1308     1.0  0.45656  0.94361  0.65908  1.0000
  C   C1309     1.0  0.46980  0.94155  0.66426  1.0000
  H   H1575     1.0  0.30487  0.93731  0.51321  1.0000
  H   H1576     1.0  0.15317  0.92165  0.52995  1.0000
  H   H1577     1.0  0.45463  0.96064  0.63196  1.0000
  C   C1310     1.0  0.35327  0.96536  0.69345  1.0000
  N   N90       1.0  0.03316  0.67716  0.49295  1.0000
  H   H1578     1.0  0.37385  0.94144  0.72387  1.0000
  C   C1311     1.0  0.36760  0.97881  0.70948  1.0000
  C   C1312     1.0  0.38434  0.94099  0.57853  1.0000
  H   H1579     1.0  0.47369  0.95069  0.66524  1.0000
  H   H1580     1.0  0.45748  0.90673  0.66308  1.0000
  H   H1581     1.0  0.33099  0.92422  0.51619  1.0000
  H   H1582     1.0  0.26252  0.98777  0.51895  1.0000
  C   C1313     1.0  0.36922  0.98881  0.58483  1.0000
  H   H1583     1.0  0.48026  0.90383  0.67225  1.0000
  C   C1314     1.0  0.23287  0.99135  0.51822  1.0000
  C   C1315     1.0  0.20964  0.87090  0.50704  1.0000
  H   H1584     1.0  0.42543  0.95167  0.66430  1.0000
  H   H1585     1.0  0.44337  0.98676  0.61076  1.0000
  C   C1316     1.0  0.36841  0.98336  0.72183  1.0000
  H   H1586     1.0  0.36546  0.98735  0.69990  1.0000
  C   C1317     1.0  0.02369  0.66690  0.52039  1.0000
  H   H1587     1.0  0.22249  0.98399  0.50500  1.0000
  H   H1588     1.0  0.15705  0.91913  0.49149  1.0000
  H   H1589     1.0  0.23430  0.99061  0.55349  1.0000
  H   H1590     1.0  0.05183  0.79162  0.49496  1.0000
  S   S355      1.0  0.30704  0.98878  0.55222  1.0000
  H   H1591     1.0  0.47063  0.98072  0.59995  1.0000
  H   H1592     1.0  0.47751  0.96392  0.73407  1.0000
  C   C1318     1.0  0.37276  0.95791  0.73515  1.0000
  C   C1319     1.0  0.46621  0.98858  0.60715  1.0000
  Fe  Fe180     1.0  0.37927  0.98971  0.64343  1.0000
  C   C1320     1.0  0.49799  0.98591  0.64492  1.0000
  H   H1593     1.0  0.33866  0.98615  0.63229  1.0000
  H   H1594     1.0  0.40698  0.95493  0.73485  1.0000
  S   S356      1.0  0.31344  0.98676  0.51738  1.0000
  H   H1595     1.0  0.47319  0.94603  0.73800  1.0000
  Fe  Fe181     1.0  0.41941  0.90640  0.73818  1.0000
  H   H1596     1.0  0.47670  0.98686  0.67908  1.0000
  H   H1597     1.0  0.39704  0.98601  0.69650  1.0000
  H   H1598     1.0  0.32191  0.98772  0.61797  1.0000
  C   C1321     1.0  0.35538  0.98677  0.56769  1.0000
  H   H1599     1.0  0.20164  0.95145  0.49555  1.0000
  C   C1322     1.0  0.18115  0.94720  0.49386  1.0000
  H   H1600     1.0  0.48802  0.99097  0.64054  1.0000
  Fe  Fe182     1.0  0.24794  0.93264  0.49168  1.0000
  S   S357      1.0  0.27248  0.92397  0.49129  1.0000
  H   H1601     1.0  0.19651  0.98879  0.49230  1.0000
  S   S358      1.0  0.49509  0.99134  0.60215  1.0000
  H   H1602     1.0  0.23281  0.84961  0.49096  1.0000
  C   C1323     1.0  0.37627  0.74389  0.95905  1.0000
  S   S359      1.0  0.44587  0.91715  0.81543  1.0000
  C   C1324     1.0  0.48502  0.75442  0.96173  1.0000
  H   H1603     1.0  0.43296  0.81878  0.86303  1.0000
  S   S360      1.0  0.45710  0.92086  0.85108  1.0000
  Fe  Fe183     1.0  0.43501  0.85816  0.91521  1.0000
  S   S361      1.0  0.45044  0.86511  0.92467  1.0000
  S   S362      1.0  0.42931  0.86746  0.89264  1.0000
  Fe  Fe184     1.0  0.42895  0.83365  0.94217  1.0000
  S   S363      1.0  0.44378  0.83846  0.95388  1.0000
  S   S364      1.0  0.41802  0.81455  0.95362  1.0000
  Fe  Fe185     1.0  0.43337  0.86215  0.94593  1.0000
  S   S365      1.0  0.42494  0.87846  0.96076  1.0000
  Fe  Fe186     1.0  0.45954  0.84072  0.93177  1.0000
  C   C1325     1.0  0.45521  0.76743  0.98834  1.0000
  S   S366      1.0  0.41700  0.85727  0.93595  1.0000
  S   S367      1.0  0.44562  0.83389  0.92060  1.0000
  H   H1604     1.0  0.48506  0.74742  0.97262  1.0000
  H   H1605     1.0  0.42237  0.86871  0.78247  1.0000
  H   H1606     1.0  0.41167  0.71872  0.95408  1.0000
  H   H1607     1.0  0.49879  0.96440  0.79394  1.0000
  H   H1608     1.0  0.38000  0.74986  0.98319  1.0000
  C   C1326     1.0  0.40107  0.94888  0.86649  1.0000
  C   C1327     1.0  0.40589  0.81775  0.88047  1.0000
  C   C1328     1.0  0.49434  0.84942  0.86638  1.0000
  C   C1329     1.0  0.39967  0.96047  0.76996  1.0000
  H   H1609     1.0  0.41079  0.80849  0.87451  1.0000
  H   H1610     1.0  0.47356  0.95362  0.75275  1.0000
  C   C1330     1.0  0.47029  0.95659  0.74189  1.0000
  H   H1611     1.0  0.48500  0.79732  0.89948  1.0000
  H   H1612     1.0  0.45819  0.86455  0.86348  1.0000
  C   C1331     1.0  0.49657  0.83246  0.96153  1.0000
  C   C1332     1.0  0.48431  0.77260  0.93362  1.0000
  C   C1333     1.0  0.45507  0.98884  0.81375  1.0000
  C   C1334     1.0  0.48457  0.81213  0.91305  1.0000
  S   S368      1.0  0.47041  0.75548  0.92578  1.0000
  H   H1613     1.0  0.38626  0.73643  0.96308  1.0000
  H   H1614     1.0  0.44250  0.96159  0.87894  1.0000
  H   H1615     1.0  0.35449  0.72457  0.93646  1.0000
  H   H1616     1.0  0.32196  0.73015  0.91973  1.0000
  C   C1335     1.0  0.34649  0.73555  0.93662  1.0000
  H   H1617     1.0  0.39276  0.98133  0.80258  1.0000
  H   H1618     1.0  0.45790  0.72219  0.91931  1.0000
  S   S369      1.0  0.40642  0.89883  0.76099  1.0000
  H   H1619     1.0  0.47613  0.89503  0.77806  1.0000
  H   H1620     1.0  0.45561  0.72968  0.93520  1.0000
  H   H1621     1.0  0.39864  0.81348  0.89112  1.0000
  H   H1622     1.0  0.46182  0.80575  0.88617  1.0000
  C   C1336     1.0  0.40185  0.95323  0.75844  1.0000
  S   S370      1.0  0.36664  0.66488  0.97140  1.0000
  H   H1623     1.0  0.36038  0.75294  0.98452  1.0000
  Fe  Fe187     1.0  0.37954  0.67913  0.92938  1.0000
  S   S371      1.0  0.35579  0.68484  0.94131  1.0000
  S   S372      1.0  0.38415  0.68769  0.90482  1.0000
  Fe  Fe188     1.0  0.36510  0.68840  0.95885  1.0000
  H   H1624     1.0  0.39849  0.82630  0.87362  1.0000
  C   C1337     1.0  0.43390  0.79842  0.88939  1.0000
  S   S373      1.0  0.38865  0.68497  0.94575  1.0000
  H   H1625     1.0  0.41768  0.84293  0.89072  1.0000
  C   C1338     1.0  0.43010  0.87440  0.97793  1.0000
  Fe  Fe189     1.0  0.45651  0.93339  0.79706  1.0000
  Fe  Fe190     1.0  0.38257  0.78889  0.90726  1.0000
  S   S374      1.0  0.40699  0.77816  0.90242  1.0000
  S   S375      1.0  0.37492  0.80960  0.91639  1.0000
  Fe  Fe191     1.0  0.37402  0.76747  0.89459  1.0000
  S   S376      1.0  0.39772  0.75558  0.88810  1.0000
  S   S377      1.0  0.35770  0.75684  0.89087  1.0000
  Fe  Fe192     1.0  0.39930  0.75678  0.91051  1.0000
  S   S378      1.0  0.40802  0.73549  0.92533  1.0000
  Fe  Fe193     1.0  0.40276  0.77806  0.88062  1.0000
  S   S379      1.0  0.41754  0.78480  0.85870  1.0000
  S   S380      1.0  0.37519  0.76748  0.91752  1.0000
  S   S381      1.0  0.37875  0.79010  0.88485  1.0000
  C   C1339     1.0  0.41684  0.73804  0.93785  1.0000
  H   H1626     1.0  0.40353  0.96492  0.79632  1.0000
  H   H1627     1.0  0.42388  0.75762  0.92383  1.0000
  H   H1628     1.0  0.48430  0.84131  0.84421  1.0000
  C   C1340     1.0  0.49564  0.93048  0.78133  1.0000
  H   H1629     1.0  0.46749  0.76646  0.98549  1.0000
  C   C1341     1.0  0.42619  0.81228  0.89321  1.0000
  Fe  Fe194     1.0  0.44869  0.93051  0.82999  1.0000
  S   S382      1.0  0.48500  0.75116  0.85431  1.0000
  H   H1630     1.0  0.39671  0.75712  0.95982  1.0000
  N   N91       1.0  0.47798  0.85040  0.87050  1.0000
  C   C1342     1.0  0.42970  0.87440  0.78455  1.0000
  C   C1343     1.0  0.42757  0.82819  0.86876  1.0000
  C   C1344     1.0  0.33067  0.66053  0.91272  1.0000
  C   C1345     1.0  0.38687  0.76466  0.95554  1.0000
  H   H1631     1.0  0.47484  0.86440  0.84915  1.0000
  C   C1346     1.0  0.46991  0.87997  0.75286  1.0000
  C   C1347     1.0  0.48138  0.69219  0.88779  1.0000
  H   H1632     1.0  0.43649  0.98782  0.84396  1.0000
  C   C1348     1.0  0.37698  0.70689  0.90086  1.0000
  C   C1349     1.0  0.36840  0.71318  0.89002  1.0000
  C   C1350     1.0  0.36235  0.72852  0.88704  1.0000
  C   C1351     1.0  0.36535  0.73765  0.89448  1.0000
  C   C1352     1.0  0.37415  0.73136  0.90516  1.0000
  C   C1353     1.0  0.37971  0.71598  0.90855  1.0000
  H   H1633     1.0  0.36628  0.70616  0.88407  1.0000
  H   H1634     1.0  0.35559  0.73332  0.87876  1.0000
  H   H1635     1.0  0.37654  0.73829  0.91100  1.0000
  H   H1636     1.0  0.38639  0.71118  0.91690  1.0000
  C   C1354     1.0  0.47819  0.76010  0.93794  1.0000
  C   C1355     1.0  0.48774  0.71031  0.97156  1.0000
  C   C1356     1.0  0.39442  0.97484  0.79400  1.0000
  C   C1357     1.0  0.40964  0.83741  0.88899  1.0000
  C   C1358     1.0  0.48233  0.85294  0.97334  1.0000
  C   C1359     1.0  0.46622  0.76026  0.85557  1.0000
  C   C1360     1.0  0.45699  0.76178  0.86940  1.0000
  C   C1361     1.0  0.44179  0.76867  0.87047  1.0000
  C   C1362     1.0  0.43609  0.77489  0.85762  1.0000
  C   C1363     1.0  0.44538  0.77353  0.84378  1.0000
  C   C1364     1.0  0.46037  0.76591  0.84279  1.0000
  H   H1637     1.0  0.46156  0.75740  0.87926  1.0000
  H   H1638     1.0  0.43457  0.76948  0.88116  1.0000
  H   H1639     1.0  0.44095  0.77826  0.83383  1.0000
  H   H1640     1.0  0.46752  0.76473  0.83208  1.0000
  H   H1641     1.0  0.44912  0.78109  0.91955  1.0000
  C   C1365     1.0  0.46080  0.90483  0.75691  1.0000
  H   H1642     1.0  0.48815  0.88866  0.76248  1.0000
  H   H1643     1.0  0.44771  0.77670  0.89587  1.0000
  H   H1644     1.0  0.37843  0.74447  0.94692  1.0000
  H   H1645     1.0  0.40557  0.96960  0.85428  1.0000
  C   C1366     1.0  0.49131  0.98616  0.77091  1.0000
  C   C1367     1.0  0.44201  0.78727  0.89886  1.0000
  H   H1646     1.0  0.45576  0.91219  0.76496  1.0000
  C   C1368     1.0  0.34592  0.76366  0.96159  1.0000
  H   H1647     1.0  0.34499  0.75318  0.96920  1.0000
  C   C1369     1.0  0.47672  0.82122  0.85102  1.0000
  N   N92       1.0  0.43453  0.96660  0.85869  1.0000
  N   N93       1.0  0.41745  0.82378  0.88312  1.0000
  H   H1648     1.0  0.45268  0.98980  0.77807  1.0000
  N   N94       1.0  0.37311  0.75885  0.96232  1.0000
  C   C1370     1.0  0.42786  0.66134  0.94318  1.0000
  C   C1371     1.0  0.44158  0.66507  0.93562  1.0000
  S   S383      1.0  0.42620  0.94605  0.82983  1.0000
  H   H1649     1.0  0.44785  0.95496  0.84159  1.0000
  H   H1650     1.0  0.43659  0.80499  0.92654  1.0000
  H   H1651     1.0  0.38975  0.76568  0.94332  1.0000
  C   C1372     1.0  0.37268  0.71076  0.98374  1.0000
  C   C1373     1.0  0.40573  0.81317  0.94365  1.0000
  C   C1374     1.0  0.39615  0.82589  0.93745  1.0000
  C   C1375     1.0  0.38649  0.82469  0.92932  1.0000
  C   C1376     1.0  0.38689  0.81089  0.92680  1.0000
  C   C1377     1.0  0.39674  0.79825  0.93270  1.0000
  C   C1378     1.0  0.40584  0.79930  0.94149  1.0000
  H   H1652     1.0  0.39600  0.83662  0.93912  1.0000
  H   H1653     1.0  0.37886  0.83451  0.92479  1.0000
  H   H1654     1.0  0.39732  0.78764  0.93055  1.0000
  H   H1655     1.0  0.41340  0.78946  0.94609  1.0000
  H   H1656     1.0  0.45240  0.90652  0.75018  1.0000
  S   S384      1.0  0.35247  0.70827  0.96883  1.0000
  H   H1657     1.0  0.40051  0.94190  0.76093  1.0000
  H   H1658     1.0  0.46321  0.66866  0.98359  1.0000
  H   H1659     1.0  0.42605  0.97624  0.87794  1.0000
  H   H1660     1.0  0.47859  0.84273  0.89372  1.0000
  H   H1661     1.0  0.36856  0.76838  0.98140  1.0000
  H   H1662     1.0  0.46491  0.82789  0.89101  1.0000
  H   H1663     1.0  0.48872  0.97570  0.77045  1.0000
  H   H1664     1.0  0.47400  0.81052  0.92028  1.0000
  C   C1379     1.0  0.44889  0.90642  0.86279  1.0000
  C   C1380     1.0  0.43844  0.90151  0.85863  1.0000
  C   C1381     1.0  0.43226  0.88973  0.86801  1.0000
  C   C1382     1.0  0.43638  0.88292  0.88164  1.0000
  C   C1383     1.0  0.44661  0.88804  0.88590  1.0000
  C   C1384     1.0  0.45290  0.89972  0.87648  1.0000
  H   H1665     1.0  0.43512  0.90676  0.84819  1.0000
  H   H1666     1.0  0.42431  0.88587  0.86466  1.0000
  H   H1667     1.0  0.44985  0.88293  0.89636  1.0000
  C   C1385     1.0  0.40439  0.92152  0.79787  1.0000
  C   C1386     1.0  0.41651  0.92163  0.78567  1.0000
  C   C1387     1.0  0.41711  0.91499  0.77405  1.0000
  C   C1388     1.0  0.40574  0.90805  0.77476  1.0000
  C   C1389     1.0  0.39374  0.90794  0.78698  1.0000
  H   H1668     1.0  0.44408  0.97940  0.86747  1.0000
  H   H1669     1.0  0.42546  0.92666  0.78525  1.0000
  H   H1670     1.0  0.42654  0.91484  0.76480  1.0000
  H   H1671     1.0  0.38497  0.90252  0.78762  1.0000
  H   H1672     1.0  0.44433  0.87323  0.76377  1.0000
  C   C1390     1.0  0.46619  0.81385  0.87698  1.0000
  H   H1673     1.0  0.34592  0.73854  0.94721  1.0000
  C   C1391     1.0  0.34660  0.79131  0.94269  1.0000
  H   H1674     1.0  0.49152  0.92460  0.74940  1.0000
  N   N95       1.0  0.45422  0.96381  0.74280  1.0000
  C   C1392     1.0  0.47277  0.85216  0.88613  1.0000
  H   H1675     1.0  0.47335  0.74176  0.95533  1.0000
  C   C1393     1.0  0.49170  0.70437  0.94761  1.0000
  H   H1676     1.0  0.40155  0.83490  0.89964  1.0000
  H   H1677     1.0  0.46091  0.90354  0.87979  1.0000
  H   H1678     1.0  0.43125  0.89263  0.80962  1.0000
  S   S385      1.0  0.40314  0.92968  0.81262  1.0000
  S   S386      1.0  0.43681  0.74592  0.97210  1.0000
  H   H1679     1.0  0.45804  0.96701  0.76902  1.0000
  S   S387      1.0  0.46130  0.94552  0.81158  1.0000
  H   H1680     1.0  0.44653  0.85412  0.97522  1.0000
  C   C1394     1.0  0.42276  0.73063  0.96218  1.0000
  C   C1395     1.0  0.43468  0.88791  0.79982  1.0000
  C   C1396     1.0  0.32469  0.76251  0.92479  1.0000
  C   C1397     1.0  0.41996  0.93178  0.87891  1.0000
  C   C1398     1.0  0.30191  0.77843  0.93530  1.0000
  H   H1681     1.0  0.31540  0.72157  0.94673  1.0000
  C   C1399     1.0  0.41006  0.95928  0.86118  1.0000
  H   H1682     1.0  0.38360  0.91468  0.80778  1.0000
  H   H1683     1.0  0.48966  0.93087  0.79259  1.0000
  H   H1684     1.0  0.47069  0.90882  0.74937  1.0000
  H   H1685     1.0  0.48585  0.68811  0.93024  1.0000
  H   H1686     1.0  0.40310  0.84581  0.88123  1.0000
  C   C1400     1.0  0.32634  0.72306  0.94738  1.0000
  H   H1687     1.0  0.38579  0.77556  0.95814  1.0000
  C   C1401     1.0  0.47842  0.75113  0.95200  1.0000
  H   H1688     1.0  0.33712  0.73917  0.91133  1.0000
  H   H1689     1.0  0.39682  0.95411  0.78109  1.0000
  C   C1402     1.0  0.46831  0.68723  0.89497  1.0000
  H   H1690     1.0  0.46904  0.67573  0.90073  1.0000
  H   H1691     1.0  0.35163  0.74364  0.92740  1.0000
  H   H1692     1.0  0.47499  0.86390  0.97283  1.0000
  C   C1403     1.0  0.32126  0.74987  0.93562  1.0000
  H   H1693     1.0  0.43536  0.76155  0.94232  1.0000
  C   C1404     1.0  0.44292  0.78970  0.91219  1.0000
  C   C1405     1.0  0.43109  0.78397  0.98721  1.0000
  H   H1694     1.0  0.39027  0.95139  0.86359  1.0000
  N   N96       1.0  0.33148  0.73509  0.93529  1.0000
  C   C1406     1.0  0.31513  0.77652  0.92463  1.0000
  Fe  Fe195     1.0  0.43851  0.96002  0.81038  1.0000
  C   C1407     1.0  0.47041  0.81112  0.86273  1.0000
  N   N97       1.0  0.44738  0.78209  0.98093  1.0000
  C   C1408     1.0  0.43583  0.80325  0.91610  1.0000
  H   H1695     1.0  0.42144  0.83706  0.86097  1.0000
  H   H1696     1.0  0.45302  0.75812  0.98505  1.0000
  H   H1697     1.0  0.38392  0.97103  0.79589  1.0000
  Fe  Fe196     1.0  0.42463  0.93423  0.81336  1.0000
  H   H1698     1.0  0.33437  0.71218  0.94687  1.0000
  C   C1409     1.0  0.30773  0.75221  0.94644  1.0000
  C   C1410     1.0  0.42355  0.75008  0.93449  1.0000
  H   H1699     1.0  0.42239  0.72313  0.97289  1.0000
  H   H1700     1.0  0.36931  0.78725  0.94359  1.0000
  H   H1701     1.0  0.28794  0.76784  0.95448  1.0000
  C   C1411     1.0  0.35952  0.78261  0.94754  1.0000
  C   C1412     1.0  0.39297  0.91481  0.79839  1.0000
  H   H1702     1.0  0.43308  0.95876  0.75498  1.0000
  C   C1413     1.0  0.33292  0.73096  0.92106  1.0000
  C   C1414     1.0  0.42938  0.74274  0.95886  1.0000
  H   H1703     1.0  0.47500  0.86237  0.88763  1.0000
  C   C1415     1.0  0.45358  0.97737  0.76209  1.0000
  H   H1704     1.0  0.46096  0.68880  0.94950  1.0000
  C   C1416     1.0  0.43152  0.67879  0.98688  1.0000
  H   H1705     1.0  0.37177  0.97648  0.74415  1.0000
  C   C1417     1.0  0.45297  0.79387  0.98354  1.0000
  H   H1706     1.0  0.32550  0.72511  0.95850  1.0000
  C   C1418     1.0  0.44964  0.78209  0.96499  1.0000
  H   H1707     1.0  0.41565  0.87809  0.80552  1.0000
  H   H1708     1.0  0.37492  0.94978  0.74509  1.0000
  H   H1709     1.0  0.43358  0.79611  0.87908  1.0000
  C   C1419     1.0  0.47250  0.71532  0.97183  1.0000
  H   H1710     1.0  0.42664  0.97758  0.83854  1.0000
  C   C1420     1.0  0.42585  0.87974  0.79753  1.0000
  H   H1711     1.0  0.48042  0.87556  0.77798  1.0000
  H   H1712     1.0  0.43663  0.83245  0.87037  1.0000
  C   C1421     1.0  0.33342  0.78625  0.94722  1.0000
  H   H1713     1.0  0.30418  0.74332  0.95516  1.0000
  C   C1422     1.0  0.46675  0.71460  0.96015  1.0000
  N   N98       1.0  0.39819  0.98376  0.77876  1.0000
  H   H1714     1.0  0.46161  0.78015  0.95959  1.0000
  H   H1715     1.0  0.35190  0.66167  0.91562  1.0000
  H   H1716     1.0  0.44379  0.79272  0.95888  1.0000
  H   H1717     1.0  0.46257  0.80317  0.96039  1.0000
  C   C1423     1.0  0.42451  0.95605  0.86439  1.0000
  C   C1424     1.0  0.47042  0.86394  0.86119  1.0000
  H   H1718     1.0  0.33478  0.76164  0.91623  1.0000
  C   C1425     1.0  0.48703  0.84519  0.98640  1.0000
  H   H1719     1.0  0.47105  0.82213  0.96578  1.0000
  H   H1720     1.0  0.45837  0.97691  0.81694  1.0000
  H   H1721     1.0  0.47527  0.69812  0.91654  1.0000
  H   H1722     1.0  0.48406  0.77958  0.92275  1.0000
  C   C1426     1.0  0.49731  0.70486  0.95948  1.0000
  H   H1723     1.0  0.42198  0.82450  0.91084  1.0000
  S   S388      1.0  0.47028  0.92608  0.77639  1.0000
  C   C1427     1.0  0.37040  0.75744  0.97852  1.0000
  C   C1428     1.0  0.44521  0.95346  0.75315  1.0000
  H   H1724     1.0  0.44839  0.94959  0.76406  1.0000
  H   H1725     1.0  0.44535  0.77318  0.96327  1.0000
  H   H1726     1.0  0.45333  0.89790  0.79106  1.0000
  H   H1727     1.0  0.49069  0.71093  0.87507  1.0000
  C   C1429     1.0  0.45181  0.88527  0.77587  1.0000
  H   H1728     1.0  0.47263  0.68111  0.98608  1.0000
  C   C1430     1.0  0.40605  0.93514  0.87525  1.0000
  H   H1729     1.0  0.34690  0.80207  0.93531  1.0000
  Fe  Fe197     1.0  0.49347  0.75490  0.87222  1.0000
  C   C1431     1.0  0.44739  0.89078  0.78912  1.0000
  H   H1730     1.0  0.29448  0.78931  0.93507  1.0000
  C   C1432     1.0  0.47789  0.88693  0.77107  1.0000
  C   C1433     1.0  0.40104  0.97543  0.76697  1.0000
  H   H1731     1.0  0.38148  0.70463  0.97641  1.0000
  H   H1732     1.0  0.39919  0.92700  0.87913  1.0000
  H   H1733     1.0  0.34097  0.72011  0.92019  1.0000
  C   C1434     1.0  0.48885  0.92772  0.77144  1.0000
  H   H1734     1.0  0.41794  0.98685  0.85389  1.0000
  C   C1435     1.0  0.42747  0.81441  0.90688  1.0000
  H   H1735     1.0  0.45679  0.96725  0.84544  1.0000
  H   H1736     1.0  0.32347  0.79309  0.94343  1.0000
  N   N99       1.0  0.46489  0.88907  0.76436  1.0000
  C   C1436     1.0  0.46548  0.81472  0.97488  1.0000
  C   C1437     1.0  0.29825  0.76631  0.94620  1.0000
  C   C1438     1.0  0.44925  0.95940  0.85057  1.0000
  H   H1737     1.0  0.41019  0.85335  0.97975  1.0000
  C   C1439     1.0  0.43004  0.75230  0.94494  1.0000
  S   S389      1.0  0.43501  0.94946  0.79395  1.0000
  C   C1440     1.0  0.46042  0.80372  0.97191  1.0000
  S   S390      1.0  0.48213  0.77390  0.88369  1.0000
  C   C1441     1.0  0.41679  0.72810  0.95153  1.0000
  H   H1738     1.0  0.42386  0.92100  0.88562  1.0000
  C   C1442     1.0  0.49055  0.76729  0.95767  1.0000
  C   C1443     1.0  0.44242  0.87715  0.77380  1.0000
  N   N100      1.0  0.43847  0.72290  0.88733  1.0000
  C   C1444     1.0  0.42532  0.71604  0.89403  1.0000
  C   C1445     1.0  0.43737  0.73409  0.89581  1.0000
  C   C1446     1.0  0.43734  0.73055  0.87185  1.0000
  C   C1447     1.0  0.45304  0.71215  0.88750  1.0000
  C   C1448     1.0  0.46662  0.71686  0.88050  1.0000
  C   C1449     1.0  0.45431  0.69701  0.89493  1.0000
  C   C1450     1.0  0.41161  0.98920  0.77775  1.0000
  H   H1739     1.0  0.46050  0.85308  0.88994  1.0000
  H   H1740     1.0  0.47183  0.87424  0.86334  1.0000
  H   H1741     1.0  0.42464  0.71109  0.90606  1.0000
  H   H1742     1.0  0.41455  0.72437  0.89345  1.0000
  H   H1743     1.0  0.42542  0.70741  0.88823  1.0000
  H   H1744     1.0  0.43729  0.72891  0.90767  1.0000
  H   H1745     1.0  0.42695  0.74289  0.89537  1.0000
  H   H1746     1.0  0.44682  0.73972  0.89159  1.0000
  H   H1747     1.0  0.42619  0.73817  0.87126  1.0000
  H   H1748     1.0  0.44560  0.73760  0.86649  1.0000
  H   H1749     1.0  0.43910  0.72241  0.86486  1.0000
  H   H1750     1.0  0.49221  0.71088  0.98060  1.0000
  H   H1751     1.0  0.44466  0.69243  0.90075  1.0000
  H   H1752     1.0  0.45539  0.94992  0.85782  1.0000
  S   S391      1.0  0.49635  0.77295  0.97061  1.0000
  C   C1451     1.0  0.46821  0.82668  0.87964  1.0000
  N   N101      1.0  0.46964  0.70757  0.93590  1.0000
  C   C1452     1.0  0.45720  0.69973  0.94233  1.0000
  C   C1453     1.0  0.46368  0.72257  0.92775  1.0000
  C   C1454     1.0  0.48064  0.69946  0.92488  1.0000
  C   C1455     1.0  0.47612  0.70876  0.94783  1.0000
  H   H1753     1.0  0.31802  0.78592  0.91608  1.0000
  H   H1754     1.0  0.47290  0.72832  0.92180  1.0000
  C   C1456     1.0  0.44076  0.86168  0.98254  1.0000
  S   S392      1.0  0.48425  0.83170  0.92948  1.0000
  H   H1755     1.0  0.44736  0.70623  0.94894  1.0000
  H   H1756     1.0  0.41465  0.89405  0.98391  1.0000
  H   H1757     1.0  0.47226  0.86791  0.75789  1.0000
  C   C1457     1.0  0.43690  0.97115  0.87130  1.0000
  H   H1758     1.0  0.48027  0.88247  0.74484  1.0000
  H   H1759     1.0  0.36700  0.73814  0.96445  1.0000
  C   C1458     1.0  0.42906  0.94205  0.87363  1.0000
  H   H1760     1.0  0.45494  0.71902  0.96065  1.0000
  C   C1459     1.0  0.35771  0.71313  0.98279  1.0000
  H   H1761     1.0  0.42855  0.83302  0.99056  1.0000
  C   C1460     1.0  0.49670  0.92692  0.75699  1.0000
  C   C1461     1.0  0.40494  0.98246  0.75184  1.0000
  C   C1462     1.0  0.48053  0.70700  0.88064  1.0000
  C   C1463     1.0  0.47487  0.83710  0.86800  1.0000
  H   H1762     1.0  0.46664  0.72824  0.87482  1.0000
  H   H1763     1.0  0.45294  0.69751  0.93360  1.0000
  H   H1764     1.0  0.48965  0.70543  0.91853  1.0000
  C   C1464     1.0  0.35965  0.76836  0.95696  1.0000
  C   C1465     1.0  0.48715  0.84661  0.96091  1.0000
  H   H1765     1.0  0.49728  0.85880  0.86884  1.0000
  Fe  Fe198     1.0  0.35930  0.66088  0.95266  1.0000
  Fe  Fe199     1.0  0.38977  0.66104  0.95702  1.0000
  H   H1766     1.0  0.42666  0.77523  0.98530  1.0000
  C   C1466     1.0  0.47897  0.83402  0.85358  1.0000
  C   C1467     1.0  0.49213  0.82152  0.91548  1.0000
  C   C1468     1.0  0.45074  0.97770  0.74820  1.0000
  S   S393      1.0  0.43086  0.98479  0.80610  1.0000
  H   H1767     1.0  0.41438  0.67666  0.97725  1.0000
  Fe  Fe200     1.0  0.48647  0.75686  0.90401  1.0000
  C   C1469     1.0  0.40553  0.96052  0.74373  1.0000
  H   H1768     1.0  0.46910  0.80098  0.86080  1.0000
  H   H1769     1.0  0.42545  0.82099  0.98100  1.0000
  C   C1470     1.0  0.49021  0.77640  0.94359  1.0000
  C   C1471     1.0  0.33306  0.77246  0.95670  1.0000
  H   H1770     1.0  0.32274  0.76861  0.96037  1.0000
  H   H1771     1.0  0.44687  0.94323  0.74897  1.0000
  H   H1772     1.0  0.46518  0.72039  0.98080  1.0000
  H   H1773     1.0  0.48355  0.85267  0.95069  1.0000
  H   H1774     1.0  0.49432  0.78647  0.94043  1.0000
  H   H1775     1.0  0.41893  0.66366  0.93736  1.0000
  H   H1776     1.0  0.42147  0.97988  0.77908  1.0000
  H   H1777     1.0  0.43987  0.93874  0.87657  1.0000
  S   S394      1.0  0.47083  0.66518  0.93309  1.0000
  H   H1778     1.0  0.42478  0.79486  0.98198  1.0000
  H   H1779     1.0  0.49898  0.84957  0.85441  1.0000
  H   H1780     1.0  0.40586  0.84203  0.97034  1.0000
  H   H1781     1.0  0.32449  0.66941  0.91848  1.0000
  S   S395      1.0  0.49563  0.73746  0.89292  1.0000
  H   H1782     1.0  0.49219  0.68457  0.88787  1.0000
  H   H1783     1.0  0.45801  0.68842  0.97609  1.0000
  H   H1784     1.0  0.46157  0.88240  0.74586  1.0000
  H   H1785     1.0  0.48030  0.81889  0.83999  1.0000
  H   H1786     1.0  0.40082  0.81848  0.98193  1.0000
  C   C1472     1.0  0.49084  0.80455  0.90138  1.0000
  H   H1787     1.0  0.43992  0.67627  0.97726  1.0000
  C   C1473     1.0  0.46144  0.67994  0.98571  1.0000
  H   H1788     1.0  0.49222  0.79773  0.98527  1.0000
  C   C1474     1.0  0.40302  0.84550  0.98115  1.0000
  C   C1475     1.0  0.46328  0.81629  0.98937  1.0000
  C   C1476     1.0  0.42285  0.88422  0.98740  1.0000
  H   H1789     1.0  0.39120  0.85188  0.98281  1.0000
  C   C1477     1.0  0.42857  0.98027  0.84836  1.0000
  H   H1790     1.0  0.49156  0.98180  0.79961  1.0000
  C   C1478     1.0  0.45334  0.66163  0.94299  1.0000
  C   C1479     1.0  0.41683  0.67897  0.98671  1.0000
  H   H1791     1.0  0.44317  0.67028  0.92398  1.0000
  C   C1480     1.0  0.45058  0.99034  0.76737  1.0000
  C   C1481     1.0  0.49627  0.83095  0.98719  1.0000
  H   H1792     1.0  0.52307  0.03898  0.11439  1.0000
  S   S396      1.0  0.56056  0.03757  0.17710  1.0000
  H   H1793     1.0  0.53268  0.10054  0.00595  1.0000
  S   S397      1.0  0.56347  0.04407  0.13419  1.0000
  C   C1482     1.0  0.52726  0.03776  0.12415  1.0000
  S   S398      1.0  0.59076  0.04017  0.19497  1.0000
  C   C1483     1.0  0.51181  0.27516  0.00137  1.0000
  S   S399      1.0  0.55159  0.20623  0.00573  1.0000
  S   S400      1.0  0.56619  0.00836  0.16298  1.0000
  C   C1484     1.0  0.51051  0.06177  0.22008  1.0000
  H   H1794     1.0  0.55918  0.06049  0.21543  1.0000
  C   C1485     1.0  0.52550  0.02944  0.15059  1.0000
  H   H1795     1.0  0.51840  0.13123  0.03800  1.0000
  Fe  Fe201     1.0  0.58299  0.02765  0.18286  1.0000
  H   H1796     1.0  0.54732  0.03136  0.22739  1.0000
  C   C1486     1.0  0.51986  0.02413  0.19823  1.0000
  H   H1797     1.0  0.51045  0.06024  0.18068  1.0000
  S   S401      1.0  0.53374  0.24151  0.99775  1.0000
  S   S402      1.0  0.53528  0.00907  0.19925  1.0000
  C   C1487     1.0  0.53588  0.12224  0.01434  1.0000
  C   C1488     1.0  0.52130  0.03761  0.18846  1.0000
  C   C1489     1.0  0.55968  0.27848  0.99355  1.0000
  H   H1798     1.0  0.50472  0.01221  0.21484  1.0000
  C   C1490     1.0  0.53231  0.06782  0.03019  1.0000
  H   H1799     1.0  0.53172  0.03874  0.18106  1.0000
  C   C1491     1.0  0.54610  0.04041  0.13544  1.0000
  C   C1492     1.0  0.56359  0.26290  0.99646  1.0000
  C   C1493     1.0  0.52360  0.05503  0.22595  1.0000
  C   C1494     1.0  0.54038  0.04250  0.12283  1.0000
  H   H1800     1.0  0.54240  0.07126  0.22476  1.0000
  H   H1801     1.0  0.54630  0.04732  0.11207  1.0000
  H   H1802     1.0  0.51092  0.06642  0.20844  1.0000
  H   H1803     1.0  0.53668  0.13351  0.01463  1.0000
  H   H1804     1.0  0.56298  0.00857  0.11435  1.0000
  H   H1805     1.0  0.58198  0.01434  0.21624  1.0000
  C   C1495     1.0  0.50915  0.04979  0.18818  1.0000
  C   C1496     1.0  0.53296  0.09290  0.01650  1.0000
  S   S403      1.0  0.59416  0.02358  0.15994  1.0000
  H   H1806     1.0  0.58985  0.05611  0.21648  1.0000
  H   H1807     1.0  0.52756  0.07138  0.13410  1.0000
  H   H1808     1.0  0.59107  0.29620  0.99423  1.0000
  H   H1809     1.0  0.53374  0.05777  0.19515  1.0000
  C   C1497     1.0  0.51904  0.11945  0.03805  1.0000
  H   H1810     1.0  0.50960  0.11943  0.03329  1.0000
  H   H1811     1.0  0.54223  0.00442  0.10828  1.0000
  C   C1498     1.0  0.53239  0.07839  0.01699  1.0000
  H   H1812     1.0  0.55319  0.28419  0.00233  1.0000
  C   C1499     1.0  0.53834  0.03432  0.14928  1.0000
  C   C1500     1.0  0.54807  0.05988  0.22293  1.0000
  H   H1813     1.0  0.52061  0.01476  0.23198  1.0000
  H   H1814     1.0  0.51693  0.11343  0.04981  1.0000
  C   C1501     1.0  0.51675  0.07301  0.13148  1.0000
  S   S404      1.0  0.57870  0.00483  0.19254  1.0000
  H   H1815     1.0  0.53192  0.06364  0.05343  1.0000
  C   C1502     1.0  0.52871  0.17529  0.00293  1.0000
  C   C1503     1.0  0.53345  0.09725  0.02938  1.0000
  Fe  Fe202     1.0  0.58834  0.00136  0.16936  1.0000
  C   C1504     1.0  0.54595  0.03818  0.21626  1.0000
  H   H1816     1.0  0.55052  0.05281  0.23364  1.0000
  H   H1817     1.0  0.54639  0.11746  0.00704  1.0000
  H   H1818     1.0  0.50212  0.19640  0.99134  1.0000
  Fe  Fe203     1.0  0.55698  0.01442  0.18509  1.0000
  H   H1819     1.0  0.53152  0.07542  0.00716  1.0000
  C   C1505     1.0  0.52123  0.15473  0.99199  1.0000
  C   C1506     1.0  0.58621  0.03569  0.21445  1.0000
  H   H1820     1.0  0.54561  0.01067  0.12799  1.0000
  H   H1821     1.0  0.54394  0.10740  0.04830  1.0000
  H   H1822     1.0  0.60193  0.31355  0.99674  1.0000
  H   H1823     1.0  0.55675  0.10664  0.03074  1.0000
  H   H1824     1.0  0.52094  0.27801  0.00383  1.0000
  S   S405      1.0  0.52088  0.21525  0.99255  1.0000
  Fe  Fe204     1.0  0.55659  0.22761  0.99111  1.0000
  N   N102      1.0  0.53357  0.11263  0.02940  1.0000
  H   H1825     1.0  0.53146  0.05669  0.03059  1.0000
  C   C1507     1.0  0.51719  0.16817  0.01128  1.0000
  C   C1508     1.0  0.53307  0.08625  0.04270  1.0000
  C   C1509     1.0  0.58173  0.02250  0.22215  1.0000
  C   C1510     1.0  0.50323  0.26668  0.01296  1.0000
  H   H1826     1.0  0.53262  0.08885  0.05311  1.0000
  H   H1827     1.0  0.56279  0.00863  0.13299  1.0000
  H   H1828     1.0  0.54671  0.12414  0.03560  1.0000
  C   C1511     1.0  0.54576  0.11265  0.03631  1.0000
  C   C1512     1.0  0.53930  0.06237  0.20110  1.0000
  S   S406      1.0  0.50561  0.02212  0.14002  1.0000
  C   C1513     1.0  0.55754  0.00478  0.12610  1.0000
  C   C1514     1.0  0.50598  0.02270  0.20744  1.0000
  C   C1515     1.0  0.53263  0.07174  0.04303  1.0000
  Fe  Fe205     1.0  0.57103  0.03103  0.15526  1.0000
  H   H1829     1.0  0.52001  0.02427  0.16135  1.0000
  H   H1830     1.0  0.53244  0.99424  0.09334  1.0000
  H   H1831     1.0  0.50608  0.06717  0.15405  1.0000
  H   H1832     1.0  0.53392  0.07433  0.20064  1.0000
  H   H1833     1.0  0.59387  0.27028  0.99385  1.0000
  C   C1516     1.0  0.51541  0.07700  0.11675  1.0000
  H   H1834     1.0  0.53147  0.18331  0.00717  1.0000
  N   N103      1.0  0.53890  0.05396  0.21663  1.0000
  H   H1835     1.0  0.52631  0.12409  0.00901  1.0000
  H   H1836     1.0  0.54252  0.03300  0.15899  1.0000
  S   S407      1.0  0.51437  0.21733  0.03389  1.0000
  H   H1837     1.0  0.53921  0.03319  0.21196  1.0000
  H   H1838     1.0  0.51111  0.17079  0.02189  1.0000
  C   C1517     1.0  0.57683  0.01984  0.23761  1.0000
  Fe  Fe206     1.0  0.52816  0.21988  0.01077  1.0000
  H   H1839     1.0  0.56018  0.25658  0.00751  1.0000
  C   C1518     1.0  0.52015  0.03076  0.13804  1.0000
  H   H1840     1.0  0.55101  0.06179  0.19455  1.0000
  C   C1519     1.0  0.51324  0.15814  0.00569  1.0000
  C   C1520     1.0  0.58627  0.04595  0.22236  1.0000
  S   S408      1.0  0.50619  0.12090  0.99086  1.0000
  H   H1841     1.0  0.55733  0.03692  0.20897  1.0000
  S   S409      1.0  0.50900  0.02781  0.09624  1.0000
  H   H1842     1.0  0.51001  0.00788  0.18176  1.0000
  C   C1521     1.0  0.58110  0.04344  0.23779  1.0000
  H   H1843     1.0  0.50575  0.26338  0.02393  1.0000
  C   C1522     1.0  0.54446  0.99248  0.11009  1.0000
  H   H1844     1.0  0.52514  0.07845  0.10797  1.0000
  C   C1523     1.0  0.50436  0.07059  0.14283  1.0000
  C   C1524     1.0  0.50162  0.07882  0.11333  1.0000
  H   H1845     1.0  0.50066  0.08172  0.10183  1.0000
  C   C1525     1.0  0.64661  0.05860  0.43241  1.0000
  C   C1526     1.0  0.95193  0.23418  0.48002  1.0000
  H   H1846     1.0  0.98850  0.21393  0.43204  1.0000
  S   S410      1.0  0.64037  0.01961  0.47030  1.0000
  H   H1847     1.0  0.90485  0.18575  0.48491  1.0000
  Fe  Fe207     1.0  0.61907  0.02553  0.46231  1.0000
  S   S411      1.0  0.61974  0.03375  0.43808  1.0000
  C   C1527     1.0  0.89608  0.08860  0.41579  1.0000
  Fe  Fe208     1.0  0.71384  0.05041  0.46491  1.0000
  H   H1848     1.0  0.86809  0.20161  0.43457  1.0000
  S   S412      1.0  0.70168  0.04866  0.44878  1.0000
  H   H1849     1.0  0.85463  0.25949  0.39296  1.0000
  C   C1528     1.0  0.95029  0.31764  0.38510  1.0000
  H   H1850     1.0  0.86724  0.08201  0.40505  1.0000
  C   C1529     1.0  0.86991  0.21177  0.42669  1.0000
  H   H1851     1.0  0.98933  0.19683  0.39478  1.0000
  S   S413      1.0  0.66325  0.99788  0.33407  1.0000
  C   C1530     1.0  0.96572  0.22784  0.48400  1.0000
  S   S414      1.0  0.73694  0.05392  0.46141  1.0000
  Fe  Fe209     1.0  0.81578  0.08447  0.44371  1.0000
  S   S415      1.0  0.81586  0.07448  0.42519  1.0000
  S   S416      1.0  0.80428  0.07413  0.46628  1.0000
  Fe  Fe210     1.0  0.83490  0.10572  0.42394  1.0000
  S   S417      1.0  0.83644  0.09757  0.40358  1.0000
  S   S418      1.0  0.84573  0.12483  0.42095  1.0000
  Fe  Fe211     1.0  0.81213  0.09778  0.41212  1.0000
  S   S419      1.0  0.79557  0.10551  0.39729  1.0000
  Fe  Fe212     1.0  0.84009  0.07495  0.41828  1.0000
  S   S420      1.0  0.85661  0.05568  0.40985  1.0000
  S   S421      1.0  0.80995  0.10801  0.43131  1.0000
  S   S422      1.0  0.84058  0.08293  0.43801  1.0000
  Fe  Fe213     1.0  0.91439  0.17168  0.43053  1.0000
  S   S423      1.0  0.91876  0.17897  0.44904  1.0000
  S   S424      1.0  0.91763  0.18186  0.40618  1.0000
  Fe  Fe214     1.0  0.90460  0.14391  0.45028  1.0000
  S   S425      1.0  0.90838  0.14854  0.47053  1.0000
  S   S426      1.0  0.89671  0.12304  0.45282  1.0000
  Fe  Fe215     1.0  0.89744  0.17208  0.46212  1.0000
  H   H1852     1.0  0.74202  0.99286  0.35274  1.0000
  Fe  Fe216     1.0  0.92946  0.15479  0.45594  1.0000
  S   S427      1.0  0.95119  0.14523  0.46370  1.0000
  S   S428      1.0  0.89202  0.16708  0.44287  1.0000
  S   S429      1.0  0.92670  0.14802  0.43643  1.0000
  C   C1531     1.0  0.94905  0.19784  0.42374  1.0000
  Fe  Fe217     1.0  0.64187  0.99700  0.35097  1.0000
  H   H1853     1.0  0.81090  0.02244  0.34297  1.0000
  H   H1854     1.0  0.62448  0.03352  0.40737  1.0000
  H   H1855     1.0  0.89662  0.31618  0.44325  1.0000
  H   H1856     1.0  0.96132  0.28359  0.44236  1.0000
  H   H1857     1.0  0.88870  0.06254  0.43343  1.0000
  C   C1532     1.0  0.96194  0.17773  0.40421  1.0000
  C   C1533     1.0  0.91395  0.10501  0.42111  1.0000
  C   C1534     1.0  0.85141  0.01250  0.44324  1.0000
  S   S430      1.0  0.67671  0.03156  0.33686  1.0000
  Fe  Fe218     1.0  0.73345  0.07040  0.37806  1.0000
  S   S431      1.0  0.74968  0.06920  0.35624  1.0000
  S   S432      1.0  0.71732  0.08964  0.38665  1.0000
  Fe  Fe219     1.0  0.74452  0.03822  0.39150  1.0000
  S   S433      1.0  0.76140  0.03402  0.37101  1.0000
  S   S434      1.0  0.74342  0.02004  0.41157  1.0000
  Fe  Fe220     1.0  0.76627  0.05566  0.37032  1.0000
  S   S435      1.0  0.79022  0.05508  0.36937  1.0000
  Fe  Fe221     1.0  0.74312  0.04754  0.35916  1.0000
  S   S436      1.0  0.73916  0.03906  0.34115  1.0000
  S   S437      1.0  0.75061  0.05878  0.39176  1.0000
  S   S438      1.0  0.72572  0.04986  0.37988  1.0000
  Fe  Fe222     1.0  0.90709  0.28082  0.41046  1.0000
  S   S439      1.0  0.91197  0.28547  0.38566  1.0000
  S   S440      1.0  0.88294  0.28533  0.42200  1.0000
  Fe  Fe223     1.0  0.94005  0.26910  0.41131  1.0000
  S   S441      1.0  0.94720  0.27212  0.38672  1.0000
  S   S442      1.0  0.95769  0.26270  0.42456  1.0000
  Fe  Fe224     1.0  0.93111  0.29406  0.38685  1.0000
  C   C1535     1.0  0.94747  0.22015  0.43172  1.0000
  Fe  Fe225     1.0  0.92742  0.26293  0.38869  1.0000
  S   S443      1.0  0.92746  0.24651  0.37588  1.0000
  S   S444      1.0  0.92470  0.29145  0.41147  1.0000
  S   S445      1.0  0.92164  0.25790  0.41346  1.0000
  C   C1536     1.0  0.96556  0.30783  0.40365  1.0000
  C   C1537     1.0  0.95659  0.30574  0.39534  1.0000
  H   H1858     1.0  0.85938  0.00218  0.42439  1.0000
  C   C1538     1.0  0.96052  0.20123  0.41121  1.0000
  H   H1859     1.0  0.95477  0.29482  0.39676  1.0000
  H   H1860     1.0  0.73740  0.01835  0.38428  1.0000
  C   C1539     1.0  0.69332  0.03424  0.33948  1.0000
  C   C1540     1.0  0.70076  0.04412  0.32840  1.0000
  C   C1541     1.0  0.71448  0.04601  0.32938  1.0000
  C   C1542     1.0  0.72064  0.03857  0.34177  1.0000
  C   C1543     1.0  0.71294  0.02910  0.35325  1.0000
  C   C1544     1.0  0.69944  0.02666  0.35195  1.0000
  H   H1861     1.0  0.69615  0.04998  0.31873  1.0000
  H   H1862     1.0  0.72044  0.05315  0.32038  1.0000
  H   H1863     1.0  0.71772  0.02319  0.36279  1.0000
  H   H1864     1.0  0.69380  0.01897  0.36056  1.0000
  H   H1865     1.0  0.89620  0.24352  0.37906  1.0000
  C   C1545     1.0  0.52396  0.01115  0.25402  1.0000
  C   C1546     1.0  0.86509  0.15134  0.47139  1.0000
  H   H1866     1.0  0.59922  0.04918  0.27833  1.0000
  Fe  Fe226     1.0  0.63097  0.00071  0.48571  1.0000
  C   C1547     1.0  0.88957  0.28124  0.46288  1.0000
  C   C1548     1.0  0.89219  0.28173  0.44767  1.0000
  C   C1549     1.0  0.88020  0.28654  0.44048  1.0000
  C   C1550     1.0  0.86575  0.29156  0.44833  1.0000
  C   C1551     1.0  0.86323  0.29160  0.46342  1.0000
  H   H1867     1.0  0.89880  0.27720  0.46841  1.0000
  H   H1868     1.0  0.90340  0.27794  0.44163  1.0000
  H   H1869     1.0  0.85646  0.29533  0.44278  1.0000
  C   C1552     1.0  0.73069  0.99782  0.38882  1.0000
  H   H1870     1.0  0.83407  0.03921  0.36999  1.0000
  C   C1553     1.0  0.96637  0.15343  0.45414  1.0000
  C   C1554     1.0  0.98097  0.14465  0.45290  1.0000
  C   C1555     1.0  0.96416  0.16873  0.44860  1.0000
  H   H1871     1.0  0.98272  0.13281  0.45730  1.0000
  H   H1872     1.0  0.95296  0.17557  0.45012  1.0000
  C   C1556     1.0  0.92016  0.19997  0.39856  1.0000
  C   C1557     1.0  0.92070  0.20931  0.40723  1.0000
  C   C1558     1.0  0.92325  0.22360  0.40046  1.0000
  C   C1559     1.0  0.92490  0.22861  0.38506  1.0000
  C   C1560     1.0  0.92415  0.21924  0.37653  1.0000
  C   C1561     1.0  0.92186  0.20498  0.38323  1.0000
  H   H1873     1.0  0.91929  0.20543  0.41909  1.0000
  H   H1874     1.0  0.92409  0.23061  0.40711  1.0000
  H   H1875     1.0  0.92540  0.22301  0.36464  1.0000
  H   H1876     1.0  0.92140  0.19779  0.37648  1.0000
  H   H1877     1.0  0.99269  0.31530  0.47015  1.0000
  H   H1878     1.0  0.82471  0.99545  0.34913  1.0000
  H   H1879     1.0  0.92544  0.08411  0.43215  1.0000
  C   C1562     1.0  0.99671  0.29247  0.36134  1.0000
  C   C1563     1.0  0.79452  0.00431  0.37626  1.0000
  H   H1880     1.0  0.98553  0.30989  0.45753  1.0000
  C   C1564     1.0  0.83957  0.12408  0.48566  1.0000
  H   H1881     1.0  0.78578  0.04270  0.40231  1.0000
  H   H1882     1.0  0.59799  0.01228  0.27357  1.0000
  H   H1883     1.0  0.67138  0.99960  0.46829  1.0000
  C   C1565     1.0  0.85983  0.12399  0.43004  1.0000
  C   C1566     1.0  0.86623  0.13632  0.42667  1.0000
  C   C1567     1.0  0.87741  0.13621  0.43371  1.0000
  C   C1568     1.0  0.88238  0.12368  0.44410  1.0000
  C   C1569     1.0  0.87594  0.11136  0.44754  1.0000
  C   C1570     1.0  0.86463  0.11154  0.44059  1.0000
  H   H1884     1.0  0.86253  0.14600  0.41853  1.0000
  H   H1885     1.0  0.88239  0.14569  0.43086  1.0000
  H   H1886     1.0  0.87973  0.10165  0.45560  1.0000
  H   H1887     1.0  0.85956  0.10212  0.44347  1.0000
  C   C1571     1.0  0.79482  0.09172  0.38875  1.0000
  C   C1572     1.0  0.80537  0.07820  0.38952  1.0000
  C   C1573     1.0  0.80401  0.06704  0.38339  1.0000
  C   C1574     1.0  0.79195  0.06925  0.37673  1.0000
  C   C1575     1.0  0.78136  0.08272  0.37603  1.0000
  C   C1576     1.0  0.78301  0.09403  0.38174  1.0000
  H   H1888     1.0  0.81469  0.07641  0.39465  1.0000
  H   H1889     1.0  0.81225  0.05666  0.38394  1.0000
  H   H1890     1.0  0.77210  0.08457  0.37078  1.0000
  H   H1891     1.0  0.77509  0.10459  0.38080  1.0000
  C   C1577     1.0  0.70451  0.06144  0.43202  1.0000
  C   C1578     1.0  0.71079  0.07340  0.43064  1.0000
  C   C1579     1.0  0.71340  0.08319  0.41687  1.0000
  C   C1580     1.0  0.70997  0.08079  0.40453  1.0000
  C   C1581     1.0  0.70302  0.06927  0.40620  1.0000
  C   C1582     1.0  0.70017  0.05968  0.41995  1.0000
  H   H1892     1.0  0.71384  0.07495  0.44010  1.0000
  H   H1893     1.0  0.71864  0.09219  0.41561  1.0000
  H   H1894     1.0  0.70021  0.06753  0.39671  1.0000
  H   H1895     1.0  0.69498  0.05068  0.42112  1.0000
  C   C1583     1.0  0.75343  0.08448  0.47270  1.0000
  H   H1896     1.0  0.81444  0.02847  0.42054  1.0000
  C   C1584     1.0  0.77707  0.09200  0.46170  1.0000
  C   C1585     1.0  0.78475  0.07827  0.46856  1.0000
  H   H1897     1.0  0.79365  0.01645  0.34788  1.0000
  C   C1586     1.0  0.82590  0.99995  0.38083  1.0000
  H   H1898     1.0  0.59122  0.04013  0.26928  1.0000
  H   H1899     1.0  0.80763  0.02237  0.40266  1.0000
  H   H1900     1.0  0.83218  0.14132  0.44612  1.0000
  C   C1587     1.0  0.66444  0.07844  0.45004  1.0000
  H   H1901     1.0  0.81844  0.04113  0.43718  1.0000
  S   S446      1.0  0.60626  0.03992  0.47845  1.0000
  C   C1588     1.0  0.62906  0.01974  0.42815  1.0000
  H   H1902     1.0  0.96414  0.17086  0.41512  1.0000
  C   C1589     1.0  0.77676  0.06764  0.47740  1.0000
  H   H1903     1.0  0.94716  0.26278  0.45433  1.0000
  H   H1904     1.0  0.88466  0.32030  0.46858  1.0000
  C   C1590     1.0  0.63128  0.02542  0.28152  1.0000
  H   H1905     1.0  0.87389  0.07857  0.43594  1.0000
  C   C1591     1.0  0.96510  0.21457  0.40942  1.0000
  H   H1906     1.0  0.97361  0.21805  0.40008  1.0000
  H   H1907     1.0  0.96899  0.20994  0.38135  1.0000
  C   C1592     1.0  0.74314  0.11159  0.38825  1.0000
  S   S447      1.0  0.75997  0.01640  0.48204  1.0000
  H   H1908     1.0  0.69782  0.00281  0.39198  1.0000
  H   H1909     1.0  0.94259  0.22743  0.43950  1.0000
  C   C1593     1.0  0.84798  0.02585  0.44802  1.0000
  C   C1594     1.0  0.84924  0.03916  0.43773  1.0000
  C   C1595     1.0  0.85446  0.03910  0.42265  1.0000
  C   C1596     1.0  0.85812  0.02575  0.41784  1.0000
  H   H1910     1.0  0.84645  0.04941  0.44153  1.0000
  H   H1911     1.0  0.84773  0.21910  0.47476  1.0000
  H   H1912     1.0  0.99630  0.24570  0.38377  1.0000
  C   C1597     1.0  0.91669  0.08967  0.42601  1.0000
  H   H1913     1.0  0.79542  0.02969  0.35673  1.0000
  C   C1598     1.0  0.86189  0.22550  0.42983  1.0000
  H   H1914     1.0  0.95902  0.27313  0.46749  1.0000
  H   H1915     1.0  0.87306  0.15454  0.47591  1.0000
  H   H1916     1.0  0.69513  0.01867  0.47624  1.0000
  H   H1917     1.0  0.85826  0.24891  0.42306  1.0000
  C   C1599     1.0  0.98578  0.24764  0.45211  1.0000
  H   H1918     1.0  0.88554  0.26093  0.37219  1.0000
  C   C1600     1.0  0.64482  0.99788  0.41169  1.0000
  C   C1601     1.0  0.67946  0.99272  0.46122  1.0000
  H   H1919     1.0  0.84678  0.01959  0.38810  1.0000
  H   H1920     1.0  0.74295  0.00338  0.44478  1.0000
  H   H1921     1.0  0.92167  0.30068  0.43819  1.0000
  N   N104      1.0  0.80748  0.00735  0.36418  1.0000
  H   H1922     1.0  0.78880  0.01419  0.38121  1.0000
  C   C1602     1.0  0.70324  0.99974  0.31866  1.0000
  C   C1603     1.0  0.96856  0.32177  0.40153  1.0000
  C   C1604     1.0  0.86345  0.26386  0.39488  1.0000
  H   H1923     1.0  0.66248  0.05401  0.46910  1.0000
  H   H1924     1.0  0.88907  0.06260  0.40199  1.0000
  C   C1605     1.0  0.57626  0.03044  0.24541  1.0000
  H   H1925     1.0  0.82015  0.12117  0.46194  1.0000
  C   C1606     1.0  0.99107  0.16639  0.44023  1.0000
  H   H1926     1.0  0.95149  0.20882  0.46144  1.0000
  C   C1607     1.0  0.98391  0.31888  0.46344  1.0000
  C   C1608     1.0  0.52145  0.04895  0.24141  1.0000
  H   H1927     1.0  0.63543  0.00337  0.44705  1.0000
  H   H1928     1.0  0.94973  0.18010  0.40455  1.0000
  N   N105      1.0  0.68455  0.01721  0.40680  1.0000
  C   C1609     1.0  0.68857  0.00286  0.40201  1.0000
  C   C1610     1.0  0.69705  0.01777  0.41295  1.0000
  C   C1611     1.0  0.67105  0.01748  0.41892  1.0000
  C   C1612     1.0  0.68137  0.02964  0.39419  1.0000
  C   C1613     1.0  0.67065  0.02993  0.38626  1.0000
  C   C1614     1.0  0.68868  0.04166  0.38937  1.0000
  C   C1615     1.0  0.66791  0.04118  0.37392  1.0000
  C   C1616     1.0  0.68597  0.05279  0.37693  1.0000
  C   C1617     1.0  0.67569  0.05249  0.36915  1.0000
  H   H1929     1.0  0.77999  0.08413  0.41720  1.0000
  N   N106      1.0  0.65508  0.06855  0.44968  1.0000
  C   C1618     1.0  0.75316  0.10043  0.41085  1.0000
  H   H1930     1.0  0.70738  0.01822  0.40421  1.0000
  H   H1931     1.0  0.69988  0.00780  0.42172  1.0000
  H   H1932     1.0  0.69433  0.02758  0.41802  1.0000
  H   H1933     1.0  0.67277  0.00803  0.42847  1.0000
  H   H1934     1.0  0.66783  0.02798  0.42301  1.0000
  H   H1935     1.0  0.69675  0.04259  0.39487  1.0000
  H   H1936     1.0  0.69212  0.06154  0.37308  1.0000
  H   H1937     1.0  0.67397  0.06085  0.35922  1.0000
  H   H1938     1.0  0.50581  0.04544  0.26229  1.0000
  C   C1619     1.0  0.64190  0.02536  0.30177  1.0000
  C   C1620     1.0  0.94696  0.22751  0.47163  1.0000
  H   H1939     1.0  0.98256  0.32154  0.36606  1.0000
  H   H1940     1.0  0.85903  0.26842  0.40511  1.0000
  H   H1941     1.0  0.65434  0.02569  0.27943  1.0000
  H   H1942     1.0  0.76719  0.03530  0.44200  1.0000
  H   H1943     1.0  0.60546  0.02448  0.31436  1.0000
  C   C1621     1.0  0.74606  0.12514  0.38771  1.0000
  H   H1944     1.0  0.97052  0.29851  0.41140  1.0000
  C   C1622     1.0  0.96427  0.19988  0.38562  1.0000
  N   N107      1.0  0.89368  0.23198  0.45304  1.0000
  C   C1623     1.0  0.89574  0.22715  0.43905  1.0000
  C   C1624     1.0  0.90104  0.24460  0.44939  1.0000
  C   C1625     1.0  0.90155  0.21967  0.46327  1.0000
  C   C1626     1.0  0.87758  0.23571  0.46003  1.0000
  C   C1627     1.0  0.89375  0.10426  0.41072  1.0000
  H   H1945     1.0  0.67640  0.07434  0.44514  1.0000
  H   H1946     1.0  0.77652  0.02933  0.40091  1.0000
  C   C1628     1.0  0.89594  0.06925  0.40404  1.0000
  Fe  Fe227     1.0  0.57015  0.00351  0.27389  1.0000
  H   H1947     1.0  0.90775  0.22483  0.43338  1.0000
  H   H1948     1.0  0.89188  0.21679  0.44086  1.0000
  H   H1949     1.0  0.88956  0.23589  0.43127  1.0000
  H   H1950     1.0  0.89580  0.25411  0.44145  1.0000
  H   H1951     1.0  0.91312  0.24151  0.44424  1.0000
  H   H1952     1.0  0.90059  0.24842  0.45949  1.0000
  H   H1953     1.0  0.89917  0.22223  0.47444  1.0000
  H   H1954     1.0  0.89816  0.20912  0.46474  1.0000
  H   H1955     1.0  0.91388  0.21746  0.45927  1.0000
  H   H1956     1.0  0.88986  0.26853  0.39350  1.0000
  H   H1957     1.0  0.87592  0.25857  0.46152  1.0000
  H   H1958     1.0  0.95224  0.30198  0.44534  1.0000
  H   H1959     1.0  0.96750  0.17063  0.39592  1.0000
  C   C1629     1.0  0.87469  0.23831  0.40593  1.0000
  N   N108      1.0  0.78722  0.02289  0.41951  1.0000
  C   C1630     1.0  0.80104  0.01472  0.41094  1.0000
  C   C1631     1.0  0.77772  0.01213  0.42779  1.0000
  C   C1632     1.0  0.77912  0.03432  0.40885  1.0000
  C   C1633     1.0  0.79031  0.03024  0.42973  1.0000
  C   C1634     1.0  0.77853  0.03627  0.44065  1.0000
  C   C1635     1.0  0.80480  0.03233  0.42867  1.0000
  C   C1636     1.0  0.78112  0.04380  0.44999  1.0000
  C   C1637     1.0  0.80728  0.03971  0.43818  1.0000
  C   C1638     1.0  0.79547  0.04554  0.44871  1.0000
  H   H1960     1.0  0.75324  0.00744  0.32854  1.0000
  C   C1639     1.0  0.83184  0.02819  0.37297  1.0000
  C   C1640     1.0  0.50180  0.01081  0.27372  1.0000
  H   H1961     1.0  0.76597  0.01767  0.43183  1.0000
  H   H1962     1.0  0.78223  0.00456  0.43741  1.0000
  H   H1963     1.0  0.79790  0.99499  0.38531  1.0000
  H   H1964     1.0  0.96773  0.29862  0.47948  1.0000
  H   H1965     1.0  0.52398  0.00782  0.27710  1.0000
  H   H1966     1.0  0.76824  0.04034  0.41456  1.0000
  C   C1641     1.0  0.66078  0.05358  0.45821  1.0000
  H   H1967     1.0  0.88313  0.25970  0.41214  1.0000
  H   H1968     1.0  0.77199  0.04823  0.45834  1.0000
  C   C1642     1.0  0.99035  0.23509  0.44594  1.0000
  H   H1969     1.0  0.79751  0.05144  0.45585  1.0000
  C   C1643     1.0  0.87411  0.08896  0.40648  1.0000
  H   H1970     1.0  0.94479  0.18799  0.42602  1.0000
  C   C1644     1.0  0.60760  0.01251  0.27791  1.0000
  C   C1645     1.0  0.88074  0.19152  0.49050  1.0000
  C   C1646     1.0  0.64653  0.05739  0.41823  1.0000
  C   C1647     1.0  0.95027  0.29148  0.44434  1.0000
  H   H1971     1.0  0.94616  0.29366  0.43399  1.0000
  C   C1648     1.0  0.94781  0.28055  0.47023  1.0000
  C   C1649     1.0  0.96934  0.20783  0.47166  1.0000
  H   H1972     1.0  0.93427  0.20418  0.44349  1.0000
  H   H1973     1.0  0.72369  0.00059  0.34925  1.0000
  H   H1974     1.0  0.87813  0.09526  0.39518  1.0000
  C   C1650     1.0  0.88450  0.25020  0.38010  1.0000
  N   N109      1.0  0.96748  0.19160  0.40029  1.0000
  H   H1975     1.0  0.74588  0.02099  0.45778  1.0000
  C   C1651     1.0  0.88289  0.22410  0.40324  1.0000
  S   S448      1.0  0.56912  0.02772  0.26458  1.0000
  S   S449      1.0  0.84964  0.99606  0.45649  1.0000
  C   C1652     1.0  0.91730  0.30284  0.44918  1.0000
  H   H1976     1.0  0.84902  0.15024  0.45466  1.0000
  H   H1977     1.0  0.63967  0.05073  0.41688  1.0000
  C   C1653     1.0  0.86907  0.12729  0.48736  1.0000
  C   C1654     1.0  0.97442  0.21471  0.47986  1.0000
  H   H1978     1.0  0.63976  0.05258  0.44170  1.0000
  H   H1979     1.0  0.72849  0.99959  0.37793  1.0000
  N   N110      1.0  0.85736  0.14028  0.48249  1.0000
  C   C1655     1.0  0.88044  0.21108  0.41347  1.0000
  C   C1656     1.0  0.90801  0.08152  0.42329  1.0000
  H   H1980     1.0  0.99230  0.26585  0.45557  1.0000
  C   C1657     1.0  0.75084  0.00931  0.46085  1.0000
  H   H1981     1.0  0.89881  0.24982  0.40061  1.0000
  C   C1658     1.0  0.99591  0.25613  0.45078  1.0000
  C   C1659     1.0  0.84715  0.24153  0.47513  1.0000
  C   C1660     1.0  0.70976  0.01092  0.45091  1.0000
  H   H1982     1.0  0.71535  0.01751  0.45472  1.0000
  C   C1661     1.0  0.61574  0.02495  0.30617  1.0000
  N   N111      1.0  0.80529  0.00436  0.48403  1.0000
  C   C1662     1.0  0.74664  0.09938  0.39957  1.0000
  H   H1983     1.0  0.71275  0.01087  0.32875  1.0000
  S   S450      1.0  0.61062  0.00565  0.47629  1.0000
  C   C1663     1.0  0.60123  0.03922  0.27363  1.0000
  H   H1984     1.0  0.87175  0.14681  0.46149  1.0000
  N   N112      1.0  0.96863  0.32168  0.47283  1.0000
  H   H1985     1.0  0.77305  0.07685  0.43636  1.0000
  C   C1664     1.0  0.63957  0.07440  0.45726  1.0000
  C   C1665     1.0  0.82177  0.02515  0.36656  1.0000
  H   H1986     1.0  0.70223  0.01891  0.44386  1.0000
  Fe  Fe228     1.0  0.72644  0.06703  0.47925  1.0000
  C   C1666     1.0  0.97535  0.16348  0.48504  1.0000
  H   H1987     1.0  0.65138  0.02541  0.30595  1.0000
  H   H1988     1.0  0.58070  0.02480  0.29145  1.0000
  C   C1667     1.0  0.95869  0.22377  0.41964  1.0000
  Fe  Fe229     1.0  0.73974  0.03487  0.48064  1.0000
  S   S451      1.0  0.73389  0.08824  0.47494  1.0000
  S   S452      1.0  0.71796  0.02980  0.48208  1.0000
  H   H1989     1.0  0.65492  0.06389  0.39483  1.0000
  H   H1990     1.0  0.75890  0.06417  0.43023  1.0000
  H   H1991     1.0  0.59243  0.99750  0.33958  1.0000
  C   C1668     1.0  0.65509  0.06481  0.40579  1.0000
  H   H1992     1.0  0.63209  0.06673  0.45913  1.0000
  C   C1669     1.0  0.77081  0.08625  0.42689  1.0000
  H   H1993     1.0  0.59136  0.01443  0.30504  1.0000
  H   H1994     1.0  0.84440  0.02593  0.45971  1.0000
  S   S453      1.0  0.64583  0.01177  0.36350  1.0000
  H   H1995     1.0  0.86227  0.02568  0.40619  1.0000
  C   C1670     1.0  0.50713  0.05006  0.25050  1.0000
  H   H1996     1.0  0.86644  0.09692  0.41328  1.0000
  C   C1671     1.0  0.85639  0.01247  0.42812  1.0000
  H   H1997     1.0  0.63918  0.07599  0.46846  1.0000
  H   H1998     1.0  0.68183  0.01941  0.46605  1.0000
  C   C1672     1.0  0.98669  0.26530  0.41665  1.0000
  S   S454      1.0  0.92947  0.23536  0.46737  1.0000
  H   H1999     1.0  0.96238  0.23378  0.41830  1.0000
  H   H2000     1.0  0.71875  0.00434  0.44366  1.0000
  C   C1673     1.0  0.62992  0.02274  0.41288  1.0000
  C   C1674     1.0  0.63772  0.01181  0.40468  1.0000
  H   H2001     1.0  0.63823  0.01424  0.39295  1.0000
  C   C1675     1.0  0.66381  0.07346  0.40746  1.0000
  H   H2002     1.0  0.80823  0.00685  0.41842  1.0000
  H   H2003     1.0  0.53087  0.04325  0.24659  1.0000
  H   H2004     1.0  0.85380  0.22600  0.44021  1.0000
  H   H2005     1.0  0.53593  0.01019  0.25040  1.0000
  H   H2006     1.0  0.90122  0.07527  0.39308  1.0000
  H   H2007     1.0  0.65295  0.04618  0.46067  1.0000
  N   N113      1.0  0.93992  0.28527  0.45774  1.0000
  C   C1676     1.0  0.96734  0.30798  0.48440  1.0000
  C   C1677     1.0  0.73583  0.00839  0.39241  1.0000
  C   C1678     1.0  0.65521  0.06747  0.43453  1.0000
  H   H2008     1.0  0.98489  0.29786  0.36555  1.0000
  H   H2009     1.0  0.73288  0.09241  0.43478  1.0000
  H   H2010     1.0  0.88682  0.20036  0.41111  1.0000
  S   S455      1.0  0.61898  0.00030  0.34617  1.0000
  N   N114      1.0  0.75600  0.08796  0.42353  1.0000
  C   C1679     1.0  0.92550  0.29614  0.46054  1.0000
  C   C1680     1.0  0.91851  0.29928  0.47480  1.0000
  H   H2011     1.0  0.88486  0.11073  0.40510  1.0000
  H   H2012     1.0  0.68384  0.00528  0.48277  1.0000
  H   H2013     1.0  0.90045  0.12422  0.40970  1.0000
  H   H2014     1.0  0.80798  0.02702  0.47675  1.0000
  C   C1681     1.0  0.76140  0.09521  0.46402  1.0000
  H   H2015     1.0  0.66128  0.01678  0.41522  1.0000
  C   C1682     1.0  0.74421  0.00605  0.32404  1.0000
  H   H2016     1.0  0.63307  0.02563  0.26986  1.0000
  H   H2017     1.0  0.95330  0.16555  0.48174  1.0000
  H   H2018     1.0  0.67172  0.04816  0.45204  1.0000
  H   H2019     1.0  0.93263  0.27427  0.44498  1.0000
  C   C1683     1.0  0.81847  0.01087  0.37032  1.0000
  H   H2020     1.0  0.94515  0.24425  0.48347  1.0000
  H   H2021     1.0  0.81664  0.03426  0.35878  1.0000
  C   C1684     1.0  0.80079  0.00503  0.47018  1.0000
  H   H2022     1.0  0.99709  0.22591  0.41602  1.0000
  H   H2023     1.0  0.69300  0.00831  0.31878  1.0000
  H   H2024     1.0  0.87375  0.21400  0.46161  1.0000
  C   C1685     1.0  0.93696  0.27190  0.45524  1.0000
  H   H2025     1.0  0.82433  0.01349  0.47162  1.0000
  C   C1686     1.0  0.76118  0.07062  0.47919  1.0000
  C   C1687     1.0  0.73853  0.00616  0.40657  1.0000
  C   C1688     1.0  0.75894  0.00414  0.47209  1.0000
  H   H2026     1.0  0.66451  0.02128  0.38934  1.0000
  H   H2027     1.0  0.74820  0.00700  0.31187  1.0000
  C   C1689     1.0  0.97650  0.17521  0.44173  1.0000
  H   H2028     1.0  0.98210  0.22877  0.44755  1.0000
  H   H2029     1.0  0.66060  0.09000  0.44406  1.0000
  H   H2030     1.0  0.90501  0.06118  0.40911  1.0000
  C   C1690     1.0  0.51720  0.00990  0.26900  1.0000
  H   H2031     1.0  0.66410  0.07896  0.46159  1.0000
  H   H2032     1.0  0.61724  0.01267  0.26833  1.0000
  H   H2033     1.0  0.98033  0.15644  0.47710  1.0000
  H   H2034     1.0  0.98398  0.27086  0.42574  1.0000
  H   H2035     1.0  0.97590  0.19748  0.46868  1.0000
  C   C1691     1.0  0.94274  0.20716  0.43385  1.0000
  S   S456      1.0  0.70293  0.06521  0.48101  1.0000
  S   S457      1.0  0.93879  0.31500  0.37492  1.0000
  Fe  Fe230     1.0  0.66825  0.01072  0.34792  1.0000
  H   H2036     1.0  0.77188  0.09606  0.43015  1.0000
  H   H2037     1.0  0.98675  0.18149  0.41001  1.0000
  C   C1692     1.0  0.71466  0.00114  0.32436  1.0000
  H   H2038     1.0  0.95200  0.20364  0.38625  1.0000
  H   H2039     1.0  0.73489  0.01580  0.32586  1.0000
  C   C1693     1.0  0.89615  0.31410  0.46623  1.0000
  H   H2040     1.0  0.66012  0.04084  0.36766  1.0000
  H   H2041     1.0  0.92845  0.26737  0.46435  1.0000
  H   H2042     1.0  0.67901  0.00039  0.39933  1.0000
  N   N115      1.0  0.88668  0.07976  0.41359  1.0000
  H   H2043     1.0  0.85203  0.29539  0.46950  1.0000
  H   H2044     1.0  0.86517  0.27373  0.38585  1.0000
  H   H2045     1.0  0.73818  0.11043  0.37979  1.0000
  H   H2046     1.0  0.75546  0.10598  0.45902  1.0000
  C   C1694     1.0  0.87509  0.28616  0.47080  1.0000
  C   C1695     1.0  0.83898  0.01717  0.38318  1.0000
  C   C1696     1.0  0.80169  0.01952  0.35241  1.0000
  H   H2047     1.0  0.97432  0.25070  0.45795  1.0000
  H   H2048     1.0  0.92038  0.11137  0.42361  1.0000
  H   H2049     1.0  0.78317  0.10029  0.45497  1.0000
  C   C1697     1.0  0.86436  0.23860  0.41975  1.0000
  C   C1698     1.0  0.68999  0.01161  0.47253  1.0000
  H   H2050     1.0  0.76383  0.07113  0.41059  1.0000
  H   H2051     1.0  0.76014  0.11643  0.41847  1.0000
  H   H2052     1.0  0.87223  0.06510  0.42694  1.0000
  H   H2053     1.0  0.89139  0.22272  0.39334  1.0000
  H   H2054     1.0  0.67095  0.08171  0.42202  1.0000
  C   C1699     1.0  0.74912  0.99934  0.45352  1.0000
  C   C1700     1.0  0.90396  0.30794  0.47759  1.0000
  H   H2055     1.0  0.77683  0.00503  0.42076  1.0000
  H   H2056     1.0  0.63456  0.08526  0.45072  1.0000
  H   H2057     1.0  0.74410  0.08927  0.39917  1.0000
  C   C1701     1.0  0.75231  0.12661  0.39864  1.0000
  H   H2058     1.0  0.96894  0.19293  0.37712  1.0000
  N   N116      1.0  0.60415  0.02539  0.28497  1.0000
  C   C1702     1.0  0.90267  0.11225  0.41330  1.0000
  C   C1703     1.0  0.66388  0.07487  0.42158  1.0000
  C   C1704     1.0  0.63606  0.00576  0.43524  1.0000
  H   H2059     1.0  0.58634  0.03450  0.30170  1.0000
  H   H2060     1.0  0.97477  0.18710  0.43777  1.0000
  H   H2061     1.0  0.79429  0.01624  0.46597  1.0000
  C   C1705     1.0  0.61699  0.02513  0.29101  1.0000
  H   H2062     1.0  0.74354  0.13450  0.37879  1.0000
  H   H2063     1.0  0.74571  0.08190  0.44651  1.0000
  H   H2064     1.0  0.74443  0.07299  0.42038  1.0000
  H   H2065     1.0  0.61068  0.03981  0.26385  1.0000
  C   C1706     1.0  0.88777  0.25778  0.40069  1.0000
  H   H2066     1.0  0.98947  0.17947  0.39137  1.0000
  C   C1707     1.0  0.95560  0.21431  0.46744  1.0000
  C   C1708     1.0  0.87027  0.24969  0.46381  1.0000
  C   C1709     1.0  0.97552  0.26089  0.41312  1.0000
  C   C1710     1.0  0.86889  0.22491  0.46394  1.0000
  H   H2067     1.0  0.79850  0.00793  0.40462  1.0000
  C   C1711     1.0  0.59007  0.02477  0.29635  1.0000
  C   C1712     1.0  0.62805  0.02514  0.31136  1.0000
  H   H2068     1.0  0.91056  0.06965  0.42730  1.0000
  C   C1713     1.0  0.74424  0.09103  0.43670  1.0000
  C   C1714     1.0  0.75577  0.07345  0.42100  1.0000
  H   H2069     1.0  0.62686  0.02491  0.32300  1.0000
  H   H2070     1.0  0.75515  0.06232  0.48594  1.0000
  H   H2071     1.0  0.97040  0.25086  0.39808  1.0000
  C   C1715     1.0  0.88014  0.07115  0.42810  1.0000
  H   H2072     1.0  0.75471  0.13712  0.39816  1.0000
  C   C1716     1.0  0.99361  0.25124  0.39291  1.0000
  N   N117      1.0  0.87752  0.25224  0.39550  1.0000
  C   C1717     1.0  0.97892  0.25424  0.40098  1.0000
  C   C1718     1.0  0.98393  0.18722  0.39904  1.0000
  C   C1719     1.0  0.75561  0.11454  0.41016  1.0000
  H   H2073     1.0  0.87790  0.24480  0.37607  1.0000
  H   H2074     1.0  0.78263  0.05704  0.48278  1.0000
  H   H2075     1.0  0.67056  0.07916  0.39774  1.0000
  H   H2076     1.0  0.74440  0.10134  0.43978  1.0000
  C   C1720     1.0  0.64353  0.02550  0.28687  1.0000
  C   C1721     1.0  0.82736  0.12525  0.46616  1.0000
  H   H2077     1.0  0.87436  0.12078  0.47853  1.0000
  C   C1722     1.0  0.83000  0.11903  0.48036  1.0000
  H   H2078     1.0  0.78610  0.00122  0.37227  1.0000
  S   S458      1.0  0.99172  0.20702  0.48475  1.0000
  H   H2079     1.0  0.57328  0.00967  0.24343  1.0000
  H   H2080     1.0  0.99242  0.30346  0.38498  1.0000
  C   C1723     1.0  0.84386  0.14168  0.46236  1.0000
  N   N118      1.0  0.70141  0.00155  0.46355  1.0000
  C   C1724     1.0  0.90290  0.31175  0.45199  1.0000
  C   C1725     1.0  0.95983  0.16879  0.48749  1.0000
  H   H2081     1.0  0.61019  0.00186  0.28597  1.0000
  C   C1726     1.0  0.83414  0.13665  0.45726  1.0000
  C   C1727     1.0  0.51530  0.01371  0.24364  1.0000
  S   S459      1.0  0.99681  0.27684  0.47839  1.0000
  C   C1728     1.0  0.85530  0.25249  0.47126  1.0000
  C   C1729     1.0  0.83604  0.00306  0.38707  1.0000
  C   C1730     1.0  0.81438  0.01561  0.48066  1.0000
  Fe  Fe231     1.0  0.91562  0.24385  0.48743  1.0000
  H   H2082     1.0  0.94955  0.29028  0.47315  1.0000
  H   H2083     1.0  0.94159  0.27410  0.48028  1.0000
  H   H2084     1.0  0.79353  0.99728  0.47170  1.0000
  H   H2085     1.0  0.99831  0.29358  0.34919  1.0000
  H   H2086     1.0  0.82468  0.11015  0.48724  1.0000
  C   C1731     1.0  0.85393  0.22777  0.47143  1.0000
  H   H2087     1.0  0.71682  0.99844  0.47753  1.0000
  H   H2088     1.0  0.85014  0.26314  0.47435  1.0000
  H   H2089     1.0  0.85710  0.16183  0.46782  1.0000
  C   C1732     1.0  0.64395  0.99485  0.42701  1.0000
  C   C1733     1.0  0.99330  0.15110  0.44586  1.0000
  Fe  Fe232     1.0  0.62689  0.03243  0.48773  1.0000
  H   H2090     1.0  0.58076  0.05164  0.24376  1.0000
  H   H2091     1.0  0.89852  0.30947  0.48875  1.0000
  H   H2092     1.0  0.87821  0.13063  0.48996  1.0000
  S   S460      1.0  0.98075  0.32382  0.41125  1.0000
  H   H2093     1.0  0.92378  0.29466  0.48417  1.0000
  H   H2094     1.0  0.81077  0.00223  0.46130  1.0000
  C   C1734     1.0  0.84697  0.13543  0.47674  1.0000
  S   S461      1.0  0.87785  0.18443  0.47660  1.0000
  H   H2095     1.0  0.69239  0.99331  0.41075  1.0000
  H   H2096     1.0  0.83566  0.24365  0.48121  1.0000
  H   H2097     1.0  0.83519  0.99347  0.48757  1.0000
  H   H2098     1.0  0.99786  0.28046  0.36667  1.0000
  C   C1735     1.0  0.81438  0.99398  0.35768  1.0000
  H   H2099     1.0  0.84164  0.99447  0.39498  1.0000
  S   S462      1.0  0.56779  0.99322  0.29808  1.0000
  C   C1736     1.0  0.49984  0.01498  0.24821  1.0000
  C   C1737     1.0  0.73667  0.99310  0.41688  1.0000
  C   C1738     1.0  0.69504  0.99227  0.45796  1.0000
  C   C1739     1.0  0.60189  0.99270  0.33179  1.0000
  C   C1740     1.0  0.61645  0.99267  0.33245  1.0000
  H   H2100     1.0  0.81819  0.01580  0.49057  1.0000
  S   S463      1.0  0.87162  0.28480  0.49000  1.0000
  H   H2101     1.0  0.99955  0.20415  0.45317  1.0000
  C   C1741     1.0  0.99935  0.21568  0.42466  1.0000
  C   C1742     1.0  0.99249  0.32495  0.35896  1.0000
  N   N119      1.0  0.73978  0.99173  0.33129  1.0000
  C   C1743     1.0  0.71187  0.99187  0.47301  1.0000
  H   H2102     1.0  0.97668  0.30430  0.49040  1.0000
  H   H2103     1.0  0.96950  0.23311  0.49037  1.0000
  S   S464      1.0  0.57631  0.02019  0.50620  1.0000
  C   C1744     1.0  0.58167  0.00718  0.54868  1.0000
  C   C1745     1.0  0.93420  0.22200  0.55076  1.0000
  C   C1746     1.0  0.98457  0.26037  0.53989  1.0000
  S   S465      1.0  0.98467  0.29279  0.55954  1.0000
  S   S466      1.0  0.51883  0.02016  0.57901  1.0000
  H   H2104     1.0  0.59078  0.00230  0.55444  1.0000
  H   H2105     1.0  0.57491  0.02791  0.61709  1.0000
  S   S467      1.0  0.53476  0.03312  0.59740  1.0000
  H   H2106     1.0  0.57519  0.99765  0.67822  1.0000
  H   H2107     1.0  0.56972  0.01699  0.67752  1.0000
  H   H2108     1.0  0.65028  0.02252  0.50532  1.0000
  N   N120      1.0  0.57492  0.00369  0.69844  1.0000
  H   H2109     1.0  0.97946  0.30694  0.59998  1.0000
  H   H2110     1.0  0.59595  0.00814  0.52706  1.0000
  H   H2111     1.0  0.78356  0.00180  0.49749  1.0000
  C   C1747     1.0  0.92113  0.23245  0.55576  1.0000
  S   S468      1.0  0.97663  0.31234  0.51916  1.0000
  H   H2112     1.0  0.52726  0.02365  0.66779  1.0000
  C   C1748     1.0  0.98549  0.27545  0.55615  1.0000
  C   C1749     1.0  0.55521  0.01639  0.54929  1.0000
  H   H2113     1.0  0.97795  0.28413  0.53565  1.0000
  C   C1750     1.0  0.52082  0.02184  0.72339  1.0000
  H   H2114     1.0  0.56284  0.03312  0.60417  1.0000
  H   H2115     1.0  0.56835  0.05397  0.66861  1.0000
  H   H2116     1.0  0.56128  0.03812  0.56742  1.0000
  H   H2117     1.0  0.73504  0.00632  0.53115  1.0000
  S   S469      1.0  0.92858  0.25978  0.52679  1.0000
  C   C1751     1.0  0.88417  0.20456  0.51206  1.0000
  H   H2118     1.0  0.55149  0.01456  0.70039  1.0000
  C   C1752     1.0  0.53246  0.04464  0.70247  1.0000
  H   H2119     1.0  0.98233  0.25960  0.52969  1.0000
  S   S470      1.0  0.69218  0.03419  0.51691  1.0000
  C   C1753     1.0  0.93203  0.21021  0.54584  1.0000
  C   C1754     1.0  0.99222  0.24856  0.56316  1.0000
  S   S471      1.0  0.91246  0.26609  0.49237  1.0000
  C   C1755     1.0  0.93356  0.30764  0.51819  1.0000
  C   C1756     1.0  0.92280  0.30457  0.51266  1.0000
  C   C1757     1.0  0.92113  0.28992  0.51524  1.0000
  C   C1758     1.0  0.93034  0.27828  0.52323  1.0000
  C   C1759     1.0  0.94113  0.28137  0.52868  1.0000
  C   C1760     1.0  0.94271  0.29599  0.52620  1.0000
  S   S472      1.0  0.98459  0.24138  0.50549  1.0000
  H   H2120     1.0  0.91256  0.28766  0.51131  1.0000
  H   H2121     1.0  0.95090  0.29822  0.53068  1.0000
  C   C1761     1.0  0.57055  0.05733  0.60288  1.0000
  H   H2122     1.0  0.67455  0.06211  0.50493  1.0000
  H   H2123     1.0  0.54725  0.03800  0.64413  1.0000
  H   H2124     1.0  0.94827  0.27245  0.53490  1.0000
  C   C1762     1.0  0.55733  0.04487  0.65754  1.0000
  C   C1763     1.0  0.67543  0.03866  0.51079  1.0000
  S   S473      1.0  0.53919  0.05920  0.68944  1.0000
  H   H2125     1.0  0.86013  0.20976  0.51799  1.0000
  Fe  Fe233     1.0  0.97745  0.31258  0.54214  1.0000
  H   H2126     1.0  0.90785  0.19767  0.50369  1.0000
  H   H2127     1.0  0.79468  0.00798  0.50599  1.0000
  C   C1764     1.0  0.53426  0.04148  0.71706  1.0000
  C   C1765     1.0  0.52821  0.03023  0.72758  1.0000
  H   H2128     1.0  0.53989  0.04803  0.72033  1.0000
  C   C1766     1.0  0.65553  0.03116  0.50528  1.0000
  H   H2129     1.0  0.73896  0.01137  0.51109  1.0000
  Fe  Fe234     1.0  0.52319  0.02009  0.61799  1.0000
  C   C1767     1.0  0.56363  0.03419  0.61518  1.0000
  H   H2130     1.0  0.52344  0.03884  0.68704  1.0000
  H   H2131     1.0  0.52930  0.02803  0.73893  1.0000
  H   H2132     1.0  0.58334  0.06574  0.64539  1.0000
  H   H2133     1.0  0.59184  0.07639  0.50363  1.0000
  H   H2134     1.0  0.96970  0.22601  0.53410  1.0000
  C   C1768     1.0  0.56369  0.05066  0.63035  1.0000
  C   C1769     1.0  0.59361  0.02326  0.71579  1.0000
  C   C1770     1.0  0.95719  0.20955  0.55942  1.0000
  H   H2135     1.0  0.96583  0.30642  0.59050  1.0000
  N   N121      1.0  0.56093  0.04993  0.61613  1.0000
  H   H2136     1.0  0.59623  0.00080  0.71517  1.0000
  Fe  Fe235     1.0  0.89484  0.23321  0.51544  1.0000
  H   H2137     1.0  0.95957  0.21515  0.52996  1.0000
  S   S474      1.0  0.61981  0.01285  0.50419  1.0000
  C   C1771     1.0  0.89679  0.19783  0.50264  1.0000
  C   C1772     1.0  0.97663  0.17719  0.50225  1.0000
  S   S475      1.0  0.88597  0.21261  0.52579  1.0000
  C   C1773     1.0  0.57290  0.01648  0.52565  1.0000
  C   C1774     1.0  0.55818  0.01950  0.53375  1.0000
  C   C1775     1.0  0.58463  0.01045  0.53316  1.0000
  H   H2138     1.0  0.58875  0.04668  0.71517  1.0000
  C   C1776     1.0  0.66853  0.02749  0.51097  1.0000
  S   S476      1.0  0.63305  0.05110  0.49265  1.0000
  H   H2139     1.0  0.54903  0.02420  0.52802  1.0000
  H   H2140     1.0  0.85639  0.15126  0.49971  1.0000
  H   H2141     1.0  0.94141  0.20197  0.54169  1.0000
  H   H2142     1.0  0.56725  0.04988  0.50952  1.0000
  C   C1777     1.0  0.56694  0.01009  0.55678  1.0000
  H   H2143     1.0  0.94498  0.24671  0.54919  1.0000
  H   H2144     1.0  0.95884  0.19951  0.55502  1.0000
  C   C1778     1.0  0.51040  0.07398  0.61825  1.0000
  S   S477      1.0  0.89139  0.24414  0.49259  1.0000
  N   N122      1.0  0.57871  0.06099  0.51807  1.0000
  C   C1779     1.0  0.59264  0.04914  0.51817  1.0000
  C   C1780     1.0  0.57179  0.06007  0.50633  1.0000
  C   C1781     1.0  0.58316  0.07541  0.51410  1.0000
  C   C1782     1.0  0.56774  0.05982  0.53240  1.0000
  C   C1783     1.0  0.55391  0.07043  0.53404  1.0000
  C   C1784     1.0  0.57016  0.04817  0.54490  1.0000
  C   C1785     1.0  0.54319  0.06939  0.54731  1.0000
  C   C1786     1.0  0.55937  0.04730  0.55814  1.0000
  C   C1787     1.0  0.79174  0.00878  0.49530  1.0000
  H   H2145     1.0  0.59030  0.03801  0.52008  1.0000
  H   H2146     1.0  0.51319  0.01868  0.70551  1.0000
  H   H2147     1.0  0.59853  0.04918  0.52670  1.0000
  C   C1788     1.0  0.65609  0.05716  0.49977  1.0000
  C   C1789     1.0  0.84896  0.14714  0.49532  1.0000
  H   H2148     1.0  0.56236  0.06965  0.50416  1.0000
  H   H2149     1.0  0.58789  0.07670  0.52297  1.0000
  C   C1790     1.0  0.98425  0.16743  0.49240  1.0000
  H   H2150     1.0  0.57362  0.08501  0.51237  1.0000
  H   H2151     1.0  0.55116  0.07947  0.52498  1.0000
  H   H2152     1.0  0.58012  0.03936  0.54467  1.0000
  S   S478      1.0  0.91953  0.23146  0.50985  1.0000
  C   C1791     1.0  0.57734  0.00666  0.68204  1.0000
  C   C1792     1.0  0.86820  0.19829  0.49990  1.0000
  S   S479      1.0  0.56357  0.00569  0.57621  1.0000
  H   H2153     1.0  0.92160  0.24205  0.55926  1.0000
  Fe  Fe236     1.0  0.60004  0.01933  0.49357  1.0000
  Fe  Fe237     1.0  0.50869  0.00754  0.60118  1.0000
  C   C1793     1.0  0.98967  0.24749  0.54984  1.0000
  Fe  Fe238     1.0  0.51293  0.03915  0.59055  1.0000
  S   S480      1.0  0.50082  0.02729  0.61181  1.0000
  S   S481      1.0  0.51544  0.09808  0.62481  1.0000
  H   H2154     1.0  0.50129  0.11495  0.72425  1.0000
  H   H2155     1.0  0.56359  0.03364  0.69231  1.0000
  H   H2156     1.0  0.55531  0.02837  0.62344  1.0000
  C   C1794     1.0  0.90518  0.21955  0.55073  1.0000
  C   C1795     1.0  0.50899  0.08808  0.58892  1.0000
  H   H2157     1.0  0.85709  0.19863  0.49885  1.0000
  C   C1796     1.0  0.54516  0.05732  0.61544  1.0000
  H   H2158     1.0  0.54238  0.06887  0.61724  1.0000
  H   H2159     1.0  0.75773  0.99241  0.51372  1.0000
  H   H2160     1.0  0.55534  0.99502  0.70251  1.0000
  S   S482      1.0  0.52477  0.02548  0.63866  1.0000
  H   H2161     1.0  0.65128  0.06866  0.49554  1.0000
  Fe  Fe239     1.0  0.52124  0.06964  0.67651  1.0000
  H   H2162     1.0  0.51242  0.10706  0.59443  1.0000
  C   C1797     1.0  0.57397  0.05848  0.63122  1.0000
  H   H2163     1.0  0.99611  0.23860  0.57091  1.0000
  N   N123      1.0  0.94951  0.22317  0.55032  1.0000
  C   C1798     1.0  0.50794  0.07323  0.59393  1.0000
  H   H2164     1.0  0.89413  0.21879  0.55042  1.0000
  C   C1799     1.0  0.86990  0.20463  0.51073  1.0000
  H   H2165     1.0  0.83987  0.15677  0.49213  1.0000
  H   H2166     1.0  0.96145  0.23649  0.55565  1.0000
  H   H2167     1.0  0.53711  0.05139  0.62400  1.0000
  H   H2168     1.0  0.51321  0.07837  0.72676  1.0000
  H   H2169     1.0  0.94369  0.23537  0.56774  1.0000
  C   C1800     1.0  0.56736  0.05273  0.65804  1.0000
  C   C1801     1.0  0.64925  0.04603  0.49982  1.0000
  C   C1802     1.0  0.50881  0.06617  0.60857  1.0000
  H   H2170     1.0  0.50829  0.09362  0.57762  1.0000
  H   H2171     1.0  0.96857  0.21037  0.55970  1.0000
  H   H2172     1.0  0.86461  0.11958  0.49746  1.0000
  H   H2173     1.0  0.56843  0.06943  0.60249  1.0000
  C   C1803     1.0  0.98219  0.27432  0.54320  1.0000
  C   C1804     1.0  0.95273  0.17840  0.49713  1.0000
  H   H2174     1.0  0.91625  0.20023  0.54170  1.0000
  H   H2175     1.0  0.50432  0.01042  0.67069  1.0000
  H   H2176     1.0  0.71323  0.00444  0.50479  1.0000
  H   H2177     1.0  0.58905  0.00765  0.67671  1.0000
  C   C1805     1.0  0.58622  0.03799  0.71169  1.0000
  C   C1806     1.0  0.59021  0.01197  0.71150  1.0000
  H   H2178     1.0  0.73286  0.99795  0.49697  1.0000
  H   H2179     1.0  0.60080  0.05053  0.50737  1.0000
  C   C1807     1.0  0.57546  0.04153  0.70320  1.0000
  H   H2180     1.0  0.57996  0.05965  0.49559  1.0000
  H   H2181     1.0  0.97563  0.32114  0.56800  1.0000
  H   H2182     1.0  0.70445  0.00234  0.53216  1.0000
  H   H2183     1.0  0.54266  0.05795  0.60458  1.0000
  C   C1808     1.0  0.94982  0.23598  0.55602  1.0000
  C   C1809     1.0  0.51923  0.02486  0.70874  1.0000
  S   S483      1.0  0.51892  0.06289  0.65681  1.0000
  C   C1810     1.0  0.54224  0.00278  0.67399  1.0000
  C   C1811     1.0  0.52493  0.03636  0.69831  1.0000
  H   H2184     1.0  0.51085  0.06845  0.62956  1.0000
  S   S484      1.0  0.51447  0.09413  0.66798  1.0000
  C   C1812     1.0  0.57924  0.01524  0.70287  1.0000
  H   H2185     1.0  0.53256  0.07742  0.54831  1.0000
  H   H2186     1.0  0.95069  0.20761  0.57104  1.0000
  H   H2187     1.0  0.84126  0.11891  0.49674  1.0000
  H   H2188     1.0  0.54383  0.01874  0.55541  1.0000
  H   H2189     1.0  0.72077  0.01708  0.52120  1.0000
  S   S485      1.0  0.88911  0.25471  0.52321  1.0000
  C   C1813     1.0  0.95823  0.22481  0.53483  1.0000
  H   H2190     1.0  0.95696  0.30942  0.49307  1.0000
  Fe  Fe240     1.0  0.53975  0.01301  0.58801  1.0000
  S   S486      1.0  0.99330  0.23004  0.54555  1.0000
  C   C1814     1.0  0.51127  0.09569  0.59844  1.0000
  C   C1815     1.0  0.55552  0.04380  0.64394  1.0000
  H   H2191     1.0  0.53745  0.05697  0.56948  1.0000
  C   C1816     1.0  0.90688  0.23121  0.55566  1.0000
  C   C1817     1.0  0.54592  0.05785  0.55932  1.0000
  Fe  Fe241     1.0  0.88829  0.26543  0.49939  1.0000
  Fe  Fe242     1.0  0.51017  0.08730  0.64902  1.0000
  H   H2192     1.0  0.99079  0.32114  0.57549  1.0000
  H   H2193     1.0  0.95274  0.23481  0.52754  1.0000
  H   H2194     1.0  0.55045  0.04004  0.66772  1.0000
  H   H2195     1.0  0.84369  0.13921  0.50465  1.0000
  Fe  Fe243     1.0  0.70842  0.04461  0.49822  1.0000
  S   S487      1.0  0.73071  0.04797  0.49839  1.0000
  C   C1818     1.0  0.57572  0.05944  0.64493  1.0000
  H   H2196     1.0  0.58262  0.05221  0.60261  1.0000
  H   H2197     1.0  0.56824  0.05642  0.59241  1.0000
  C   C1819     1.0  0.53446  0.01377  0.66422  1.0000
  H   H2198     1.0  0.89712  0.23958  0.55906  1.0000
  Fe  Fe244     1.0  0.91379  0.25396  0.51544  1.0000
  H   H2199     1.0  0.65300  0.99492  0.50261  1.0000
  C   C1820     1.0  0.73069  0.00761  0.52112  1.0000
  C   C1821     1.0  0.51198  0.08865  0.61315  1.0000
  H   H2200     1.0  0.58059  0.06419  0.62152  1.0000
  C   C1822     1.0  0.91771  0.20906  0.54585  1.0000
  C   C1823     1.0  0.66927  0.05346  0.50505  1.0000
  H   H2201     1.0  0.54580  0.99759  0.63438  1.0000
  H   H2202     1.0  0.54095  0.00434  0.68500  1.0000
  C   C1824     1.0  0.53548  0.01178  0.65007  1.0000
  H   H2203     1.0  0.91561  0.31355  0.50656  1.0000
  H   H2204     1.0  0.98246  0.18126  0.50795  1.0000
  H   H2205     1.0  0.95983  0.31259  0.60758  1.0000
  C   C1825     1.0  0.72336  0.99544  0.50628  1.0000
  H   H2206     1.0  0.50816  0.05469  0.61254  1.0000
  H   H2207     1.0  0.78563  0.02040  0.49163  1.0000
  H   H2208     1.0  0.99284  0.26330  0.57628  1.0000
  H   H2209     1.0  0.60196  0.02056  0.72243  1.0000
  H   H2210     1.0  0.95559  0.19044  0.51161  1.0000
  S   S488      1.0  0.53012  0.99911  0.60948  1.0000
  H   H2211     1.0  0.67336  0.01603  0.51533  1.0000
  H   H2212     1.0  0.50451  0.08968  0.70324  1.0000
  S   S489      1.0  0.51372  0.00751  0.73645  1.0000
  C   C1826     1.0  0.96111  0.18261  0.50447  1.0000
  C   C1827     1.0  0.99034  0.26252  0.56621  1.0000
  C   C1828     1.0  0.50137  0.08251  0.72699  1.0000
  C   C1829     1.0  0.57209  0.03036  0.69877  1.0000
  C   C1830     1.0  0.96845  0.31294  0.59712  1.0000
  C   C1831     1.0  0.55885  0.00405  0.70491  1.0000
  H   H2213     1.0  0.55630  0.00283  0.71716  1.0000
  C   C1832     1.0  0.54490  0.99909  0.64539  1.0000
  C   C1833     1.0  0.89509  0.19107  0.49203  1.0000
  Fe  Fe245     1.0  0.99817  0.22260  0.49424  1.0000
  H   H2214     1.0  0.56948  0.05296  0.70017  1.0000
  S   S490      1.0  0.50537  0.06358  0.58197  1.0000
  H   H2215     1.0  0.94073  0.18275  0.49874  1.0000
  N   N124      1.0  0.72697  0.99368  0.52078  1.0000
  C   C1834     1.0  0.71333  0.99189  0.53254  1.0000
  H   H2216     1.0  0.99956  0.14017  0.50194  1.0000
  H   H2217     1.0  0.51228  0.14592  0.91733  1.0000
  H   H2218     1.0  0.53917  0.27281  0.98147  1.0000
  C   C1835     1.0  0.56681  0.20932  0.93233  1.0000
  C   C1836     1.0  0.58905  0.25832  0.88548  1.0000
  Fe  Fe246     1.0  0.56394  0.24673  0.87261  1.0000
  S   S491      1.0  0.54325  0.25455  0.88867  1.0000
  S   S492      1.0  0.58667  0.24800  0.87399  1.0000
  Fe  Fe247     1.0  0.54723  0.23484  0.85687  1.0000
  S   S493      1.0  0.52509  0.24170  0.87159  1.0000
  S   S494      1.0  0.54918  0.22310  0.83890  1.0000
  Fe  Fe248     1.0  0.53263  0.26262  0.86892  1.0000
  C   C1837     1.0  0.50423  0.22728  0.82859  1.0000
  Fe  Fe249     1.0  0.53793  0.23294  0.88966  1.0000
  S   S495      1.0  0.53135  0.21698  0.91055  1.0000
  S   S496      1.0  0.55388  0.25654  0.85253  1.0000
  S   S497      1.0  0.55957  0.22433  0.87522  1.0000
  H   H2219     1.0  0.55838  0.17017  0.84066  1.0000
  C   C1838     1.0  0.51381  0.29217  0.96038  1.0000
  H   H2220     1.0  0.51454  0.18969  0.86288  1.0000
  H   H2221     1.0  0.62263  0.27583  0.95081  1.0000
  H   H2222     1.0  0.52110  0.29881  0.95158  1.0000
  H   H2223     1.0  0.55930  0.21025  0.94335  1.0000
  C   C1839     1.0  0.51968  0.22511  0.82168  1.0000
  H   H2224     1.0  0.53709  0.01590  0.76386  1.0000
  C   C1840     1.0  0.50135  0.12375  0.77287  1.0000
  S   S498      1.0  0.51681  0.25117  0.96163  1.0000
  H   H2225     1.0  0.53452  0.30883  0.90375  1.0000
  S   S499      1.0  0.55195  0.22364  0.97105  1.0000
  S   S500      1.0  0.53230  0.16043  0.85825  1.0000
  S   S501      1.0  0.50517  0.13768  0.94909  1.0000
  H   H2226     1.0  0.58063  0.32000  0.98433  1.0000
  C   C1841     1.0  0.52299  0.00023  0.76990  1.0000
  H   H2227     1.0  0.53427  0.30966  0.86539  1.0000
  C   C1842     1.0  0.54406  0.20586  0.84475  1.0000
  C   C1843     1.0  0.55421  0.19350  0.84009  1.0000
  C   C1844     1.0  0.55028  0.17974  0.84400  1.0000
  C   C1845     1.0  0.53598  0.17831  0.85214  1.0000
  C   C1846     1.0  0.52559  0.19075  0.85652  1.0000
  C   C1847     1.0  0.52973  0.20448  0.85302  1.0000
  H   H2228     1.0  0.56520  0.19454  0.83352  1.0000
  C   C1848     1.0  0.50085  0.02227  0.78206  1.0000
  H   H2229     1.0  0.62073  0.30151  0.95065  1.0000
  H   H2230     1.0  0.52179  0.21407  0.85645  1.0000
  C   C1849     1.0  0.52566  0.22631  0.92504  1.0000
  C   C1850     1.0  0.52740  0.21847  0.93924  1.0000
  C   C1851     1.0  0.52457  0.22616  0.95051  1.0000
  C   C1852     1.0  0.51969  0.24161  0.94768  1.0000
  C   C1853     1.0  0.51761  0.24939  0.93356  1.0000
  C   C1854     1.0  0.52058  0.24172  0.92223  1.0000
  H   H2231     1.0  0.53131  0.20653  0.94143  1.0000
  H   H2232     1.0  0.52628  0.22009  0.96135  1.0000
  H   H2233     1.0  0.51379  0.26133  0.93139  1.0000
  H   H2234     1.0  0.51877  0.24770  0.91136  1.0000
  Fe  Fe250     1.0  0.52860  0.23561  0.97896  1.0000
  H   H2235     1.0  0.51731  0.03552  0.77438  1.0000
  Fe  Fe251     1.0  0.50978  0.15765  0.85769  1.0000
  H   H2236     1.0  0.50250  0.16915  0.94114  1.0000
  C   C1855     1.0  0.57634  0.26365  0.97084  1.0000
  C   C1856     1.0  0.57234  0.27917  0.96790  1.0000
  H   H2237     1.0  0.52745  0.30713  0.96893  1.0000
  C   C1857     1.0  0.50932  0.27899  0.98672  1.0000
  H   H2238     1.0  0.58277  0.25801  0.96201  1.0000
  H   H2239     1.0  0.57588  0.28531  0.95686  1.0000
  H   H2240     1.0  0.55401  0.30724  0.90136  1.0000
  H   H2241     1.0  0.53935  0.21045  0.81199  1.0000
  H   H2242     1.0  0.62074  0.31189  0.98598  1.0000
  S   S502      1.0  0.50344  0.13567  0.86773  1.0000
  H   H2243     1.0  0.50989  0.30742  0.98213  1.0000
  S   S503      1.0  0.55835  0.30601  0.97526  1.0000
  H   H2244     1.0  0.55985  0.20789  0.92539  1.0000
  C   C1858     1.0  0.50124  0.14362  0.92065  1.0000
  H   H2245     1.0  0.60943  0.25995  0.97231  1.0000
  Fe  Fe252     1.0  0.54477  0.20353  0.98617  1.0000
  C   C1859     1.0  0.56363  0.29275  0.86356  1.0000
  H   H2246     1.0  0.56571  0.26766  0.89316  1.0000
  H   H2247     1.0  0.60486  0.23415  0.95840  1.0000
  S   S504      1.0  0.57697  0.23608  0.98858  1.0000
  H   H2248     1.0  0.60197  0.25048  0.93393  1.0000
  C   C1860     1.0  0.57701  0.26701  0.89379  1.0000
  H   H2249     1.0  0.50153  0.28644  0.89353  1.0000
  H   H2250     1.0  0.50416  0.12278  0.78370  1.0000
  C   C1861     1.0  0.53301  0.16162  0.98378  1.0000
  H   H2251     1.0  0.59398  0.21209  0.96750  1.0000
  H   H2252     1.0  0.51387  0.28272  0.95575  1.0000
  H   H2253     1.0  0.55434  0.28991  0.86139  1.0000
  C   C1862     1.0  0.57973  0.27500  0.90281  1.0000
  C   C1863     1.0  0.59059  0.28877  0.85895  1.0000
  C   C1864     1.0  0.58250  0.22069  0.91067  1.0000
  H   H2254     1.0  0.50506  0.09504  0.77207  1.0000
  H   H2255     1.0  0.57056  0.28154  0.90940  1.0000
  Fe  Fe253     1.0  0.58285  0.30351  0.92263  1.0000
  H   H2256     1.0  0.50229  0.29926  0.96203  1.0000
  S   S505      1.0  0.54935  0.18266  0.97781  1.0000
  H   H2257     1.0  0.55335  0.23410  0.91712  1.0000
  H   H2258     1.0  0.58810  0.24508  0.91894  1.0000
  H   H2259     1.0  0.51198  0.11919  0.76564  1.0000
  C   C1865     1.0  0.57197  0.25549  0.98509  1.0000
  C   C1866     1.0  0.59291  0.21898  0.95666  1.0000
  C   C1867     1.0  0.58490  0.21568  0.94818  1.0000
  C   C1868     1.0  0.53419  0.30594  0.87746  1.0000
  C   C1869     1.0  0.50075  0.19194  0.92987  1.0000
  H   H2260     1.0  0.52318  0.31155  0.88336  1.0000
  H   H2261     1.0  0.50686  0.18227  0.98105  1.0000
  H   H2262     1.0  0.51821  0.14703  0.98757  1.0000
  H   H2263     1.0  0.55357  0.23763  0.93454  1.0000
  H   H2264     1.0  0.54233  0.28272  0.96263  1.0000
  S   S506      1.0  0.55910  0.30462  0.93486  1.0000
  C   C1870     1.0  0.50851  0.99736  0.77653  1.0000
  H   H2265     1.0  0.53376  0.26712  0.96794  1.0000
  H   H2266     1.0  0.61770  0.26466  0.89593  1.0000
  C   C1871     1.0  0.56397  0.28661  0.97921  1.0000
  S   S507      1.0  0.59869  0.28358  0.91471  1.0000
  H   H2267     1.0  0.54743  0.29173  0.90056  1.0000
  H   H2268     1.0  0.59231  0.21119  0.91160  1.0000
  C   C1872     1.0  0.56065  0.23564  0.92361  1.0000
  Fe  Fe254     1.0  0.56523  0.31407  0.95073  1.0000
  C   C1873     1.0  0.56172  0.30235  0.87326  1.0000
  C   C1874     1.0  0.60365  0.25754  0.88638  1.0000
  H   H2269     1.0  0.60161  0.28316  0.85391  1.0000
  S   S508      1.0  0.51835  0.28555  0.86408  1.0000
  H   H2270     1.0  0.61299  0.25082  0.88007  1.0000
  N   N125      1.0  0.54684  0.30933  0.88118  1.0000
  H   H2271     1.0  0.58028  0.20596  0.95296  1.0000
  C   C1875     1.0  0.59903  0.23146  0.95156  1.0000
  C   C1876     1.0  0.60870  0.27137  0.97250  1.0000
  C   C1877     1.0  0.60632  0.26540  0.89535  1.0000
  H   H2272     1.0  0.56445  0.24598  0.91754  1.0000
  H   H2273     1.0  0.51045  0.25543  0.82220  1.0000
  H   H2274     1.0  0.58691  0.23063  0.90433  1.0000
  H   H2275     1.0  0.57593  0.21877  0.90365  1.0000
  N   N126      1.0  0.54654  0.17571  0.89541  1.0000
  C   C1878     1.0  0.55840  0.18397  0.89276  1.0000
  C   C1879     1.0  0.55160  0.16577  0.88467  1.0000
  C   C1880     1.0  0.53270  0.18644  0.89210  1.0000
  C   C1881     1.0  0.54345  0.16770  0.91107  1.0000
  C   C1882     1.0  0.54101  0.17509  0.92279  1.0000
  C   C1883     1.0  0.54199  0.15272  0.91518  1.0000
  C   C1884     1.0  0.53774  0.16786  0.93763  1.0000
  C   C1885     1.0  0.53868  0.14561  0.93007  1.0000
  C   C1886     1.0  0.53655  0.15314  0.94127  1.0000
  H   H2276     1.0  0.55464  0.19345  0.89843  1.0000
  H   H2277     1.0  0.56855  0.17654  0.89652  1.0000
  H   H2278     1.0  0.56182  0.18902  0.88079  1.0000
  H   H2279     1.0  0.56158  0.15693  0.88703  1.0000
  H   H2280     1.0  0.55471  0.17196  0.87308  1.0000
  H   H2281     1.0  0.54262  0.16050  0.88455  1.0000
  H   H2282     1.0  0.52802  0.19403  0.89996  1.0000
  H   H2283     1.0  0.53483  0.19358  0.88085  1.0000
  H   H2284     1.0  0.52387  0.18067  0.89265  1.0000
  H   H2285     1.0  0.54131  0.18662  0.92061  1.0000
  H   H2286     1.0  0.54309  0.14630  0.90712  1.0000
  H   H2287     1.0  0.53582  0.17382  0.94636  1.0000
  H   H2288     1.0  0.53727  0.13427  0.93299  1.0000
  H   H2289     1.0  0.53359  0.14763  0.95276  1.0000
  C   C1887     1.0  0.50390  0.19442  0.98001  1.0000
  H   H2290     1.0  0.50779  0.11018  0.74825  1.0000
  H   H2291     1.0  0.57438  0.31173  0.88286  1.0000
  C   C1888     1.0  0.60584  0.30157  0.97266  1.0000
  N   N127      1.0  0.57329  0.22261  0.92550  1.0000
  C   C1889     1.0  0.52098  0.30026  0.97843  1.0000
  C   C1890     1.0  0.52743  0.21209  0.81666  1.0000
  C   C1891     1.0  0.61487  0.29518  0.96049  1.0000
  C   C1892     1.0  0.59730  0.24067  0.93788  1.0000
  C   C1893     1.0  0.58253  0.22510  0.93437  1.0000
  C   C1894     1.0  0.59444  0.27427  0.90346  1.0000
  N   N128      1.0  0.51930  0.28701  0.97442  1.0000
  C   C1895     1.0  0.54567  0.30402  0.89739  1.0000
  C   C1896     1.0  0.59993  0.27722  0.98465  1.0000
  H   H2292     1.0  0.53901  0.15924  0.97307  1.0000
  S   S509      1.0  0.58942  0.31102  0.93962  1.0000
  C   C1897     1.0  0.51499  0.02488  0.77515  1.0000
  C   C1898     1.0  0.52007  0.20096  0.81820  1.0000
  S   S510      1.0  0.50238  0.16035  0.83665  1.0000
  C   C1899     1.0  0.53427  0.27703  0.97147  1.0000
  C   C1900     1.0  0.57491  0.30486  0.87539  1.0000
  H   H2293     1.0  0.51384  0.19869  0.97299  1.0000
  C   C1901     1.0  0.58923  0.23753  0.92938  1.0000
  H   H2294     1.0  0.57567  0.19898  0.93371  1.0000
  C   C1902     1.0  0.50527  0.25086  0.83382  1.0000
  H   H2295     1.0  0.50205  0.09538  0.82366  1.0000
  N   N129      1.0  0.60399  0.31732  0.97304  1.0000
  C   C1903     1.0  0.60896  0.31816  0.98611  1.0000
  H   H2296     1.0  0.57916  0.27842  0.84961  1.0000
  H   H2297     1.0  0.51431  0.24517  0.84010  1.0000
  H   H2298     1.0  0.53452  0.29383  0.88073  1.0000
  C   C1904     1.0  0.59840  0.29210  0.98474  1.0000
  H   H2299     1.0  0.52619  0.19072  0.81465  1.0000
  H   H2300     1.0  0.52624  0.23306  0.82042  1.0000
  C   C1905     1.0  0.57790  0.28612  0.85655  1.0000
  C   C1906     1.0  0.50191  0.28417  0.86029  1.0000
  H   H2301     1.0  0.50363  0.18947  0.91897  1.0000
  C   C1907     1.0  0.58910  0.29813  0.86835  1.0000
  H   H2302     1.0  0.53201  0.99233  0.76476  1.0000
  C   C1908     1.0  0.61612  0.28033  0.96043  1.0000
  H   H2303     1.0  0.62493  0.32056  0.95817  1.0000
  H   H2304     1.0  0.52741  0.29733  0.98730  1.0000
  C   C1909     1.0  0.52609  0.01382  0.76925  1.0000
  H   H2305     1.0  0.59901  0.29979  0.87059  1.0000
  H   H2306     1.0  0.50143  0.30312  0.84210  1.0000
  C   C1910     1.0  0.50485  0.20295  0.82445  1.0000
  C   C1911     1.0  0.53647  0.17221  0.98908  1.0000
  C   C1912     1.0  0.50017  0.18052  0.94238  1.0000
  S   S511      1.0  0.49973  0.12052  0.83543  1.0000
  C   C1913     1.0  0.58800  0.32504  0.97423  1.0000
  H   H2307     1.0  0.58378  0.32467  0.96463  1.0000
  H   H2308     1.0  0.62799  0.49945  0.02421  1.0000
  H   H2309     1.0  0.98014  0.47796  0.23988  1.0000
  C   C1914     1.0  0.63395  0.52147  0.02941  1.0000
  Fe  Fe255     1.0  0.70760  0.55487  0.02261  1.0000
  C   C1915     1.0  0.66052  0.54802  0.00079  1.0000
  S   S512      1.0  0.71567  0.55301  0.04296  1.0000
  H   H2310     1.0  0.64874  0.50487  0.05981  1.0000
  H   H2311     1.0  0.97859  0.49175  0.10696  1.0000
  H   H2312     1.0  0.97258  0.43995  0.20752  1.0000
  C   C1916     1.0  0.67513  0.40022  0.00141  1.0000
  S   S513      1.0  0.68871  0.54479  0.02359  1.0000
  Fe  Fe256     1.0  0.70504  0.44723  0.03486  1.0000
  S   S514      1.0  0.72070  0.42491  0.03812  1.0000
  S   S515      1.0  0.69515  0.46262  0.05072  1.0000
  H   H2313     1.0  0.72267  0.37035  0.99925  1.0000
  S   S516      1.0  0.76024  0.43226  0.01451  1.0000
  Fe  Fe257     1.0  0.70923  0.42010  0.02277  1.0000
  S   S517      1.0  0.70392  0.39775  0.02732  1.0000
  Fe  Fe258     1.0  0.73549  0.43432  0.01721  1.0000
  C   C1917     1.0  0.69206  0.37873  0.02025  1.0000
  S   S518      1.0  0.69216  0.44159  0.02148  1.0000
  S   S519      1.0  0.72083  0.45700  0.01508  1.0000
  H   H2314     1.0  0.74146  0.36827  0.00089  1.0000
  S   S520      1.0  0.69904  0.57681  0.00826  1.0000
  C   C1918     1.0  0.65527  0.48271  0.04426  1.0000
  H   H2315     1.0  0.66398  0.51100  0.01965  1.0000
  C   C1919     1.0  0.99331  0.50848  0.18115  1.0000
  S   S521      1.0  0.97213  0.53148  0.10629  1.0000
  H   H2316     1.0  0.74934  0.45904  0.08705  1.0000
  H   H2317     1.0  0.77034  0.47793  0.00292  1.0000
  C   C1920     1.0  0.82323  0.48733  0.09789  1.0000
  Fe  Fe259     1.0  0.92817  0.58182  0.19563  1.0000
  S   S522      1.0  0.92162  0.56579  0.21668  1.0000
  S   S523      1.0  0.93660  0.60220  0.19311  1.0000
  Fe  Fe260     1.0  0.92344  0.56389  0.17613  1.0000
  S   S524      1.0  0.91686  0.54608  0.19532  1.0000
  S   S525      1.0  0.92779  0.56101  0.15277  1.0000
  Fe  Fe261     1.0  0.90343  0.56489  0.20643  1.0000
  C   C1921     1.0  0.87498  0.52877  0.19812  1.0000
  Fe  Fe262     1.0  0.93545  0.54850  0.20390  1.0000
  S   S526      1.0  0.95108  0.52910  0.21440  1.0000
  S   S527      1.0  0.90855  0.58276  0.18631  1.0000
  S   S528      1.0  0.94348  0.56448  0.18366  1.0000
  Fe  Fe263     1.0  0.68158  0.56566  0.00739  1.0000
  H   H2318     1.0  0.99483  0.57197  0.11024  1.0000
  Fe  Fe264     1.0  0.81577  0.49648  0.00898  1.0000
  S   S529      1.0  0.81591  0.47737  0.02865  1.0000
  Fe  Fe265     1.0  0.79725  0.51870  0.02765  1.0000
  S   S530      1.0  0.79586  0.50167  0.04881  1.0000
  S   S531      1.0  0.78603  0.54249  0.02771  1.0000
  Fe  Fe266     1.0  0.82024  0.49288  0.04014  1.0000
  S   S532      1.0  0.83764  0.48467  0.05434  1.0000
  Fe  Fe267     1.0  0.79163  0.48798  0.03540  1.0000
  S   S533      1.0  0.77166  0.47764  0.04495  1.0000
  S   S534      1.0  0.82201  0.51115  0.01990  1.0000
  S   S535      1.0  0.79114  0.50585  0.01477  1.0000
  Fe  Fe268     1.0  0.90425  0.51163  0.09955  1.0000
  S   S536      1.0  0.88877  0.53397  0.09528  1.0000
  S   S537      1.0  0.92759  0.50707  0.08580  1.0000
  Fe  Fe269     1.0  0.88048  0.49795  0.12270  1.0000
  S   S538      1.0  0.86304  0.51911  0.12032  1.0000
  S   S539      1.0  0.87317  0.47730  0.13653  1.0000
  Fe  Fe270     1.0  0.87202  0.52124  0.09587  1.0000
  S   S540      1.0  0.85670  0.52974  0.07951  1.0000
  Fe  Fe271     1.0  0.88133  0.52975  0.12006  1.0000
  S   S541      1.0  0.87554  0.54733  0.13347  1.0000
  S   S542      1.0  0.88814  0.49916  0.09826  1.0000
  S   S543      1.0  0.89817  0.50828  0.12439  1.0000
  H   H2319     1.0  0.90468  0.52139  0.06672  1.0000
  C   C1922     1.0  0.95226  0.58136  0.12693  1.0000
  H   H2320     1.0  0.86108  0.47598  0.09625  1.0000
  Fe  Fe272     1.0  0.91794  0.48312  0.20248  1.0000
  H   H2321     1.0  0.89696  0.54557  0.05319  1.0000
  S   S544      1.0  0.93286  0.49681  0.18591  1.0000
  Fe  Fe273     1.0  0.89930  0.46083  0.20825  1.0000
  S   S545      1.0  0.89103  0.44693  0.19831  1.0000
  H   H2322     1.0  0.94748  0.46758  0.23297  1.0000
  S   S546      1.0  0.89393  0.48565  0.20264  1.0000
  C   C1923     1.0  0.93723  0.50130  0.23395  1.0000
  H   H2323     1.0  0.93661  0.60219  0.16048  1.0000
  C   C1924     1.0  0.93769  0.41433  0.22782  1.0000
  C   C1925     1.0  0.95841  0.61065  0.13760  1.0000
  H   H2324     1.0  0.95751  0.44278  0.19873  1.0000
  C   C1926     1.0  0.94029  0.59621  0.15117  1.0000
  C   C1927     1.0  0.94875  0.48376  0.18012  1.0000
  C   C1928     1.0  0.94742  0.47239  0.17442  1.0000
  C   C1929     1.0  0.95979  0.46080  0.17155  1.0000
  C   C1930     1.0  0.97331  0.46036  0.17488  1.0000
  C   C1931     1.0  0.97469  0.47182  0.18045  1.0000
  C   C1932     1.0  0.96242  0.48362  0.18290  1.0000
  H   H2325     1.0  0.93671  0.47234  0.17262  1.0000
  H   H2326     1.0  0.95862  0.45179  0.16752  1.0000
  H   H2327     1.0  0.98506  0.47144  0.18320  1.0000
  H   H2328     1.0  0.96329  0.49230  0.18757  1.0000
  H   H2329     1.0  0.98165  0.45347  0.14233  1.0000
  C   C1933     1.0  0.87905  0.46899  0.15329  1.0000
  C   C1934     1.0  0.88800  0.47496  0.15846  1.0000
  C   C1935     1.0  0.89184  0.46826  0.17231  1.0000
  C   C1936     1.0  0.88682  0.45554  0.18085  1.0000
  C   C1937     1.0  0.87818  0.44946  0.17546  1.0000
  C   C1938     1.0  0.87425  0.45621  0.16177  1.0000
  H   H2330     1.0  0.89169  0.48487  0.15197  1.0000
  H   H2331     1.0  0.89867  0.47290  0.17635  1.0000
  H   H2332     1.0  0.87435  0.43961  0.18199  1.0000
  H   H2333     1.0  0.86739  0.45152  0.15780  1.0000
  C   C1939     1.0  0.84319  0.49756  0.06058  1.0000
  C   C1940     1.0  0.83597  0.51258  0.05843  1.0000
  C   C1941     1.0  0.84036  0.52241  0.06409  1.0000
  C   C1942     1.0  0.85191  0.51727  0.07198  1.0000
  C   C1943     1.0  0.85938  0.50235  0.07374  1.0000
  C   C1944     1.0  0.85502  0.49254  0.06808  1.0000
  H   H2334     1.0  0.82688  0.51658  0.05261  1.0000
  H   H2335     1.0  0.83459  0.53397  0.06259  1.0000
  H   H2336     1.0  0.86851  0.49838  0.07946  1.0000
  H   H2337     1.0  0.86082  0.48100  0.06948  1.0000
  H   H2338     1.0  0.96896  0.51516  0.23635  1.0000
  C   C1945     1.0  0.87763  0.54623  0.22693  1.0000
  H   H2339     1.0  0.89552  0.53526  0.17441  1.0000
  C   C1946     1.0  0.65638  0.46807  0.04362  1.0000
  H   H2340     1.0  0.75034  0.45781  0.06841  1.0000
  H   H2341     1.0  0.72938  0.48849  0.00361  1.0000
  C   C1947     1.0  0.74415  0.50993  0.99796  1.0000
  C   C1948     1.0  0.89834  0.51677  0.06154  1.0000
  N   N130      1.0  0.84214  0.47560  0.11452  1.0000
  C   C1949     1.0  0.98179  0.47947  0.11033  1.0000
  C   C1950     1.0  0.91315  0.55688  0.14796  1.0000
  C   C1951     1.0  0.89838  0.56450  0.15206  1.0000
  C   C1952     1.0  0.88699  0.56182  0.14713  1.0000
  C   C1953     1.0  0.89026  0.55120  0.13847  1.0000
  C   C1954     1.0  0.90502  0.54336  0.13463  1.0000
  C   C1955     1.0  0.91646  0.54629  0.13929  1.0000
  H   H2342     1.0  0.89578  0.57278  0.15866  1.0000
  H   H2343     1.0  0.87561  0.56800  0.15002  1.0000
  H   H2344     1.0  0.90761  0.53510  0.12806  1.0000
  H   H2345     1.0  0.92786  0.54028  0.13631  1.0000
  C   C1956     1.0  0.96394  0.53512  0.21992  1.0000
  C   C1957     1.0  0.96670  0.54923  0.21340  1.0000
  C   C1958     1.0  0.97716  0.55402  0.21762  1.0000
  C   C1959     1.0  0.98444  0.54491  0.22877  1.0000
  C   C1960     1.0  0.97742  0.58304  0.12589  1.0000
  C   C1961     1.0  0.97129  0.52596  0.23107  1.0000
  H   H2346     1.0  0.96100  0.55640  0.20491  1.0000
  H   H2347     1.0  0.97953  0.56483  0.21228  1.0000
  C   C1962     1.0  0.99444  0.52034  0.18619  1.0000
  Fe  Fe274     1.0  0.70355  0.53679  0.00358  1.0000
  C   C1963     1.0  0.85651  0.49496  0.19395  1.0000
  H   H2348     1.0  0.74509  0.44348  0.08360  1.0000
  C   C1964     1.0  0.94710  0.59564  0.21914  1.0000
  C   C1965     1.0  0.93959  0.60634  0.20877  1.0000
  N   N131      1.0  0.72789  0.46371  0.08114  1.0000
  H   H2349     1.0  0.72470  0.46518  0.10380  1.0000
  Fe  Fe275     1.0  0.99674  0.52330  0.09763  1.0000
  H   H2350     1.0  0.97917  0.41673  0.22599  1.0000
  C   C1966     1.0  0.95981  0.52567  0.09947  1.0000
  C   C1967     1.0  0.94443  0.52934  0.10535  1.0000
  C   C1968     1.0  0.93446  0.52375  0.10111  1.0000
  C   C1969     1.0  0.93985  0.51456  0.09086  1.0000
  C   C1970     1.0  0.95518  0.51126  0.08460  1.0000
  C   C1971     1.0  0.96513  0.51686  0.08886  1.0000
  H   H2351     1.0  0.94022  0.53647  0.11323  1.0000
  H   H2352     1.0  0.92261  0.52658  0.10574  1.0000
  H   H2353     1.0  0.95936  0.50433  0.07649  1.0000
  H   H2354     1.0  0.97687  0.51434  0.08391  1.0000
  H   H2355     1.0  0.64834  0.45354  0.03564  1.0000
  H   H2356     1.0  0.84565  0.46566  0.13676  1.0000
  C   C1972     1.0  0.88980  0.54145  0.04850  1.0000
  C   C1973     1.0  0.98454  0.51087  0.17080  1.0000
  H   H2357     1.0  0.96787  0.40329  0.23118  1.0000
  H   H2358     1.0  0.95355  0.44317  0.21786  1.0000
  C   C1974     1.0  0.76377  0.44424  0.02353  1.0000
  C   C1975     1.0  0.75193  0.45271  0.03207  1.0000
  C   C1976     1.0  0.75459  0.46307  0.03830  1.0000
  C   C1977     1.0  0.76912  0.46476  0.03644  1.0000
  C   C1978     1.0  0.78108  0.45619  0.02807  1.0000
  C   C1979     1.0  0.77840  0.44584  0.02171  1.0000
  H   H2359     1.0  0.74068  0.45134  0.03386  1.0000
  H   H2360     1.0  0.74532  0.47002  0.04438  1.0000
  H   H2361     1.0  0.79237  0.45737  0.02670  1.0000
  C   C1980     1.0  0.98887  0.61065  0.22133  1.0000
  C   C1981     1.0  0.97321  0.56930  0.11022  1.0000
  H   H2362     1.0  0.98402  0.50119  0.16751  1.0000
  S   S547      1.0  0.87086  0.49896  0.23865  1.0000
  C   C1982     1.0  0.69245  0.39361  0.01803  1.0000
  C   C1983     1.0  0.68404  0.40443  0.00850  1.0000
  H   H2363     1.0  0.91584  0.41034  0.23904  1.0000
  C   C1984     1.0  0.97899  0.61447  0.19321  1.0000
  H   H2364     1.0  0.68425  0.41597  0.00680  1.0000
  H   H2365     1.0  0.95982  0.59347  0.16607  1.0000
  C   C1985     1.0  0.69876  0.50273  0.01353  1.0000
  C   C1986     1.0  0.70152  0.50286  0.02711  1.0000
  C   C1987     1.0  0.69932  0.49103  0.03926  1.0000
  C   C1988     1.0  0.69405  0.47941  0.03777  1.0000
  C   C1989     1.0  0.69027  0.48002  0.02453  1.0000
  C   C1990     1.0  0.69303  0.49137  0.01233  1.0000
  H   H2366     1.0  0.70613  0.51158  0.02803  1.0000
  H   H2367     1.0  0.70253  0.49046  0.04938  1.0000
  H   H2368     1.0  0.68610  0.47118  0.02332  1.0000
  C   C1991     1.0  0.65621  0.53768  0.99603  1.0000
  C   C1992     1.0  0.73521  0.54996  0.03881  1.0000
  C   C1993     1.0  0.74203  0.56155  0.03733  1.0000
  C   C1994     1.0  0.75767  0.55915  0.03411  1.0000
  C   C1995     1.0  0.76651  0.54506  0.03271  1.0000
  C   C1996     1.0  0.75967  0.53339  0.03440  1.0000
  C   C1997     1.0  0.74403  0.53593  0.03712  1.0000
  H   H2369     1.0  0.73521  0.57240  0.03865  1.0000
  C   C1998     1.0  0.92677  0.42170  0.20191  1.0000
  H   H2370     1.0  0.76641  0.52246  0.03344  1.0000
  H   H2371     1.0  0.73879  0.52698  0.03811  1.0000
  C   C1999     1.0  0.88695  0.51982  0.04087  1.0000
  C   C2000     1.0  0.68336  0.37457  0.01314  1.0000
  N   N132      1.0  0.64476  0.51018  0.03761  1.0000
  C   C2001     1.0  0.72120  0.45758  0.07248  1.0000
  C   C2002     1.0  0.83229  0.48859  0.10689  1.0000
  C   C2003     1.0  0.72581  0.48000  0.07581  1.0000
  C   C2004     1.0  0.71126  0.48910  0.07542  1.0000
  C   C2005     1.0  0.73787  0.48733  0.07126  1.0000
  C   C2006     1.0  0.70898  0.50452  0.07059  1.0000
  C   C2007     1.0  0.73546  0.50274  0.06642  1.0000
  C   C2008     1.0  0.72105  0.51132  0.06611  1.0000
  H   H2372     1.0  0.72379  0.44523  0.07510  1.0000
  H   H2373     1.0  0.70154  0.48435  0.07877  1.0000
  H   H2374     1.0  0.74933  0.48146  0.07120  1.0000
  H   H2375     1.0  0.69781  0.51128  0.07024  1.0000
  H   H2376     1.0  0.74487  0.50807  0.06283  1.0000
  H   H2377     1.0  0.71924  0.52329  0.06239  1.0000
  C   C2009     1.0  0.83178  0.50314  0.10812  1.0000
  C   C2010     1.0  0.81398  0.49985  0.09096  1.0000
  C   C2011     1.0  0.82250  0.51557  0.10114  1.0000
  C   C2012     1.0  0.81354  0.51392  0.09265  1.0000
  H   H2378     1.0  0.82872  0.45985  0.11769  1.0000
  H   H2379     1.0  0.80755  0.49870  0.08375  1.0000
  H   H2380     1.0  0.82270  0.52659  0.10184  1.0000
  H   H2381     1.0  0.80673  0.52362  0.08687  1.0000
  C   C2013     1.0  0.87323  0.52831  0.03689  1.0000
  H   H2382     1.0  0.91017  0.53182  0.02530  1.0000
  C   C2014     1.0  0.86463  0.52214  0.03151  1.0000
  C   C2015     1.0  0.86925  0.50740  0.03012  1.0000
  C   C2016     1.0  0.63607  0.49112  0.02981  1.0000
  H   H2383     1.0  0.86862  0.53960  0.03823  1.0000
  H   H2384     1.0  0.99323  0.55509  0.14346  1.0000
  H   H2385     1.0  0.85397  0.52864  0.02896  1.0000
  H   H2386     1.0  0.86221  0.50252  0.02652  1.0000
  C   C2017     1.0  0.74384  0.45572  0.08000  1.0000
  C   C2018     1.0  0.91123  0.52542  0.03667  1.0000
  C   C2019     1.0  0.72027  0.46042  0.09695  1.0000
  C   C2020     1.0  0.95452  0.47391  0.22365  1.0000
  H   H2387     1.0  0.70880  0.46114  0.07462  1.0000
  N   N133      1.0  0.89632  0.52587  0.04675  1.0000
  H   H2388     1.0  0.97965  0.64564  0.20126  1.0000
  H   H2389     1.0  0.62943  0.50912  0.05875  1.0000
  H   H2390     1.0  0.85232  0.48390  0.17926  1.0000
  H   H2391     1.0  0.63423  0.53301  0.02936  1.0000
  C   C2021     1.0  0.88264  0.49880  0.03386  1.0000
  H   H2392     1.0  0.94735  0.48095  0.21581  1.0000
  H   H2393     1.0  0.84380  0.45993  0.10140  1.0000
  H   H2394     1.0  0.98545  0.58674  0.12930  1.0000
  S   S548      1.0  0.72332  0.54468  0.00407  1.0000
  H   H2395     1.0  0.78134  0.56261  0.00162  1.0000
  H   H2396     1.0  0.93592  0.63703  0.22182  1.0000
  H   H2397     1.0  0.72530  0.46117  0.06035  1.0000
  H   H2398     1.0  0.67088  0.54486  0.00447  1.0000
  C   C2022     1.0  0.98425  0.45805  0.13017  1.0000
  H   H2399     1.0  0.95433  0.61764  0.14609  1.0000
  H   H2400     1.0  0.96891  0.61481  0.20177  1.0000
  S   S549      1.0  0.92379  0.45838  0.20600  1.0000
  C   C2023     1.0  0.64043  0.51201  0.05318  1.0000
  H   H2401     1.0  0.97490  0.49908  0.21960  1.0000
  S   S550      1.0  0.98798  0.44486  0.17321  1.0000
  C   C2024     1.0  0.73099  0.37659  0.99909  1.0000
  H   H2402     1.0  0.99730  0.47752  0.13157  1.0000
  H   H2403     1.0  0.90463  0.50520  0.06121  1.0000
  H   H2404     1.0  0.65971  0.52530  0.02993  1.0000
  H   H2405     1.0  0.85276  0.48713  0.20385  1.0000
  C   C2025     1.0  0.85622  0.49314  0.18013  1.0000
  H   H2406     1.0  0.98282  0.49370  0.12962  1.0000
  C   C2026     1.0  0.87352  0.51705  0.23509  1.0000
  H   H2407     1.0  0.95039  0.56855  0.11246  1.0000
  H   H2408     1.0  0.88604  0.48726  0.03297  1.0000
  H   H2409     1.0  0.91697  0.51777  0.23848  1.0000
  H   H2410     1.0  0.64019  0.49544  0.99586  1.0000
  H   H2411     1.0  0.97784  0.60801  0.22322  1.0000
  H   H2412     1.0  0.72639  0.38199  0.00877  1.0000
  C   C2027     1.0  0.98685  0.53463  0.18086  1.0000
  C   C2028     1.0  0.63716  0.47640  0.02938  1.0000
  C   C2029     1.0  0.95792  0.57273  0.11615  1.0000
  H   H2413     1.0  0.88846  0.54912  0.03771  1.0000
  H   H2414     1.0  0.87015  0.55237  0.17712  1.0000
  H   H2415     1.0  0.69125  0.49090  0.00185  1.0000
  C   C2030     1.0  0.95020  0.49201  0.23881  1.0000
  C   C2031     1.0  0.95088  0.60001  0.23035  1.0000
  C   C2032     1.0  0.74058  0.48489  0.00642  1.0000
  N   N134      1.0  0.96224  0.42137  0.21317  1.0000
  H   H2416     1.0  0.63013  0.47387  0.02363  1.0000
  H   H2417     1.0  0.91742  0.51391  0.03580  1.0000
  H   H2418     1.0  0.70800  0.46511  0.09864  1.0000
  H   H2419     1.0  0.74514  0.47312  0.00535  1.0000
  H   H2420     1.0  0.86029  0.48676  0.10917  1.0000
  H   H2421     1.0  0.97659  0.59046  0.15250  1.0000
  C   C2033     1.0  0.76468  0.48971  0.00320  1.0000
  H   H2422     1.0  0.84996  0.52701  0.24001  1.0000
  H   H2423     1.0  0.97601  0.47488  0.10456  1.0000
  H   H2424     1.0  0.88728  0.51629  0.06912  1.0000
  H   H2425     1.0  0.62224  0.52028  0.03435  1.0000
  H   H2426     1.0  0.63658  0.52068  0.01761  1.0000
  C   C2034     1.0  0.91765  0.41721  0.21552  1.0000
  H   H2427     1.0  0.89705  0.51556  0.17846  1.0000
  C   C2035     1.0  0.98144  0.53094  0.23564  1.0000
  C   C2036     1.0  0.94687  0.61500  0.23132  1.0000
  H   H2428     1.0  0.97353  0.40239  0.20341  1.0000
  H   H2429     1.0  0.78767  0.43906  0.01541  1.0000
  C   C2037     1.0  0.93904  0.62545  0.22119  1.0000
  C   C2038     1.0  0.67477  0.38523  0.00379  1.0000
  H   H2430     1.0  0.88177  0.51821  0.20341  1.0000
  H   H2431     1.0  0.96114  0.50025  0.20963  1.0000
  H   H2432     1.0  0.66320  0.47756  0.00214  1.0000
  C   C2039     1.0  0.86120  0.50306  0.16737  1.0000
  N   N135      1.0  0.96162  0.48269  0.22916  1.0000
  H   H2433     1.0  0.72181  0.44825  0.10151  1.0000
  H   H2434     1.0  0.97799  0.63973  0.22108  1.0000
  H   H2435     1.0  0.75338  0.55314  0.00370  1.0000
  H   H2436     1.0  0.87870  0.54246  0.05634  1.0000
  S   S551      1.0  0.91425  0.48326  0.22640  1.0000
  C   C2040     1.0  0.65978  0.51345  0.03093  1.0000
  H   H2437     1.0  0.90618  0.41703  0.21606  1.0000
  H   H2438     1.0  0.97752  0.56251  0.10193  1.0000
  H   H2439     1.0  0.85374  0.54478  0.18284  1.0000
  N   N136      1.0  0.75103  0.49428  0.99695  1.0000
  C   C2041     1.0  0.96916  0.49235  0.21618  1.0000
  N   N137      1.0  0.97776  0.47425  0.12662  1.0000
  H   H2440     1.0  0.98084  0.47915  0.14603  1.0000
  C   C2042     1.0  0.92311  0.41348  0.22843  1.0000
  Fe  Fe276     1.0  0.70928  0.44971  0.00206  1.0000
  C   C2043     1.0  0.96128  0.47826  0.13164  1.0000
  C   C2044     1.0  0.95238  0.46751  0.13779  1.0000
  C   C2045     1.0  0.95362  0.49338  0.13019  1.0000
  C   C2046     1.0  0.93686  0.47176  0.14268  1.0000
  C   C2047     1.0  0.93815  0.49750  0.13522  1.0000
  C   C2048     1.0  0.92981  0.48670  0.14158  1.0000
  H   H2441     1.0  0.98511  0.41505  0.20138  1.0000
  S   S552      1.0  0.66393  0.37896  0.99552  1.0000
  H   H2442     1.0  0.99256  0.60374  0.16020  1.0000
  H   H2443     1.0  0.98019  0.45188  0.12436  1.0000
  H   H2444     1.0  0.96964  0.60585  0.18020  1.0000
  H   H2445     1.0  0.76544  0.40246  0.00528  1.0000
  H   H2446     1.0  0.96053  0.42124  0.23616  1.0000
  C   C2049     1.0  0.76051  0.40384  0.99590  1.0000
  H   H2447     1.0  0.68311  0.36300  0.01507  1.0000
  H   H2448     1.0  0.95711  0.45575  0.13915  1.0000
  H   H2449     1.0  0.95955  0.50215  0.12499  1.0000
  H   H2450     1.0  0.93023  0.46344  0.14752  1.0000
  H   H2451     1.0  0.93254  0.50914  0.13406  1.0000
  H   H2452     1.0  0.91784  0.48990  0.14560  1.0000
  H   H2453     1.0  0.90167  0.49773  0.04194  1.0000
  N   N138      1.0  0.96533  0.52777  0.15616  1.0000
  C   C2050     1.0  0.96522  0.54183  0.14481  1.0000
  C   C2051     1.0  0.96822  0.51572  0.14809  1.0000
  C   C2052     1.0  0.95033  0.52852  0.16604  1.0000
  C   C2053     1.0  0.97634  0.52529  0.16540  1.0000
  H   H2454     1.0  0.77277  0.49685  0.99724  1.0000
  C   C2054     1.0  0.97780  0.53709  0.17078  1.0000
  C   C2055     1.0  0.96148  0.43751  0.20917  1.0000
  H   H2455     1.0  0.69846  0.37033  0.02760  1.0000
  C   C2056     1.0  0.88792  0.51971  0.23055  1.0000
  H   H2456     1.0  0.97661  0.54224  0.13791  1.0000
  H   H2457     1.0  0.95776  0.54318  0.13715  1.0000
  H   H2458     1.0  0.96069  0.55185  0.14968  1.0000
  H   H2459     1.0  0.97991  0.51383  0.14152  1.0000
  H   H2460     1.0  0.96068  0.51854  0.14017  1.0000
  H   H2461     1.0  0.96594  0.50521  0.15567  1.0000
  H   H2462     1.0  0.94695  0.53813  0.17149  1.0000
  H   H2463     1.0  0.94154  0.52956  0.15995  1.0000
  H   H2464     1.0  0.95007  0.51847  0.17510  1.0000
  H   H2465     1.0  0.76291  0.56818  0.03283  1.0000
  H   H2466     1.0  0.97168  0.54830  0.16765  1.0000
  C   C2057     1.0  0.88997  0.53425  0.22663  1.0000
  S   S553      1.0  0.72535  0.42771  0.00208  1.0000
  C   C2058     1.0  0.97858  0.63609  0.21080  1.0000
  H   H2467     1.0  0.97036  0.61094  0.13277  1.0000
  H   H2468     1.0  0.94028  0.58365  0.13093  1.0000
  H   H2469     1.0  0.93292  0.60228  0.14321  1.0000
  C   C2059     1.0  0.98491  0.48151  0.13379  1.0000
  H   H2470     1.0  0.83885  0.50508  0.11416  1.0000
  H   H2471     1.0  0.86199  0.50724  0.20617  1.0000
  C   C2060     1.0  0.85797  0.47640  0.10818  1.0000
  C   C2061     1.0  0.84045  0.46115  0.11316  1.0000
  H   H2472     1.0  0.82333  0.47688  0.09566  1.0000
  H   H2473     1.0  0.74948  0.38633  0.00648  1.0000
  H   H2474     1.0  0.91846  0.53016  0.04065  1.0000
  H   H2475     1.0  0.84773  0.45164  0.11934  1.0000
  H   H2476     1.0  0.94768  0.42686  0.19040  1.0000
  C   C2062     1.0  0.64738  0.46492  0.03616  1.0000
  H   H2477     1.0  0.98137  0.46486  0.22955  1.0000
  H   H2478     1.0  0.63950  0.52366  0.05384  1.0000
  C   C2063     1.0  0.83883  0.47561  0.13057  1.0000
  H   H2479     1.0  0.93796  0.58499  0.15590  1.0000
  H   H2480     1.0  0.66443  0.45913  0.04882  1.0000
  H   H2481     1.0  0.98763  0.54386  0.18488  1.0000
  C   C2064     1.0  0.99212  0.60820  0.16958  1.0000
  H   H2482     1.0  0.82681  0.47591  0.13564  1.0000
  C   C2065     1.0  0.96192  0.58651  0.13240  1.0000
  H   H2483     1.0  0.86576  0.46705  0.11393  1.0000
  H   H2484     1.0  0.84162  0.48523  0.13271  1.0000
  H   H2485     1.0  0.66824  0.50680  0.03756  1.0000
  C   C2066     1.0  0.96503  0.58868  0.15601  1.0000
  H   H2486     1.0  0.97772  0.48579  0.20854  1.0000
  H   H2487     1.0  0.76201  0.49069  0.01500  1.0000
  H   H2488     1.0  0.93562  0.50210  0.22301  1.0000
  N   N139      1.0  0.95639  0.59531  0.14412  1.0000
  H   H2489     1.0  0.74151  0.51142  0.00959  1.0000
  H   H2490     1.0  0.86547  0.54420  0.16486  1.0000
  H   H2491     1.0  0.96595  0.57650  0.15953  1.0000
  C   C2067     1.0  0.86558  0.54307  0.17666  1.0000
  C   C2068     1.0  0.94727  0.41900  0.21411  1.0000
  H   H2492     1.0  0.95214  0.61600  0.12856  1.0000
  N   N140      1.0  0.99115  0.62312  0.20852  1.0000
  C   C2069     1.0  0.89144  0.50489  0.03908  1.0000
  C   C2070     1.0  0.97931  0.60931  0.18083  1.0000
  H   H2493     1.0  0.96753  0.63361  0.21221  1.0000
  C   C2071     1.0  0.64524  0.49474  0.03720  1.0000
  Fe  Fe277     1.0  0.89046  0.48378  0.22708  1.0000
  H   H2494     1.0  0.96298  0.46591  0.21743  1.0000
  H   H2495     1.0  0.89072  0.52710  0.16228  1.0000
  C   C2072     1.0  0.93563  0.62119  0.20989  1.0000
  H   H2496     1.0  0.92997  0.62952  0.20189  1.0000
  H   H2497     1.0  0.88021  0.53778  0.19818  1.0000
  H   H2498     1.0  0.87083  0.52185  0.15811  1.0000
  C   C2073     1.0  0.86199  0.50659  0.19510  1.0000
  H   H2499     1.0  0.95708  0.59191  0.23804  1.0000
  N   N141      1.0  0.87446  0.52846  0.18289  1.0000
  C   C2074     1.0  0.89007  0.52651  0.17413  1.0000
  S   S554      1.0  0.65752  0.57530  0.00615  1.0000
  S   S555      1.0  0.89362  0.45899  0.23287  1.0000
  C   C2075     1.0  0.98292  0.57458  0.11496  1.0000
  H   H2500     1.0  0.92223  0.42507  0.19197  1.0000
  C   C2076     1.0  0.86692  0.51457  0.16836  1.0000
  S   S556      1.0  0.88018  0.56442  0.21996  1.0000
  H   H2501     1.0  0.73851  0.48523  0.01833  1.0000
  C   C2077     1.0  0.86776  0.51654  0.18224  1.0000
  H   H2502     1.0  0.98939  0.61313  0.23184  1.0000
  H   H2503     1.0  0.86098  0.50160  0.15661  1.0000
  H   H2504     1.0  0.95045  0.58415  0.21818  1.0000
  H   H2505     1.0  0.86359  0.53084  0.20527  1.0000
  H   H2506     1.0  0.66257  0.48453  0.05014  1.0000
  H   H2507     1.0  0.66841  0.40846  0.99429  1.0000
  H   H2508     1.0  0.89752  0.51063  0.22985  1.0000
  C   C2078     1.0  0.94135  0.42261  0.20115  1.0000
  Fe  Fe278     1.0  0.91782  0.45861  0.23017  1.0000
  H   H2509     1.0  0.97184  0.41984  0.19020  1.0000
  H   H2510     1.0  0.76395  0.57492  0.99967  1.0000
  C   C2079     1.0  0.76379  0.54784  0.99660  1.0000
  H   H2511     1.0  0.90111  0.53620  0.22325  1.0000
  H   H2512     1.0  0.79595  0.54129  0.99618  1.0000
  H   H2513     1.0  0.77106  0.54049  0.00421  1.0000
  C   C2080     1.0  0.97358  0.41431  0.20157  1.0000
  S   S557      1.0  0.70318  0.51607  0.99768  1.0000
  C   C2081     1.0  0.96762  0.41534  0.22725  1.0000
  C   C2082     1.0  0.99156  0.61861  0.19480  1.0000
  C   C2083     1.0  0.75120  0.39466  0.99645  1.0000
  H   H2514     1.0  0.94096  0.41182  0.23831  1.0000
  H   H2515     1.0  0.99669  0.45550  0.12663  1.0000
  H   H2516     1.0  0.99406  0.47623  0.10598  1.0000
  C   C2084     1.0  0.86320  0.54359  0.23217  1.0000
  C   C2085     1.0  0.97326  0.47209  0.23680  1.0000
  C   C2086     1.0  0.65141  0.56221  0.00095  1.0000
  C   C2087     1.0  0.86114  0.52899  0.23637  1.0000
  H   H2517     1.0  0.85360  0.55285  0.23256  1.0000
  C   C2088     1.0  0.77442  0.56883  0.99334  1.0000
  H   H2518     1.0  0.63044  0.57669  0.99710  1.0000
  C   C2089     1.0  0.63770  0.56586  0.99666  1.0000
  H   H2519     1.0  0.66338  0.52678  0.99597  1.0000
  S   S558      1.0  0.99781  0.55091  0.23343  1.0000
  H   H2520     1.0  0.79795  0.46133  0.99451  1.0000
  H   H2521     1.0  0.73351  0.51401  0.99400  1.0000
  H   H2522     1.0  0.77923  0.44955  0.99136  1.0000
  C   C2090     1.0  0.65861  0.47662  0.99334  1.0000
  H   H2523     1.0  0.54228  0.58072  0.99344  1.0000
  H   H2524     1.0  0.99734  0.60035  0.21950  1.0000
  H   H2525     1.0  0.76075  0.54059  0.99115  1.0000
  S   S559      1.0  0.99911  0.44603  0.20926  1.0000
  C   C2091     1.0  0.64266  0.54133  0.99153  1.0000
  C   C2092     1.0  0.63334  0.55543  0.99187  1.0000
  H   H2526     1.0  0.75171  0.51732  0.99103  1.0000
  H   H2527     1.0  0.71446  0.40464  0.99160  1.0000
  H   H2528     1.0  0.99909  0.49735  0.18549  1.0000
  H   H2529     1.0  0.55749  0.42634  0.99191  1.0000
  H   H2530     1.0  0.93149  0.59559  0.34665  1.0000
  C   C2093     1.0  0.89863  0.45151  0.29176  1.0000
  S   S560      1.0  0.97134  0.62891  0.46287  1.0000
  H   H2531     1.0  0.98626  0.32901  0.45515  1.0000
  C   C2094     1.0  0.94118  0.50208  0.26145  1.0000
  H   H2532     1.0  0.92686  0.42106  0.43610  1.0000
  C   C2095     1.0  0.98052  0.63939  0.44677  1.0000
  H   H2533     1.0  0.96880  0.57053  0.34943  1.0000
  H   H2534     1.0  0.93373  0.54418  0.25921  1.0000
  H   H2535     1.0  0.90641  0.44332  0.29791  1.0000
  C   C2096     1.0  0.96139  0.62082  0.36282  1.0000
  H   H2536     1.0  0.96806  0.40778  0.42794  1.0000
  H   H2537     1.0  0.96438  0.41671  0.41009  1.0000
  C   C2097     1.0  0.92611  0.57537  0.25167  1.0000
  H   H2538     1.0  0.94267  0.50225  0.27221  1.0000
  C   C2098     1.0  0.88491  0.47734  0.28513  1.0000
  S   S561      1.0  0.98279  0.58863  0.26312  1.0000
  Fe  Fe279     1.0  0.97045  0.61683  0.28946  1.0000
  S   S562      1.0  0.95431  0.60592  0.28554  1.0000
  S   S563      1.0  0.96222  0.63400  0.30377  1.0000
  Fe  Fe280     1.0  0.97248  0.58520  0.28750  1.0000
  S   S564      1.0  0.96563  0.56472  0.30263  1.0000
  Fe  Fe281     1.0  0.96569  0.61020  0.26157  1.0000
  C   C2099     1.0  0.97173  0.60741  0.36203  1.0000
  C   C2100     1.0  0.96235  0.55894  0.25848  1.0000
  S   S565      1.0  0.98028  0.62306  0.26525  1.0000
  Fe  Fe282     1.0  0.95712  0.47001  0.29917  1.0000
  S   S566      1.0  0.97791  0.47100  0.28142  1.0000
  S   S567      1.0  0.93473  0.47552  0.29333  1.0000
  Fe  Fe283     1.0  0.97312  0.46352  0.32404  1.0000
  H   H2539     1.0  0.97862  0.58758  0.35408  1.0000
  S   S568      1.0  0.97252  0.45821  0.34847  1.0000
  C   C2101     1.0  0.98736  0.63561  0.33767  1.0000
  H   H2540     1.0  0.98756  0.36103  0.48905  1.0000
  H   H2541     1.0  0.86044  0.50861  0.29411  1.0000
  H   H2542     1.0  0.94478  0.39844  0.40740  1.0000
  S   S569      1.0  0.96114  0.48482  0.31147  1.0000
  S   S570      1.0  0.96724  0.44868  0.31311  1.0000
  C   C2102     1.0  0.99201  0.62367  0.33045  1.0000
  H   H2543     1.0  0.94405  0.42118  0.44032  1.0000
  C   C2103     1.0  0.96248  0.40715  0.41943  1.0000
  S   S571      1.0  0.95816  0.39523  0.37843  1.0000
  H   H2544     1.0  0.95040  0.33461  0.42904  1.0000
  H   H2545     1.0  0.98153  0.43635  0.37327  1.0000
  C   C2104     1.0  0.95424  0.42237  0.35968  1.0000
  C   C2105     1.0  0.94883  0.37820  0.46096  1.0000
  C   C2106     1.0  0.96755  0.44125  0.35753  1.0000
  C   C2107     1.0  0.97389  0.43246  0.36949  1.0000
  H   H2546     1.0  0.98843  0.55661  0.27721  1.0000
  H   H2547     1.0  0.96309  0.62857  0.36825  1.0000
  Fe  Fe284     1.0  0.97563  0.37894  0.38999  1.0000
  C   C2108     1.0  0.95755  0.43628  0.35278  1.0000
  S   S572      1.0  0.99326  0.50363  0.28198  1.0000
  H   H2548     1.0  0.87198  0.48054  0.26841  1.0000
  H   H2549     1.0  0.95222  0.44323  0.34390  1.0000
  C   C2109     1.0  0.93504  0.46654  0.27960  1.0000
  C   C2110     1.0  0.92399  0.47227  0.27129  1.0000
  C   C2111     1.0  0.92309  0.46482  0.26105  1.0000
  C   C2112     1.0  0.93361  0.45184  0.25863  1.0000
  C   C2113     1.0  0.94509  0.44627  0.26657  1.0000
  C   C2114     1.0  0.94581  0.45364  0.27709  1.0000
  H   H2550     1.0  0.91599  0.48240  0.27292  1.0000
  C   C2115     1.0  0.96224  0.33373  0.39136  1.0000
  H   H2551     1.0  0.95334  0.43625  0.26466  1.0000
  H   H2552     1.0  0.95447  0.44920  0.28345  1.0000
  H   H2553     1.0  0.89927  0.46848  0.30151  1.0000
  S   S573      1.0  0.99529  0.46436  0.30848  1.0000
  H   H2554     1.0  0.93863  0.35942  0.46926  1.0000
  C   C2116     1.0  0.94924  0.62453  0.35607  1.0000
  C   C2117     1.0  0.95314  0.33165  0.38311  1.0000
  H   H2555     1.0  0.98039  0.34766  0.35423  1.0000
  C   C2118     1.0  0.92655  0.51053  0.24266  1.0000
  C   C2119     1.0  0.97399  0.54768  0.29715  1.0000
  C   C2120     1.0  0.96929  0.53486  0.30584  1.0000
  C   C2121     1.0  0.97521  0.52124  0.30136  1.0000
  Fe  Fe285     1.0  0.98856  0.45108  0.29654  1.0000
  H   H2556     1.0  0.86120  0.48954  0.30367  1.0000
  H   H2557     1.0  0.94154  0.58042  0.35839  1.0000
  H   H2558     1.0  0.96099  0.53544  0.31604  1.0000
  H   H2559     1.0  0.97160  0.51141  0.30820  1.0000
  H   H2560     1.0  0.97875  0.58057  0.33248  1.0000
  C   C2122     1.0  0.94737  0.61482  0.34853  1.0000
  H   H2561     1.0  0.96130  0.48610  0.25758  1.0000
  C   C2123     1.0  0.95775  0.60108  0.34741  1.0000
  Fe  Fe286     1.0  0.98555  0.34652  0.40421  1.0000
  C   C2124     1.0  0.97227  0.63448  0.31658  1.0000
  C   C2125     1.0  0.96775  0.64651  0.32368  1.0000
  C   C2126     1.0  0.97533  0.64714  0.33411  1.0000
  H   H2562     1.0  0.87953  0.45493  0.26546  1.0000
  C   C2127     1.0  0.99168  0.35838  0.47819  1.0000
  H   H2563     1.0  0.99018  0.41679  0.31947  1.0000
  H   H2564     1.0  0.99009  0.64249  0.40927  1.0000
  C   C2128     1.0  0.98812  0.36904  0.46567  1.0000
  C   C2129     1.0  0.99339  0.36568  0.45158  1.0000
  N   N142      1.0  0.94634  0.40727  0.42516  1.0000
  H   H2565     1.0  0.95376  0.59159  0.31713  1.0000
  H   H2566     1.0  0.95827  0.65534  0.32116  1.0000
  C   C2130     1.0  0.99571  0.41388  0.32901  1.0000
  N   N143      1.0  0.94676  0.55697  0.26368  1.0000
  H   H2567     1.0  0.99415  0.40276  0.35761  1.0000
  C   C2131     1.0  0.94435  0.39391  0.43696  1.0000
  C   C2132     1.0  0.88837  0.49631  0.29631  1.0000
  H   H2568     1.0  0.93956  0.57831  0.34096  1.0000
  C   C2133     1.0  0.95950  0.32870  0.44865  1.0000
  C   C2134     1.0  0.98156  0.63664  0.43286  1.0000
  H   H2569     1.0  0.92690  0.36473  0.44779  1.0000
  C   C2135     1.0  0.95080  0.39056  0.44953  1.0000
  H   H2570     1.0  0.98463  0.38146  0.34511  1.0000
  H   H2571     1.0  0.96855  0.39682  0.41539  1.0000
  S   S574      1.0  0.96986  0.36582  0.41312  1.0000
  S   S575      1.0  0.99648  0.63541  0.35151  1.0000
  C   C2136     1.0  0.94433  0.55001  0.27970  1.0000
  C   C2137     1.0  0.89439  0.46615  0.29370  1.0000
  C   C2138     1.0  0.93631  0.57164  0.26122  1.0000
  H   H2572     1.0  0.88557  0.49006  0.30792  1.0000
  C   C2139     1.0  0.93653  0.58293  0.26809  1.0000
  H   H2573     1.0  0.97883  0.39534  0.32968  1.0000
  H   H2574     1.0  0.97160  0.65635  0.33968  1.0000
  C   C2140     1.0  0.93561  0.38420  0.43669  1.0000
  C   C2141     1.0  0.95663  0.32569  0.46441  1.0000
  H   H2575     1.0  0.95313  0.53549  0.25786  1.0000
  H   H2576     1.0  0.92810  0.60574  0.27023  1.0000
  H   H2577     1.0  0.93262  0.54868  0.28414  1.0000
  H   H2578     1.0  0.94657  0.55662  0.28640  1.0000
  H   H2579     1.0  0.95196  0.53885  0.28187  1.0000
  C   C2142     1.0  0.88366  0.45808  0.27337  1.0000
  H   H2580     1.0  0.94144  0.63517  0.35637  1.0000
  H   H2581     1.0  0.94233  0.41808  0.40316  1.0000
  C   C2143     1.0  0.93311  0.33357  0.44885  1.0000
  H   H2582     1.0  0.94410  0.58098  0.27536  1.0000
  C   C2144     1.0  0.91762  0.60045  0.25577  1.0000
  S   S576      1.0  0.93280  0.44311  0.24513  1.0000
  H   H2583     1.0  0.91394  0.46892  0.25537  1.0000
  H   H2584     1.0  0.97589  0.41169  0.38524  1.0000
  H   H2585     1.0  0.96431  0.34458  0.38984  1.0000
  C   C2145     1.0  0.98350  0.39339  0.33964  1.0000
  H   H2586     1.0  0.88201  0.51470  0.27238  1.0000
  C   C2146     1.0  0.97077  0.41846  0.37623  1.0000
  H   H2587     1.0  0.85757  0.49575  0.28533  1.0000
  H   H2588     1.0  0.87650  0.50305  0.26443  1.0000
  C   C2147     1.0  0.91695  0.58959  0.24901  1.0000
  H   H2589     1.0  0.88519  0.50826  0.29679  1.0000
  H   H2590     1.0  0.92754  0.41000  0.41534  1.0000
  H   H2591     1.0  0.96502  0.56554  0.26489  1.0000
  H   H2592     1.0  0.94823  0.34090  0.37527  1.0000
  C   C2148     1.0  0.87945  0.47276  0.27511  1.0000
  C   C2149     1.0  0.88383  0.50292  0.27169  1.0000
  H   H2593     1.0  0.89699  0.43625  0.27981  1.0000
  H   H2594     1.0  0.95761  0.39737  0.45057  1.0000
  C   C2150     1.0  0.96115  0.41327  0.37116  1.0000
  H   H2595     1.0  0.90075  0.49349  0.29235  1.0000
  C   C2151     1.0  0.86424  0.49691  0.29269  1.0000
  C   C2152     1.0  0.89338  0.44751  0.28154  1.0000
  H   H2596     1.0  0.93986  0.43105  0.42270  1.0000
  H   H2597     1.0  0.96856  0.34435  0.47176  1.0000
  H   H2598     1.0  0.94662  0.41852  0.35584  1.0000
  H   H2599     1.0  0.94469  0.60848  0.32323  1.0000
  H   H2600     1.0  0.96459  0.60368  0.31829  1.0000
  Fe  Fe287     1.0  0.96554  0.63956  0.48245  1.0000
  N   N144      1.0  0.88054  0.49306  0.28650  1.0000
  H   H2601     1.0  0.89556  0.49936  0.26574  1.0000
  C   C2153     1.0  0.99115  0.33998  0.35227  1.0000
  S   S577      1.0  0.98772  0.59573  0.29338  1.0000
  C   C2154     1.0  0.93896  0.42073  0.43134  1.0000
  C   C2155     1.0  0.93992  0.40847  0.41228  1.0000
  C   C2156     1.0  0.96783  0.57759  0.33829  1.0000
  C   C2157     1.0  0.92734  0.59711  0.26534  1.0000
  C   C2158     1.0  0.98454  0.62313  0.31988  1.0000
  N   N145      1.0  0.95554  0.59106  0.33924  1.0000
  H   H2602     1.0  0.93786  0.61832  0.34333  1.0000
  H   H2603     1.0  0.97489  0.39981  0.34733  1.0000
  H   H2604     1.0  0.95405  0.37580  0.47034  1.0000
  H   H2605     1.0  0.92025  0.51813  0.26307  1.0000
  H   H2606     1.0  0.97649  0.62821  0.43205  1.0000
  H   H2607     1.0  0.93022  0.38578  0.42765  1.0000
  Fe  Fe288     1.0  0.98283  0.48428  0.29480  1.0000
  H   H2608     1.0  0.97590  0.33121  0.48676  1.0000
  C   C2159     1.0  0.93362  0.37194  0.44824  1.0000
  C   C2160     1.0  0.94787  0.33255  0.44107  1.0000
  C   C2161     1.0  0.95187  0.49270  0.25288  1.0000
  C   C2162     1.0  0.94023  0.36892  0.46033  1.0000
  H   H2609     1.0  0.91086  0.61159  0.25330  1.0000
  C   C2163     1.0  0.97002  0.59762  0.35446  1.0000
  H   H2610     1.0  0.98841  0.42096  0.33687  1.0000
  H   H2611     1.0  0.98127  0.37989  0.46691  1.0000
  S   S578      1.0  0.98887  0.37918  0.43607  1.0000
  H   H2612     1.0  0.91835  0.33226  0.47031  1.0000
  C   C2164     1.0  0.98477  0.54680  0.28401  1.0000
  H   H2613     1.0  0.96817  0.46471  0.24690  1.0000
  H   H2614     1.0  0.99355  0.44430  0.26458  1.0000
  H   H2615     1.0  0.96596  0.57045  0.33182  1.0000
  C   C2165     1.0  0.99057  0.53320  0.27948  1.0000
  H   H2616     1.0  0.98142  0.60487  0.36690  1.0000
  C   C2166     1.0  0.96724  0.33393  0.48008  1.0000
  H   H2617     1.0  0.99199  0.57649  0.48009  1.0000
  H   H2618     1.0  0.98710  0.59610  0.47249  1.0000
  C   C2167     1.0  0.98920  0.64476  0.41996  1.0000
  S   S579      1.0  0.95221  0.62186  0.24398  1.0000
  Fe  Fe289     1.0  0.99058  0.37031  0.41614  1.0000
  C   C2168     1.0  0.98707  0.65031  0.44775  1.0000
  H   H2619     1.0  0.97064  0.54812  0.25952  1.0000
  C   C2169     1.0  0.94141  0.58614  0.34664  1.0000
  C   C2170     1.0  0.95456  0.59903  0.32386  1.0000
  C   C2171     1.0  0.94515  0.54641  0.25571  1.0000
  H   H2620     1.0  0.96448  0.56471  0.24662  1.0000
  C   C2172     1.0  0.98580  0.52041  0.28811  1.0000
  C   C2173     1.0  0.92850  0.51091  0.25639  1.0000
  S   S580      1.0  0.98937  0.35913  0.38066  1.0000
  H   H2621     1.0  0.92517  0.56762  0.24586  1.0000
  Fe  Fe290     1.0  0.99388  0.65634  0.35947  1.0000
  H   H2622     1.0  0.92416  0.33636  0.44292  1.0000
  H   H2623     1.0  0.98860  0.64734  0.28638  1.0000
  H   H2624     1.0  0.98628  0.65253  0.45842  1.0000
  H   H2625     1.0  0.90958  0.59233  0.24134  1.0000
  S   S581      1.0  0.99515  0.38500  0.39365  1.0000
  H   H2626     1.0  0.97065  0.32812  0.44186  1.0000
  C   C2174     1.0  0.99342  0.58751  0.48038  1.0000
  H   H2627     1.0  0.98825  0.61391  0.31437  1.0000
  H   H2628     1.0  0.95624  0.33629  0.48782  1.0000
  H   H2629     1.0  0.98508  0.61401  0.48806  1.0000
  C   C2175     1.0  0.92987  0.33115  0.46425  1.0000
  H   H2630     1.0  0.94759  0.55064  0.24349  1.0000
  C   C2176     1.0  0.94141  0.32725  0.47195  1.0000
  H   H2631     1.0  0.98716  0.52388  0.24425  1.0000
  C   C2177     1.0  0.99506  0.65809  0.43494  1.0000
  C   C2178     1.0  0.99613  0.65536  0.42102  1.0000
  Fe  Fe291     1.0  0.99649  0.60117  0.26885  1.0000
  N   N146      1.0  0.99799  0.39783  0.33602  1.0000
  H   H2632     1.0  0.99693  0.39789  0.30764  1.0000
  H   H2633     1.0  0.99853  0.53257  0.26911  1.0000
  H   H2634     1.0  0.93828  0.32562  0.48389  1.0000
  C   C2179     1.0  0.98782  0.59398  0.54724  1.0000
  H   H2635     1.0  0.98711  0.36210  0.70730  1.0000
  H   H2636     1.0  0.93256  0.44865  0.66186  1.0000
  C   C2180     1.0  0.96439  0.60302  0.53909  1.0000
  H   H2637     1.0  0.97779  0.49446  0.58622  1.0000
  C   C2181     1.0  0.94832  0.47974  0.67583  1.0000
  H   H2638     1.0  0.96632  0.48379  0.72083  1.0000
  Fe  Fe292     1.0  0.89206  0.52473  0.70364  1.0000
  S   S582      1.0  0.90692  0.50241  0.70159  1.0000
  S   S583      1.0  0.87249  0.52608  0.72290  1.0000
  Fe  Fe293     1.0  0.90931  0.54045  0.67504  1.0000
  C   C2182     1.0  0.99863  0.47831  0.58658  1.0000
  N   N147      1.0  0.99278  0.39012  0.70499  1.0000
  Fe  Fe294     1.0  0.90501  0.50964  0.67787  1.0000
  S   S584      1.0  0.90160  0.49592  0.66410  1.0000
  H   H2639     1.0  0.94498  0.33589  0.59617  1.0000
  C   C2183     1.0  0.93941  0.55540  0.63462  1.0000
  S   S585      1.0  0.88886  0.53126  0.68017  1.0000
  C   C2184     1.0  0.92607  0.47275  0.72450  1.0000
  C   C2185     1.0  0.96727  0.54657  0.69089  1.0000
  Fe  Fe295     1.0  0.93950  0.39609  0.71844  1.0000
  S   S586      1.0  0.93777  0.41702  0.70101  1.0000
  S   S587      1.0  0.97912  0.52571  0.63207  1.0000
  C   C2186     1.0  0.98712  0.38201  0.72014  1.0000
  C   C2187     1.0  0.98382  0.58041  0.55454  1.0000
  H   H2640     1.0  0.95790  0.55733  0.72108  1.0000
  H   H2641     1.0  0.99721  0.42248  0.53515  1.0000
  H   H2642     1.0  0.94979  0.58774  0.54592  1.0000
  C   C2188     1.0  0.97973  0.46758  0.53185  1.0000
  C   C2189     1.0  0.95562  0.37450  0.69342  1.0000
  C   C2190     1.0  0.95988  0.38680  0.68305  1.0000
  C   C2191     1.0  0.96328  0.38694  0.66783  1.0000
  H   H2643     1.0  0.96069  0.39615  0.68667  1.0000
  H   H2644     1.0  0.96645  0.39648  0.65988  1.0000
  C   C2192     1.0  0.94596  0.42342  0.63990  1.0000
  H   H2645     1.0  0.93926  0.54337  0.67142  1.0000
  C   C2193     1.0  0.89999  0.47833  0.67476  1.0000
  C   C2194     1.0  0.88933  0.47165  0.67329  1.0000
  C   C2195     1.0  0.88771  0.45773  0.68214  1.0000
  C   C2196     1.0  0.89710  0.45030  0.69207  1.0000
  C   C2197     1.0  0.90818  0.45672  0.69303  1.0000
  C   C2198     1.0  0.90936  0.47090  0.68469  1.0000
  H   H2646     1.0  0.88209  0.47740  0.66558  1.0000
  H   H2647     1.0  0.87923  0.45272  0.68126  1.0000
  H   H2648     1.0  0.91584  0.45079  0.70022  1.0000
  H   H2649     1.0  0.91765  0.47600  0.68579  1.0000
  H   H2650     1.0  0.97526  0.49874  0.65698  1.0000
  S   S588      1.0  0.91562  0.40124  0.73090  1.0000
  C   C2199     1.0  0.98155  0.42558  0.57068  1.0000
  Fe  Fe296     1.0  0.99876  0.55939  0.68052  1.0000
  S   S589      1.0  0.95947  0.36423  0.55066  1.0000
  C   C2200     1.0  0.92750  0.56099  0.58877  1.0000
  C   C2201     1.0  0.99341  0.36046  0.68483  1.0000
  S   S590      1.0  0.98360  0.62201  0.52981  1.0000
  C   C2202     1.0  0.98891  0.48638  0.71170  1.0000
  H   H2651     1.0  0.98056  0.51925  0.73133  1.0000
  H   H2652     1.0  0.97200  0.56332  0.65831  1.0000
  C   C2203     1.0  0.97332  0.42780  0.73239  1.0000
  S   S591      1.0  0.96561  0.37490  0.64414  1.0000
  H   H2653     1.0  0.95013  0.55154  0.59119  1.0000
  S   S592      1.0  0.93580  0.32601  0.51452  1.0000
  N   N148      1.0  0.96891  0.32832  0.58876  1.0000
  C   C2204     1.0  0.90478  0.53443  0.63867  1.0000
  C   C2205     1.0  0.95732  0.53634  0.65393  1.0000
  C   C2206     1.0  0.98097  0.35195  0.61459  1.0000
  H   H2654     1.0  0.90975  0.46544  0.71878  1.0000
  S   S593      1.0  0.95099  0.37406  0.71250  1.0000
  S   S594      1.0  0.92516  0.51911  0.67094  1.0000
  H   H2655     1.0  0.99199  0.35996  0.54306  1.0000
  H   H2656     1.0  0.93056  0.56953  0.57924  1.0000
  C   C2207     1.0  0.98975  0.42052  0.54630  1.0000
  H   H2657     1.0  0.98621  0.44513  0.62890  1.0000
  H   H2658     1.0  0.97595  0.37985  0.72115  1.0000
  H   H2659     1.0  0.98362  0.41339  0.57516  1.0000
  H   H2660     1.0  0.89934  0.41758  0.65770  1.0000
  H   H2661     1.0  0.94763  0.46849  0.68270  1.0000
  C   C2208     1.0  0.97335  0.33631  0.59750  1.0000
  H   H2662     1.0  0.98117  0.44571  0.53015  1.0000
  C   C2209     1.0  0.96377  0.49684  0.66190  1.0000
  H   H2663     1.0  0.95473  0.38003  0.57353  1.0000
  N   N149      1.0  0.91541  0.52713  0.62691  1.0000
  C   C2210     1.0  0.97670  0.53336  0.68734  1.0000
  C   C2211     1.0  0.90803  0.51755  0.62287  1.0000
  C   C2212     1.0  0.92827  0.51737  0.63332  1.0000
  C   C2213     1.0  0.91978  0.53854  0.61374  1.0000
  C   C2214     1.0  0.90873  0.54911  0.60663  1.0000
  C   C2215     1.0  0.93489  0.53958  0.60761  1.0000
  C   C2216     1.0  0.91258  0.56014  0.59432  1.0000
  C   C2217     1.0  0.91843  0.39959  0.68497  1.0000
  C   C2218     1.0  0.96234  0.37480  0.66301  1.0000
  S   S595      1.0  0.96464  0.34859  0.51423  1.0000
  H   H2664     1.0  0.89748  0.52384  0.61922  1.0000
  H   H2665     1.0  0.90495  0.50856  0.63246  1.0000
  H   H2666     1.0  0.91552  0.51220  0.61373  1.0000
  H   H2667     1.0  0.93410  0.52391  0.63695  1.0000
  H   H2668     1.0  0.92459  0.50903  0.64328  1.0000
  H   H2669     1.0  0.93646  0.51097  0.62531  1.0000
  H   H2670     1.0  0.89702  0.54895  0.61060  1.0000
  H   H2671     1.0  0.94412  0.53203  0.61209  1.0000
  H   H2672     1.0  0.90398  0.56814  0.58910  1.0000
  C   C2219     1.0  0.96665  0.37729  0.56910  1.0000
  C   C2220     1.0  0.95808  0.36255  0.67337  1.0000
  S   S596      1.0  0.97356  0.40195  0.60735  1.0000
  H   H2673     1.0  0.89044  0.45437  0.73202  1.0000
  C   C2221     1.0  0.97577  0.44669  0.65146  1.0000
  S   S597      1.0  0.91503  0.55994  0.65730  1.0000
  H   H2674     1.0  0.96958  0.42955  0.56993  1.0000
  Fe  Fe297     1.0  0.92548  0.51444  0.69496  1.0000
  H   H2675     1.0  0.95663  0.61181  0.53355  1.0000
  C   C2222     1.0  0.91150  0.47138  0.72597  1.0000
  H   H2676     1.0  0.97807  0.51052  0.68741  1.0000
  S   S598      1.0  0.97628  0.52387  0.59161  1.0000
  C   C2223     1.0  0.96044  0.58943  0.54626  1.0000
  Fe  Fe298     1.0  0.98230  0.42022  0.61011  1.0000
  H   H2677     1.0  0.99087  0.55240  0.53837  1.0000
  S   S599      1.0  0.91071  0.53639  0.69875  1.0000
  C   C2224     1.0  0.99150  0.36774  0.69626  1.0000
  H   H2678     1.0  0.95731  0.60322  0.64192  1.0000
  C   C2225     1.0  0.95234  0.54693  0.69789  1.0000
  S   S600      1.0  0.97399  0.56252  0.68790  1.0000
  C   C2226     1.0  0.98203  0.40459  0.70230  1.0000
  S   S601      1.0  0.95454  0.62835  0.50476  1.0000
  H   H2679     1.0  0.97582  0.47245  0.52161  1.0000
  H   H2680     1.0  0.97917  0.48872  0.53596  1.0000
  H   H2681     1.0  0.95729  0.35317  0.66966  1.0000
  C   C2227     1.0  0.95366  0.54735  0.62896  1.0000
  Fe  Fe299     1.0  0.98103  0.54522  0.57627  1.0000
  C   C2228     1.0  0.93857  0.55077  0.59545  1.0000
  C   C2229     1.0  0.98964  0.45526  0.55829  1.0000
  H   H2682     1.0  0.97795  0.42304  0.54510  1.0000
  C   C2230     1.0  0.94420  0.43626  0.64488  1.0000
  C   C2231     1.0  0.93401  0.55356  0.64996  1.0000
  C   C2232     1.0  0.98880  0.56969  0.51885  1.0000
  H   H2683     1.0  0.94323  0.48738  0.68368  1.0000
  N   N150      1.0  0.88406  0.47601  0.73762  1.0000
  H   H2684     1.0  0.93228  0.56239  0.62716  1.0000
  C   C2233     1.0  0.97218  0.36943  0.55762  1.0000
  C   C2234     1.0  0.95491  0.36232  0.68854  1.0000
  H   H2685     1.0  0.86782  0.48162  0.72391  1.0000
  H   H2686     1.0  0.95693  0.50147  0.65329  1.0000
  S   S602      1.0  0.98202  0.64605  0.49084  1.0000
  H   H2687     1.0  0.96895  0.48245  0.68837  1.0000
  H   H2688     1.0  0.96142  0.34750  0.63081  1.0000
  S   S603      1.0  0.96972  0.44401  0.60556  1.0000
  H   H2689     1.0  0.89311  0.40541  0.67490  1.0000
  H   H2690     1.0  0.90970  0.54224  0.64152  1.0000
  C   C2235     1.0  0.99624  0.57835  0.50595  1.0000
  C   C2236     1.0  0.98444  0.42511  0.74040  1.0000
  Fe  Fe300     1.0  0.91450  0.42275  0.71428  1.0000
  C   C2237     1.0  0.98124  0.44985  0.71712  1.0000
  C   C2238     1.0  0.97324  0.47583  0.67961  1.0000
  H   H2691     1.0  0.94505  0.55708  0.70078  1.0000
  H   H2692     1.0  0.94109  0.48254  0.66765  1.0000
  H   H2693     1.0  0.96597  0.60081  0.49155  1.0000
  C   C2239     1.0  0.98987  0.59063  0.61530  1.0000
  H   H2694     1.0  0.99052  0.34979  0.68735  1.0000
  C   C2240     1.0  0.97200  0.43988  0.72039  1.0000
  H   H2695     1.0  0.99143  0.57168  0.56040  1.0000
  C   C2241     1.0  0.97201  0.52882  0.72713  1.0000
  H   H2696     1.0  0.93963  0.40316  0.64342  1.0000
  C   C2242     1.0  0.97098  0.52058  0.69061  1.0000
  C   C2243     1.0  0.94327  0.54458  0.65955  1.0000
  H   H2697     1.0  0.95775  0.54849  0.61713  1.0000
  H   H2698     1.0  0.93556  0.53429  0.70780  1.0000
  S   S604      1.0  0.94817  0.50569  0.70075  1.0000
  C   C2244     1.0  0.93751  0.41291  0.64789  1.0000
  C   C2245     1.0  0.97627  0.47680  0.64219  1.0000
  Fe  Fe301     1.0  0.96970  0.63649  0.51342  1.0000
  C   C2246     1.0  0.98303  0.48286  0.58920  1.0000
  H   H2699     1.0  0.89743  0.42218  0.67515  1.0000
  H   H2700     1.0  0.95672  0.58019  0.62240  1.0000
  H   H2701     1.0  0.98497  0.47676  0.67448  1.0000
  C   C2247     1.0  0.99288  0.59304  0.59983  1.0000
  C   C2248     1.0  0.99229  0.44724  0.72517  1.0000
  C   C2249     1.0  0.98208  0.46737  0.63214  1.0000
  C   C2250     1.0  0.96457  0.33821  0.61170  1.0000
  C   C2251     1.0  0.92890  0.48077  0.73311  1.0000
  H   H2702     1.0  0.95384  0.42168  0.62966  1.0000
  C   C2252     1.0  0.95383  0.33612  0.58589  1.0000
  H   H2703     1.0  0.90175  0.52623  0.64901  1.0000
  H   H2704     1.0  0.89407  0.54083  0.63546  1.0000
  S   S605      1.0  0.92098  0.43425  0.72800  1.0000
  H   H2705     1.0  0.94418  0.54678  0.73042  1.0000
  H   H2706     1.0  0.97203  0.38747  0.58388  1.0000
  H   H2707     1.0  0.93145  0.38498  0.66302  1.0000
  C   C2253     1.0  0.97644  0.38155  0.57497  1.0000
  H   H2708     1.0  0.95167  0.35278  0.69652  1.0000
  Fe  Fe302     1.0  0.98033  0.38973  0.62880  1.0000
  C   C2254     1.0  0.96231  0.53736  0.63868  1.0000
  Fe  Fe303     1.0  0.98557  0.53053  0.60732  1.0000
  C   C2255     1.0  0.98987  0.35023  0.60076  1.0000
  S   S606      1.0  0.95344  0.65801  0.51665  1.0000
  C   C2256     1.0  0.95838  0.59110  0.64647  1.0000
  C   C2257     1.0  0.98801  0.44553  0.55032  1.0000
  N   N151      1.0  0.97348  0.58262  0.64054  1.0000
  H   H2709     1.0  0.97677  0.57133  0.52201  1.0000
  C   C2258     1.0  0.93402  0.43863  0.65797  1.0000
  C   C2259     1.0  0.97015  0.57808  0.55397  1.0000
  C   C2260     1.0  0.97628  0.48536  0.72304  1.0000
  C   C2261     1.0  0.94682  0.53411  0.70156  1.0000
  C   C2262     1.0  0.97419  0.47227  0.59510  1.0000
  H   H2710     1.0  0.96419  0.52900  0.66146  1.0000
  C   C2263     1.0  0.96975  0.58680  0.60098  1.0000
  C   C2264     1.0  0.98761  0.36591  0.55198  1.0000
  H   H2711     1.0  0.97561  0.43500  0.65502  1.0000
  S   S607      1.0  0.95996  0.44197  0.70854  1.0000
  H   H2712     1.0  0.98679  0.47175  0.62067  1.0000
  H   H2713     1.0  0.91477  0.40867  0.69113  1.0000
  C   C2265     1.0  0.99650  0.45271  0.59652  1.0000
  H   H2714     1.0  0.98564  0.38848  0.72868  1.0000
  H   H2715     1.0  0.97693  0.48827  0.63785  1.0000
  H   H2716     1.0  0.98830  0.53302  0.68199  1.0000
  H   H2717     1.0  0.91755  0.43068  0.67592  1.0000
  C   C2266     1.0  0.98654  0.47063  0.55310  1.0000
  C   C2267     1.0  0.95594  0.52105  0.69757  1.0000
  C   C2268     1.0  0.92543  0.42826  0.66597  1.0000
  H   H2718     1.0  0.99960  0.35509  0.59648  1.0000
  H   H2719     1.0  0.95893  0.50369  0.67047  1.0000
  C   C2269     1.0  0.99418  0.43464  0.73651  1.0000
  C   C2270     1.0  0.98160  0.47678  0.53991  1.0000
  C   C2271     1.0  0.87923  0.48286  0.72335  1.0000
  C   C2272     1.0  0.92676  0.41514  0.66114  1.0000
  H   H2720     1.0  0.98133  0.58390  0.65916  1.0000
  N   N152      1.0  0.91677  0.40488  0.66935  1.0000
  H   H2721     1.0  0.93022  0.39428  0.68561  1.0000
  H   H2722     1.0  0.91803  0.39465  0.65146  1.0000
  C   C2273     1.0  0.91979  0.39158  0.66301  1.0000
  H   H2723     1.0  0.91160  0.39131  0.69131  1.0000
  H   H2724     1.0  0.91229  0.38397  0.66953  1.0000
  C   C2274     1.0  0.90100  0.41284  0.66923  1.0000
  C   C2275     1.0  0.99738  0.37036  0.55770  1.0000
  Fe  Fe304     1.0  0.96680  0.34593  0.53772  1.0000
  S   S608      1.0  0.98672  0.40895  0.63272  1.0000
  C   C2276     1.0  0.98436  0.55385  0.72896  1.0000
  C   C2277     1.0  0.99847  0.36710  0.67016  1.0000
  H   H2725     1.0  0.98527  0.59294  0.58070  1.0000
  H   H2726     1.0  0.96679  0.59479  0.51068  1.0000
  H   H2727     1.0  0.97088  0.40300  0.70245  1.0000
  H   H2728     1.0  0.97354  0.46407  0.68531  1.0000
  H   H2729     1.0  0.98476  0.59812  0.64301  1.0000
  N   N153      1.0  0.96391  0.48089  0.66834  1.0000
  C   C2278     1.0  0.98092  0.45716  0.59866  1.0000
  H   H2730     1.0  0.98309  0.43068  0.57911  1.0000
  H   H2731     1.0  0.97764  0.53487  0.71644  1.0000
  H   H2732     1.0  0.98043  0.41097  0.71092  1.0000
  C   C2279     1.0  0.98179  0.45238  0.63675  1.0000
  C   C2280     1.0  0.98288  0.45216  0.53691  1.0000
  C   C2281     1.0  0.96993  0.47137  0.65728  1.0000
  H   H2733     1.0  0.95600  0.58922  0.65880  1.0000
  S   S609      1.0  0.96515  0.56098  0.56241  1.0000
  H   H2734     1.0  0.98034  0.45925  0.70798  1.0000
  C   C2282     1.0  0.96676  0.58408  0.61646  1.0000
  H   H2735     1.0  0.99271  0.40835  0.55095  1.0000
  C   C2283     1.0  0.97815  0.60529  0.53940  1.0000
  N   N154      1.0  0.96496  0.53844  0.73805  1.0000
  H   H2736     1.0  0.96495  0.56346  0.64294  1.0000
  H   H2737     1.0  0.87896  0.49496  0.72027  1.0000
  C   C2284     1.0  0.97168  0.59183  0.49964  1.0000
  H   H2738     1.0  0.98574  0.41190  0.69155  1.0000
  H   H2739     1.0  0.96563  0.45100  0.67299  1.0000
  C   C2285     1.0  0.96997  0.45599  0.66162  1.0000
  H   H2740     1.0  0.93522  0.46761  0.71664  1.0000
  Fe  Fe305     1.0  0.94452  0.42620  0.71666  1.0000
  H   H2741     1.0  0.96214  0.47579  0.59678  1.0000
  H   H2742     1.0  0.95068  0.44441  0.63847  1.0000
  H   H2743     1.0  0.94927  0.58776  0.64388  1.0000
  H   H2744     1.0  0.98876  0.48547  0.70072  1.0000
  Fe  Fe306     1.0  0.93934  0.65065  0.50601  1.0000
  S   S610      1.0  0.89524  0.43282  0.70293  1.0000
  S   S611      1.0  0.98786  0.55278  0.59309  1.0000
  C   C2286     1.0  0.99464  0.38202  0.69324  1.0000
  H   H2745     1.0  0.94018  0.48184  0.73199  1.0000
  C   C2287     1.0  0.97386  0.56658  0.64601  1.0000
  C   C2288     1.0  0.89934  0.47780  0.73629  1.0000
  Fe  Fe307     1.0  0.99724  0.39271  0.59694  1.0000
  N   N155      1.0  0.99156  0.42928  0.55606  1.0000
  C   C2289     1.0  0.99185  0.37815  0.56924  1.0000
  C   C2290     1.0  0.98954  0.48771  0.74019  1.0000
  H   H2746     1.0  0.99340  0.34202  0.58149  1.0000
  S   S612      1.0  0.91456  0.65353  0.51351  1.0000
  C   C2291     1.0  0.96834  0.34597  0.62006  1.0000
  H   H2747     1.0  0.88676  0.47784  0.71403  1.0000
  H   H2748     1.0  0.98379  0.35802  0.62107  1.0000
  H   H2749     1.0  0.98212  0.55683  0.71793  1.0000
  H   H2750     1.0  0.95353  0.34798  0.58043  1.0000
  H   H2751     1.0  0.98473  0.55968  0.64133  1.0000
  H   H2752     1.0  0.96209  0.58511  0.59536  1.0000
  S   S613      1.0  0.94833  0.40460  0.73300  1.0000
  H   H2753     1.0  0.99500  0.37124  0.72320  1.0000
  C   C2292     1.0  0.97669  0.58601  0.62412  1.0000
  H   H2754     1.0  0.90083  0.51982  0.73188  1.0000
  H   H2755     1.0  0.96626  0.42014  0.73518  1.0000
  C   C2293     1.0  0.98616  0.34260  0.59225  1.0000
  Fe  Fe308     1.0  0.95470  0.32847  0.52299  1.0000
  C   C2294     1.0  0.87695  0.52622  0.73945  1.0000
  C   C2295     1.0  0.95336  0.55083  0.73207  1.0000
  Fe  Fe309     1.0  0.98671  0.33214  0.51222  1.0000
  S   S614      1.0  0.95466  0.32731  0.54665  1.0000
  C   C2296     1.0  0.98434  0.58620  0.64682  1.0000
  H   H2756     1.0  0.95462  0.33385  0.61638  1.0000
  C   C2297     1.0  0.97926  0.32726  0.57422  1.0000
  H   H2757     1.0  0.96365  0.52428  0.72460  1.0000
  H   H2758     1.0  0.99824  0.59220  0.62004  1.0000
  H   H2759     1.0  0.99330  0.45106  0.56866  1.0000
  H   H2760     1.0  0.98746  0.60709  0.50686  1.0000
  H   H2761     1.0  0.99961  0.36157  0.66132  1.0000
  H   H2762     1.0  0.99849  0.59565  0.54755  1.0000
  H   H2763     1.0  0.95047  0.33111  0.57844  1.0000
  H   H2764     1.0  0.98799  0.47779  0.55939  1.0000
  H   H2765     1.0  0.97964  0.33840  0.56699  1.0000
  C   C2298     1.0  0.97661  0.48594  0.73728  1.0000
  H   H2766     1.0  0.96862  0.58144  0.49976  1.0000
  N   N156      1.0  0.98816  0.59032  0.49563  1.0000
  C   C2299     1.0  0.99111  0.60468  0.49555  1.0000
  S   S615      1.0  0.98972  0.33097  0.53493  1.0000
  C   C2300     1.0  0.98282  0.59120  0.59269  1.0000
  H   H2767     1.0  0.99582  0.57939  0.64382  1.0000
  C   C2301     1.0  0.99682  0.55870  0.52848  1.0000
  C   C2302     1.0  0.99519  0.55978  0.73121  1.0000
  H   H2768     1.0  0.94826  0.55867  0.73970  1.0000
  Fe  Fe310     1.0  0.90810  0.51028  0.78862  1.0000
  S   S616      1.0  0.90847  0.48603  0.79515  1.0000
  S   S617      1.0  0.88679  0.52578  0.78361  1.0000
  Fe  Fe311     1.0  0.93952  0.50573  0.79341  1.0000
  S   S618      1.0  0.94233  0.48107  0.80078  1.0000
  H   H2769     1.0  0.96574  0.45117  0.80771  1.0000
  Fe  Fe312     1.0  0.93189  0.48338  0.78184  1.0000
  S   S619      1.0  0.94321  0.46961  0.76499  1.0000
  Fe  Fe313     1.0  0.91870  0.48617  0.81357  1.0000
  S   S620      1.0  0.91090  0.47212  0.83577  1.0000
  S   S621      1.0  0.93066  0.50766  0.77348  1.0000
  S   S622      1.0  0.91664  0.51082  0.80802  1.0000
  Fe  Fe314     1.0  0.81635  0.50049  0.90995  1.0000
  S   S623      1.0  0.82324  0.51723  0.88952  1.0000
  S   S624      1.0  0.80038  0.50745  0.93033  1.0000
  Fe  Fe315     1.0  0.83233  0.47437  0.89542  1.0000
  S   S625      1.0  0.84076  0.48873  0.87394  1.0000
  S   S626      1.0  0.83986  0.44965  0.89773  1.0000
  Fe  Fe316     1.0  0.84559  0.50138  0.88781  1.0000
  S   S627      1.0  0.86612  0.51066  0.87974  1.0000
  Fe  Fe317     1.0  0.81782  0.50331  0.87727  1.0000
  S   S628      1.0  0.80917  0.51239  0.85634  1.0000
  S   S629      1.0  0.83931  0.48563  0.90921  1.0000
  S   S630      1.0  0.80879  0.48798  0.89773  1.0000
  H   H2770     1.0  0.86169  0.45631  0.87097  1.0000
  Fe  Fe318     1.0  0.60796  0.52478  0.95297  1.0000
  C   C2303     1.0  0.99864  0.55636  0.74511  1.0000
  S   S631      1.0  0.61418  0.50564  0.94136  1.0000
  Fe  Fe319     1.0  0.61086  0.55689  0.94535  1.0000
  S   S632      1.0  0.60496  0.55880  0.96902  1.0000
  S   S633      1.0  0.61462  0.57723  0.92793  1.0000
  H   H2771     1.0  0.55454  0.44323  0.97782  1.0000
  H   H2772     1.0  0.81881  0.43641  0.86104  1.0000
  H   H2773     1.0  0.74089  0.54481  0.97190  1.0000
  H   H2774     1.0  0.95900  0.43161  0.80136  1.0000
  S   S634      1.0  0.62727  0.53522  0.94925  1.0000
  S   S635      1.0  0.59194  0.54660  0.94698  1.0000
  Fe  Fe320     1.0  0.72595  0.54634  0.88068  1.0000
  S   S636      1.0  0.72600  0.52381  0.89521  1.0000
  S   S637      1.0  0.74264  0.54963  0.85921  1.0000
  Fe  Fe321     1.0  0.69846  0.56103  0.90097  1.0000
  S   S638      1.0  0.69649  0.53964  0.91721  1.0000
  S   S639      1.0  0.68205  0.58241  0.90431  1.0000
  Fe  Fe322     1.0  0.72130  0.53563  0.91369  1.0000
  S   S640      1.0  0.73261  0.52633  0.93286  1.0000
  Fe  Fe323     1.0  0.70117  0.53026  0.89704  1.0000
  S   S641      1.0  0.68689  0.51668  0.89420  1.0000
  S   S642      1.0  0.72314  0.55783  0.89899  1.0000
  S   S643      1.0  0.70143  0.55196  0.88096  1.0000
  C   C2304     1.0  0.99139  0.54692  0.75680  1.0000
  H   H2775     1.0  0.97616  0.41897  0.77488  1.0000
  S   S644      1.0  0.91705  0.41534  0.76721  1.0000
  C   C2305     1.0  0.57031  0.41978  0.96394  1.0000
  Fe  Fe324     1.0  0.64875  0.41064  0.94912  1.0000
  S   S645      1.0  0.64931  0.38665  0.95976  1.0000
  S   S646      1.0  0.66420  0.41983  0.92869  1.0000
  Fe  Fe325     1.0  0.62497  0.42211  0.97373  1.0000
  H   H2776     1.0  0.75050  0.37190  0.97391  1.0000
  C   C2306     1.0  0.80964  0.46323  0.97176  1.0000
  H   H2777     1.0  0.61889  0.62083  0.93047  1.0000
  C   C2307     1.0  0.60701  0.62517  0.93408  1.0000
  Fe  Fe326     1.0  0.62417  0.39394  0.96534  1.0000
  S   S647      1.0  0.60588  0.38193  0.96786  1.0000
  S   S648      1.0  0.64989  0.41717  0.96935  1.0000
  S   S649      1.0  0.62373  0.41744  0.95254  1.0000
  C   C2308     1.0  0.64623  0.59880  0.97140  1.0000
  C   C2309     1.0  0.63059  0.60280  0.97474  1.0000
  H   H2778     1.0  0.79513  0.47982  0.87584  1.0000
  C   C2310     1.0  0.79712  0.54253  0.98440  1.0000
  S   S650      1.0  0.52440  0.63607  0.96303  1.0000
  C   C2311     1.0  0.89181  0.52255  0.74105  1.0000
  N   N157      1.0  0.97655  0.43777  0.78291  1.0000
  H   H2779     1.0  0.73168  0.37291  0.97259  1.0000
  C   C2312     1.0  0.97845  0.49200  0.78340  1.0000
  S   S651      1.0  0.59901  0.34934  0.92138  1.0000
  C   C2313     1.0  0.70973  0.40211  0.89794  1.0000
  H   H2780     1.0  0.66391  0.53215  0.96313  1.0000
  Fe  Fe327     1.0  0.77074  0.42761  0.89907  1.0000
  S   S652      1.0  0.76195  0.45211  0.89243  1.0000
  S   S653      1.0  0.79440  0.41709  0.88963  1.0000
  Fe  Fe328     1.0  0.74244  0.42316  0.92230  1.0000
  S   S654      1.0  0.73181  0.44736  0.91807  1.0000
  S   S655      1.0  0.72932  0.40791  0.93953  1.0000
  Fe  Fe329     1.0  0.74047  0.44602  0.89417  1.0000
  S   S656      1.0  0.72579  0.45633  0.87771  1.0000
  Fe  Fe330     1.0  0.75446  0.45065  0.91690  1.0000
  S   S657      1.0  0.75898  0.46488  0.92937  1.0000
  S   S658      1.0  0.74985  0.42150  0.89843  1.0000
  S   S659      1.0  0.76437  0.42650  0.92352  1.0000
  H   H2781     1.0  0.65041  0.58066  0.94391  1.0000
  H   H2782     1.0  0.74119  0.38707  0.96179  1.0000
  C   C2314     1.0  0.74352  0.46627  0.94406  1.0000
  C   C2315     1.0  0.74541  0.46131  0.95869  1.0000
  H   H2783     1.0  0.80349  0.46180  0.85578  1.0000
  C   C2316     1.0  0.71850  0.46595  0.96742  1.0000
  C   C2317     1.0  0.71665  0.47114  0.95281  1.0000
  C   C2318     1.0  0.72916  0.47125  0.94111  1.0000
  H   H2784     1.0  0.75650  0.45747  0.96098  1.0000
  H   H2785     1.0  0.86913  0.42981  0.84672  1.0000
  H   H2786     1.0  0.70556  0.47471  0.95053  1.0000
  H   H2787     1.0  0.72770  0.47505  0.92979  1.0000
  H   H2788     1.0  0.98609  0.41513  0.74888  1.0000
  H   H2789     1.0  0.62265  0.55821  0.98881  1.0000
  H   H2790     1.0  0.90644  0.51933  0.75590  1.0000
  C   C2319     1.0  0.50524  0.32991  0.95045  1.0000
  H   H2791     1.0  0.59905  0.47146  0.98807  1.0000
  H   H2792     1.0  0.94084  0.42793  0.74739  1.0000
  H   H2793     1.0  0.70702  0.41470  0.86185  1.0000
  H   H2794     1.0  0.78233  0.48693  0.95119  1.0000
  H   H2795     1.0  0.78009  0.47975  0.90140  1.0000
  H   H2796     1.0  0.73347  0.51527  0.84794  1.0000
  C   C2320     1.0  0.76366  0.56969  0.87264  1.0000
  H   H2797     1.0  0.50608  0.33520  0.90873  1.0000
  H   H2798     1.0  0.73039  0.49868  0.97996  1.0000
  H   H2799     1.0  0.75275  0.48904  0.90559  1.0000
  H   H2800     1.0  0.67058  0.56425  0.96930  1.0000
  C   C2321     1.0  0.60405  0.37324  0.95461  1.0000
  C   C2322     1.0  0.61465  0.37235  0.94138  1.0000
  C   C2323     1.0  0.61284  0.36516  0.93121  1.0000
  C   C2324     1.0  0.60048  0.35878  0.93419  1.0000
  C   C2325     1.0  0.58974  0.35987  0.94732  1.0000
  C   C2326     1.0  0.59155  0.36706  0.95749  1.0000
  H   H2801     1.0  0.62428  0.37711  0.93902  1.0000
  H   H2802     1.0  0.62115  0.36440  0.92103  1.0000
  H   H2803     1.0  0.58007  0.35519  0.94961  1.0000
  H   H2804     1.0  0.58321  0.36788  0.96763  1.0000
  C   C2327     1.0  0.68168  0.41751  0.93276  1.0000
  C   C2328     1.0  0.68591  0.40701  0.94507  1.0000
  C   C2329     1.0  0.70044  0.40437  0.94740  1.0000
  C   C2330     1.0  0.71077  0.41213  0.93735  1.0000
  C   C2331     1.0  0.70632  0.42296  0.92535  1.0000
  C   C2332     1.0  0.69173  0.42581  0.92322  1.0000
  H   H2805     1.0  0.67823  0.40048  0.95249  1.0000
  H   H2806     1.0  0.70380  0.39595  0.95668  1.0000
  H   H2807     1.0  0.71423  0.42884  0.91744  1.0000
  H   H2808     1.0  0.68832  0.43425  0.91399  1.0000
  C   C2333     1.0  0.66573  0.46534  0.98549  1.0000
  C   C2334     1.0  0.73000  0.53986  0.94298  1.0000
  C   C2335     1.0  0.72184  0.55428  0.93856  1.0000
  C   C2336     1.0  0.72118  0.56547  0.94569  1.0000
  C   C2337     1.0  0.72816  0.56210  0.95763  1.0000
  C   C2338     1.0  0.73580  0.54755  0.96245  1.0000
  C   C2339     1.0  0.73695  0.53651  0.95496  1.0000
  H   H2809     1.0  0.71613  0.55688  0.92959  1.0000
  H   H2810     1.0  0.71498  0.57663  0.94219  1.0000
  S   S660      1.0  0.61054  0.44220  0.98242  1.0000
  H   H2811     1.0  0.74332  0.52542  0.95837  1.0000
  C   C2340     1.0  0.69769  0.49996  0.88956  1.0000
  C   C2341     1.0  0.69324  0.49350  0.88052  1.0000
  C   C2342     1.0  0.70196  0.48013  0.87670  1.0000
  C   C2343     1.0  0.71489  0.47307  0.88225  1.0000
  C   C2344     1.0  0.71921  0.47947  0.89142  1.0000
  C   C2345     1.0  0.71067  0.49295  0.89500  1.0000
  H   H2812     1.0  0.68316  0.49891  0.87633  1.0000
  H   H2813     1.0  0.69860  0.47518  0.86960  1.0000
  H   H2814     1.0  0.72927  0.47412  0.89563  1.0000
  H   H2815     1.0  0.71392  0.49770  0.90231  1.0000
  C   C2346     1.0  0.61291  0.48803  0.95273  1.0000
  C   C2347     1.0  0.61959  0.47525  0.94686  1.0000
  C   C2348     1.0  0.61902  0.46109  0.95589  1.0000
  C   C2349     1.0  0.61167  0.45969  0.97080  1.0000
  C   C2350     1.0  0.54184  0.58004  0.98250  1.0000
  C   C2351     1.0  0.60549  0.48658  0.96760  1.0000
  H   H2816     1.0  0.62527  0.47628  0.93534  1.0000
  H   H2817     1.0  0.62420  0.45129  0.95129  1.0000
  H   H2818     1.0  0.69047  0.45479  0.96430  1.0000
  H   H2819     1.0  0.60007  0.49633  0.97217  1.0000
  C   C2352     1.0  0.63340  0.57849  0.92158  1.0000
  C   C2353     1.0  0.63683  0.59230  0.91469  1.0000
  C   C2354     1.0  0.65180  0.59345  0.90946  1.0000
  C   C2355     1.0  0.66336  0.58072  0.91067  1.0000
  C   C2356     1.0  0.65987  0.56692  0.91741  1.0000
  C   C2357     1.0  0.64494  0.56583  0.92305  1.0000
  H   H2820     1.0  0.62793  0.60212  0.91339  1.0000
  H   H2821     1.0  0.65442  0.60417  0.90426  1.0000
  H   H2822     1.0  0.66860  0.55705  0.91833  1.0000
  H   H2823     1.0  0.64243  0.55514  0.92817  1.0000
  H   H2824     1.0  0.88199  0.46332  0.84012  1.0000
  H   H2825     1.0  0.74262  0.48842  0.84419  1.0000
  H   H2826     1.0  0.67480  0.58556  0.97740  1.0000
  H   H2827     1.0  0.75907  0.47691  0.85070  1.0000
  H   H2828     1.0  0.97294  0.45990  0.76967  1.0000
  C   C2358     1.0  0.53044  0.58941  0.96106  1.0000
  C   C2359     1.0  0.54038  0.57802  0.95445  1.0000
  C   C2360     1.0  0.55125  0.56783  0.96172  1.0000
  C   C2361     1.0  0.67629  0.53002  0.95951  1.0000
  H   H2829     1.0  0.65921  0.46136  0.94553  1.0000
  C   C2362     1.0  0.58262  0.43932  0.96218  1.0000
  H   H2830     1.0  0.53968  0.57707  0.94369  1.0000
  H   H2831     1.0  0.55881  0.55901  0.95662  1.0000
  C   C2363     1.0  0.60167  0.64021  0.93420  1.0000
  Fe  Fe331     1.0  0.64883  0.39380  0.98040  1.0000
  C   C2364     1.0  0.80825  0.50391  0.94592  1.0000
  C   C2365     1.0  0.79904  0.50629  0.95959  1.0000
  C   C2366     1.0  0.80516  0.50288  0.97224  1.0000
  C   C2367     1.0  0.82060  0.49744  0.97110  1.0000
  C   C2368     1.0  0.82978  0.49541  0.95735  1.0000
  C   C2369     1.0  0.82364  0.49865  0.94483  1.0000
  H   H2832     1.0  0.78717  0.51080  0.96040  1.0000
  H   H2833     1.0  0.96682  0.48483  0.74612  1.0000
  H   H2834     1.0  0.84174  0.49132  0.95638  1.0000
  H   H2835     1.0  0.83092  0.49724  0.93432  1.0000
  C   C2370     1.0  0.79051  0.52237  0.85781  1.0000
  C   C2371     1.0  0.78610  0.53158  0.84500  1.0000
  C   C2372     1.0  0.77142  0.53997  0.84567  1.0000
  C   C2373     1.0  0.76094  0.53899  0.85909  1.0000
  C   C2374     1.0  0.76523  0.52960  0.87194  1.0000
  C   C2375     1.0  0.78009  0.52136  0.87132  1.0000
  H   H2836     1.0  0.79411  0.53241  0.83454  1.0000
  H   H2837     1.0  0.76816  0.54722  0.83572  1.0000
  H   H2838     1.0  0.75717  0.52882  0.88234  1.0000
  H   H2839     1.0  0.78344  0.51420  0.88124  1.0000
  C   C2376     1.0  0.82733  0.44087  0.89495  1.0000
  C   C2377     1.0  0.83190  0.42591  0.89404  1.0000
  C   C2378     1.0  0.82180  0.41865  0.89227  1.0000
  C   C2379     1.0  0.80700  0.42621  0.89186  1.0000
  C   C2380     1.0  0.80247  0.44112  0.89292  1.0000
  C   C2381     1.0  0.81266  0.44849  0.89420  1.0000
  H   H2840     1.0  0.84323  0.41992  0.89470  1.0000
  H   H2841     1.0  0.82538  0.40711  0.89146  1.0000
  H   H2842     1.0  0.79122  0.44714  0.89241  1.0000
  H   H2843     1.0  0.80912  0.46002  0.89468  1.0000
  C   C2382     1.0  0.90009  0.48236  0.84917  1.0000
  C   C2383     1.0  0.90083  0.49701  0.84778  1.0000
  C   C2384     1.0  0.89089  0.50549  0.85773  1.0000
  C   C2385     1.0  0.87998  0.49942  0.86884  1.0000
  C   C2386     1.0  0.87971  0.48456  0.87064  1.0000
  C   C2387     1.0  0.88996  0.47598  0.86099  1.0000
  H   H2844     1.0  0.90904  0.50183  0.83909  1.0000
  H   H2845     1.0  0.89144  0.51683  0.85657  1.0000
  H   H2846     1.0  0.87169  0.47965  0.87959  1.0000
  H   H2847     1.0  0.88986  0.46446  0.86253  1.0000
  C   C2388     1.0  0.93541  0.45476  0.76617  1.0000
  C   C2389     1.0  0.92395  0.45066  0.77801  1.0000
  C   C2390     1.0  0.91840  0.43832  0.77864  1.0000
  C   C2391     1.0  0.92434  0.43017  0.76743  1.0000
  C   C2392     1.0  0.93599  0.43421  0.75591  1.0000
  C   C2393     1.0  0.94145  0.44646  0.75522  1.0000
  H   H2848     1.0  0.91941  0.45691  0.78667  1.0000
  H   H2849     1.0  0.90942  0.43521  0.78765  1.0000
  C   C2394     1.0  0.76297  0.41527  0.98364  1.0000
  Fe  Fe332     1.0  0.52259  0.65348  0.94225  1.0000
  H   H2850     1.0  0.68297  0.42230  0.89747  1.0000
  H   H2851     1.0  0.75437  0.57775  0.86854  1.0000
  H   H2852     1.0  0.74015  0.49704  0.88515  1.0000
  H   H2853     1.0  0.74021  0.51953  0.86164  1.0000
  H   H2854     1.0  0.72931  0.50562  0.86643  1.0000
  H   H2855     1.0  0.78311  0.48849  0.85480  1.0000
  C   C2395     1.0  0.68320  0.45525  0.95681  1.0000
  H   H2856     1.0  0.64911  0.44905  0.95998  1.0000
  C   C2396     1.0  0.71876  0.39759  0.98318  1.0000
  C   C2397     1.0  0.98495  0.44161  0.79172  1.0000
  S   S661      1.0  0.57846  0.32639  0.90851  1.0000
  C   C2398     1.0  0.75632  0.41745  0.97172  1.0000
  C   C2399     1.0  0.78798  0.55185  0.96162  1.0000
  H   H2857     1.0  0.62486  0.60880  0.98353  1.0000
  C   C2400     1.0  0.80142  0.54416  0.95410  1.0000
  C   C2401     1.0  0.81266  0.53579  0.96165  1.0000
  N   N158      1.0  0.57533  0.42753  0.97246  1.0000
  H   H2858     1.0  0.58620  0.44567  0.96824  1.0000
  C   C2402     1.0  0.74706  0.40829  0.97213  1.0000
  H   H2859     1.0  0.52833  0.33151  0.94339  1.0000
  S   S662      1.0  0.53515  0.33578  0.91154  1.0000
  H   H2860     1.0  0.53938  0.41039  0.96035  1.0000
  C   C2403     1.0  0.58641  0.64582  0.93880  1.0000
  C   C2404     1.0  0.66042  0.45112  0.95437  1.0000
  H   H2861     1.0  0.57494  0.44735  0.95529  1.0000
  H   H2862     1.0  0.71020  0.39121  0.98446  1.0000
  H   H2863     1.0  0.77973  0.55805  0.95512  1.0000
  H   H2864     1.0  0.69061  0.58693  0.96242  1.0000
  H   H2865     1.0  0.99447  0.47215  0.77871  1.0000
  H   H2866     1.0  0.62982  0.49326  0.97581  1.0000
  N   N159      1.0  0.63451  0.53710  0.90169  1.0000
  C   C2405     1.0  0.62002  0.54287  0.91122  1.0000
  C   C2406     1.0  0.63144  0.52871  0.89238  1.0000
  C   C2407     1.0  0.64423  0.52669  0.91159  1.0000
  C   C2408     1.0  0.64221  0.54887  0.89214  1.0000
  C   C2409     1.0  0.63616  0.56422  0.89202  1.0000
  C   C2410     1.0  0.65642  0.54506  0.88279  1.0000
  C   C2411     1.0  0.64428  0.57489  0.88364  1.0000
  C   C2412     1.0  0.66442  0.55581  0.87444  1.0000
  C   C2413     1.0  0.65845  0.57068  0.87503  1.0000
  H   H2867     1.0  0.61187  0.55032  0.90453  1.0000
  H   H2868     1.0  0.61463  0.53376  0.91846  1.0000
  H   H2869     1.0  0.62157  0.54909  0.91872  1.0000
  H   H2870     1.0  0.62529  0.52002  0.89927  1.0000
  H   H2871     1.0  0.64188  0.52289  0.88583  1.0000
  H   H2872     1.0  0.62456  0.53623  0.88444  1.0000
  H   H2873     1.0  0.64779  0.53272  0.91796  1.0000
  H   H2874     1.0  0.63844  0.51826  0.91967  1.0000
  H   H2875     1.0  0.65461  0.52041  0.90539  1.0000
  H   H2876     1.0  0.62537  0.56829  0.89860  1.0000
  H   H2877     1.0  0.66164  0.53366  0.88212  1.0000
  H   H2878     1.0  0.63969  0.58647  0.88414  1.0000
  H   H2879     1.0  0.67545  0.55252  0.86773  1.0000
  H   H2880     1.0  0.66487  0.57895  0.86889  1.0000
  C   C2414     1.0  0.77103  0.48924  0.95767  1.0000
  H   H2881     1.0  0.84562  0.43213  0.85892  1.0000
  H   H2882     1.0  0.72382  0.37333  0.93173  1.0000
  C   C2415     1.0  0.70499  0.38425  0.92152  1.0000
  C   C2416     1.0  0.51846  0.33151  0.93989  1.0000
  H   H2883     1.0  0.68798  0.39695  0.91011  1.0000
  H   H2884     1.0  0.73508  0.49747  0.95401  1.0000
  S   S663      1.0  0.69524  0.55682  0.98750  1.0000
  C   C2417     1.0  0.69985  0.39464  0.90960  1.0000
  C   C2418     1.0  0.79853  0.45914  0.98383  1.0000
  H   H2885     1.0  0.69715  0.37911  0.93055  1.0000
  H   H2886     1.0  0.74202  0.41054  0.96269  1.0000
  H   H2887     1.0  0.74171  0.48052  0.86353  1.0000
  H   H2888     1.0  0.85945  0.53263  0.77386  1.0000
  H   H2889     1.0  0.74168  0.38538  0.91148  1.0000
  Fe  Fe333     1.0  0.71339  0.56577  0.98980  1.0000
  S   S664      1.0  0.95815  0.51715  0.79041  1.0000
  C   C2419     1.0  0.86850  0.52971  0.76478  1.0000
  N   N160      1.0  0.77248  0.54492  0.90926  1.0000
  C   C2420     1.0  0.75927  0.55252  0.91899  1.0000
  C   C2421     1.0  0.77100  0.52953  0.91116  1.0000
  C   C2422     1.0  0.78590  0.54442  0.91458  1.0000
  C   C2423     1.0  0.77390  0.55229  0.89339  1.0000
  C   C2424     1.0  0.78702  0.54785  0.88286  1.0000
  C   C2425     1.0  0.76218  0.56343  0.88779  1.0000
  C   C2426     1.0  0.78850  0.55438  0.86778  1.0000
  C   C2427     1.0  0.77681  0.56524  0.86267  1.0000
  H   H2890     1.0  0.74865  0.55189  0.91674  1.0000
  H   H2891     1.0  0.75886  0.54720  0.93090  1.0000
  H   H2892     1.0  0.75935  0.56437  0.91764  1.0000
  H   H2893     1.0  0.76110  0.52937  0.90719  1.0000
  H   H2894     1.0  0.76952  0.52363  0.92302  1.0000
  H   H2895     1.0  0.78104  0.52278  0.90500  1.0000
  H   H2896     1.0  0.78812  0.55568  0.91226  1.0000
  H   H2897     1.0  0.78463  0.53975  0.92671  1.0000
  H   H2898     1.0  0.79613  0.53705  0.90946  1.0000
  H   H2899     1.0  0.79603  0.53892  0.88612  1.0000
  H   H2900     1.0  0.75162  0.56733  0.89480  1.0000
  C   C2428     1.0  0.97753  0.44822  0.76833  1.0000
  N   N161      1.0  0.68327  0.51400  0.96056  1.0000
  C   C2429     1.0  0.69977  0.51230  0.95720  1.0000
  C   C2430     1.0  0.53125  0.59050  0.97504  1.0000
  C   C2431     1.0  0.67894  0.50606  0.97606  1.0000
  C   C2432     1.0  0.67798  0.50810  0.95065  1.0000
  C   C2433     1.0  0.68779  0.50162  0.93887  1.0000
  C   C2434     1.0  0.66253  0.50853  0.95281  1.0000
  C   C2435     1.0  0.68241  0.49560  0.93017  1.0000
  C   C2436     1.0  0.65726  0.50269  0.94387  1.0000
  C   C2437     1.0  0.66720  0.49620  0.93259  1.0000
  H   H2901     1.0  0.70390  0.51838  0.94584  1.0000
  H   H2902     1.0  0.70336  0.51681  0.96491  1.0000
  H   H2903     1.0  0.70573  0.50043  0.95842  1.0000
  H   H2904     1.0  0.55090  0.60977  0.94210  1.0000
  H   H2905     1.0  0.98697  0.52190  0.78883  1.0000
  N   N162      1.0  0.57063  0.61136  0.94809  1.0000
  C   C2438     1.0  0.67103  0.43746  0.97542  1.0000
  H   H2906     1.0  0.68316  0.50993  0.98373  1.0000
  C   C2439     1.0  0.86533  0.52971  0.75136  1.0000
  H   H2907     1.0  0.69969  0.50099  0.93616  1.0000
  H   H2908     1.0  0.65440  0.51332  0.96152  1.0000
  H   H2909     1.0  0.69008  0.49054  0.92137  1.0000
  H   H2910     1.0  0.64540  0.50313  0.94579  1.0000
  H   H2911     1.0  0.66312  0.49169  0.92564  1.0000
  N   N163      1.0  0.86051  0.52388  0.82933  1.0000
  C   C2440     1.0  0.85315  0.53220  0.81680  1.0000
  C   C2441     1.0  0.87078  0.51006  0.82540  1.0000
  C   C2442     1.0  0.84871  0.51943  0.84226  1.0000
  C   C2443     1.0  0.86906  0.53315  0.83221  1.0000
  C   C2444     1.0  0.88106  0.53788  0.82112  1.0000
  C   C2445     1.0  0.86578  0.53784  0.84582  1.0000
  C   C2446     1.0  0.88950  0.54638  0.82363  1.0000
  C   C2447     1.0  0.87428  0.54636  0.84822  1.0000
  C   C2448     1.0  0.88615  0.55057  0.83718  1.0000
  H   H2912     1.0  0.86140  0.53477  0.80629  1.0000
  H   H2913     1.0  0.84622  0.52580  0.81455  1.0000
  H   H2914     1.0  0.84577  0.54294  0.81909  1.0000
  H   H2915     1.0  0.86472  0.50278  0.82326  1.0000
  H   H2916     1.0  0.87673  0.50364  0.83444  1.0000
  H   H2917     1.0  0.87946  0.51226  0.81518  1.0000
  H   H2918     1.0  0.85360  0.51303  0.85205  1.0000
  H   H2919     1.0  0.84006  0.52922  0.84542  1.0000
  H   H2920     1.0  0.84261  0.51227  0.83991  1.0000
  H   H2921     1.0  0.88410  0.53495  0.81041  1.0000
  H   H2922     1.0  0.85696  0.53476  0.85501  1.0000
  H   H2923     1.0  0.89876  0.54962  0.81502  1.0000
  H   H2924     1.0  0.87184  0.54938  0.85887  1.0000
  H   H2925     1.0  0.89283  0.55700  0.83916  1.0000
  N   N164      1.0  0.75248  0.49890  0.85518  1.0000
  C   C2449     1.0  0.76191  0.50528  0.84109  1.0000
  C   C2450     1.0  0.74882  0.48565  0.85323  1.0000
  C   C2451     1.0  0.73833  0.51028  0.85797  1.0000
  C   C2452     1.0  0.76026  0.49432  0.86768  1.0000
  C   C2453     1.0  0.77603  0.48889  0.86562  1.0000
  C   C2454     1.0  0.75214  0.49388  0.88250  1.0000
  C   C2455     1.0  0.78309  0.48379  0.87766  1.0000
  C   C2456     1.0  0.75929  0.48907  0.89440  1.0000
  C   C2457     1.0  0.77472  0.48389  0.89202  1.0000
  H   H2926     1.0  0.75552  0.51038  0.83213  1.0000
  H   H2927     1.0  0.76644  0.51410  0.84267  1.0000
  H   H2928     1.0  0.77140  0.49679  0.83659  1.0000
  H   H2929     1.0  0.66664  0.50782  0.98011  1.0000
  H   H2930     1.0  0.88913  0.45406  0.75111  1.0000
  C   C2458     1.0  0.76864  0.48953  0.97263  1.0000
  N   N165      1.0  0.66848  0.45217  0.96518  1.0000
  C   C2459     1.0  0.62965  0.59065  0.95620  1.0000
  C   C2460     1.0  0.99289  0.48297  0.78096  1.0000
  C   C2461     1.0  0.96047  0.43868  0.79001  1.0000
  H   H2931     1.0  0.87540  0.47814  0.76036  1.0000
  H   H2932     1.0  0.55674  0.62266  0.96549  1.0000
  C   C2462     1.0  0.57755  0.59567  0.94696  1.0000
  H   H2933     1.0  0.56434  0.61754  0.92695  1.0000
  S   S665      1.0  0.72581  0.57553  0.96773  1.0000
  C   C2463     1.0  0.65407  0.59066  0.96015  1.0000
  H   H2934     1.0  0.84216  0.47977  0.84460  1.0000
  H   H2935     1.0  0.58619  0.33691  0.97455  1.0000
  H   H2936     1.0  0.50491  0.32888  0.96202  1.0000
  C   C2464     1.0  0.55911  0.61697  0.93891  1.0000
  C   C2465     1.0  0.89498  0.52218  0.75467  1.0000
  C   C2466     1.0  0.58627  0.41675  0.98082  1.0000
  H   H2937     1.0  0.68027  0.53481  0.96669  1.0000
  H   H2938     1.0  0.59258  0.41246  0.95077  1.0000
  H   H2939     1.0  0.60198  0.60423  0.93791  1.0000
  C   C2467     1.0  0.72000  0.38097  0.92221  1.0000
  H   H2940     1.0  0.57145  0.60742  0.97105  1.0000
  S   S666      1.0  0.51681  0.60184  0.95182  1.0000
  H   H2941     1.0  0.56907  0.58876  0.95063  1.0000
  C   C2468     1.0  0.98862  0.51105  0.78658  1.0000
  H   H2942     1.0  0.98923  0.44748  0.76195  1.0000
  H   H2943     1.0  0.54635  0.42399  0.97436  1.0000
  H   H2944     1.0  0.79528  0.42871  0.94980  1.0000
  H   H2945     1.0  0.72308  0.40380  0.86911  1.0000
  H   H2946     1.0  0.58312  0.59473  0.93533  1.0000
  H   H2947     1.0  0.58587  0.59041  0.95411  1.0000
  C   C2469     1.0  0.78810  0.45243  0.98208  1.0000
  C   C2470     1.0  0.56161  0.40399  0.94777  1.0000
  H   H2948     1.0  0.66646  0.44183  0.94856  1.0000
  H   H2949     1.0  0.77852  0.48722  0.97703  1.0000
  C   C2471     1.0  0.57646  0.63641  0.94333  1.0000
  C   C2472     1.0  0.56316  0.61143  0.96380  1.0000
  C   C2473     1.0  0.82224  0.47216  0.84973  1.0000
  C   C2474     1.0  0.55515  0.41889  0.96630  1.0000
  H   H2950     1.0  0.98376  0.41434  0.79122  1.0000
  C   C2475     1.0  0.82415  0.44577  0.85720  1.0000
  C   C2476     1.0  0.97623  0.50592  0.78660  1.0000
  H   H2951     1.0  0.75695  0.56172  0.97054  1.0000
  C   C2477     1.0  0.73003  0.38780  0.91080  1.0000
  H   H2952     1.0  0.79851  0.55052  0.85994  1.0000
  C   C2478     1.0  0.59711  0.61568  0.93846  1.0000
  H   H2953     1.0  0.67246  0.60559  0.93873  1.0000
  C   C2479     1.0  0.73948  0.37953  0.97283  1.0000
  H   H2954     1.0  0.79424  0.43677  0.93078  1.0000
  N   N166      1.0  0.80189  0.44967  0.94138  1.0000
  C   C2480     1.0  0.64706  0.47428  0.97046  1.0000
  C   C2481     1.0  0.79256  0.43940  0.94184  1.0000
  H   H2955     1.0  0.95140  0.53602  0.76028  1.0000
  H   H2956     1.0  0.75803  0.42648  0.96225  1.0000
  H   H2957     1.0  0.91960  0.49325  0.75021  1.0000
  H   H2958     1.0  0.78040  0.44438  0.94482  1.0000
  H   H2959     1.0  0.98933  0.48780  0.75147  1.0000
  H   H2960     1.0  0.55245  0.62828  0.94001  1.0000
  C   C2482     1.0  0.64571  0.48667  0.98982  1.0000
  H   H2961     1.0  0.81873  0.43848  0.92533  1.0000
  H   H2962     1.0  0.70670  0.39647  0.87333  1.0000
  H   H2963     1.0  0.60934  0.64757  0.93066  1.0000
  Fe  Fe334     1.0  0.61964  0.53609  0.97319  1.0000
  C   C2483     1.0  0.75396  0.49295  0.98134  1.0000
  C   C2484     1.0  0.56304  0.43467  0.98336  1.0000
  H   H2964     1.0  0.79804  0.50467  0.98276  1.0000
  H   H2965     1.0  0.62321  0.58728  0.95046  1.0000
  H   H2966     1.0  0.79777  0.46190  0.91999  1.0000
  H   H2967     1.0  0.82234  0.43328  0.94363  1.0000
  C   C2485     1.0  0.73286  0.46108  0.97040  1.0000
  H   H2968     1.0  0.68950  0.44699  0.94980  1.0000
  H   H2969     1.0  0.73433  0.45712  0.98170  1.0000
  C   C2486     1.0  0.55095  0.41108  0.95829  1.0000
  C   C2487     1.0  0.60485  0.47247  0.97658  1.0000
  H   H2970     1.0  0.99436  0.42116  0.77320  1.0000
  C   C2488     1.0  0.88330  0.52584  0.76652  1.0000
  C   C2489     1.0  0.72506  0.39804  0.89873  1.0000
  H   H2971     1.0  0.55839  0.39773  0.94175  1.0000
  H   H2972     1.0  0.81911  0.52802  0.98269  1.0000
  C   C2490     1.0  0.81549  0.46010  0.85426  1.0000
  H   H2973     1.0  0.81544  0.48335  0.84771  1.0000
  C   C2491     1.0  0.81766  0.44278  0.93532  1.0000
  H   H2974     1.0  0.71924  0.40509  0.97206  1.0000
  S   S667      1.0  0.82901  0.49297  0.98640  1.0000
  H   H2975     1.0  0.78534  0.46923  0.93526  1.0000
  C   C2492     1.0  0.79714  0.46377  0.93110  1.0000
  C   C2493     1.0  0.67819  0.59063  0.96546  1.0000
  H   H2976     1.0  0.78059  0.44412  0.96789  1.0000
  H   H2977     1.0  0.75007  0.57405  0.98291  1.0000
  H   H2978     1.0  0.96907  0.48815  0.78284  1.0000
  H   H2979     1.0  0.73333  0.40288  0.89011  1.0000
  H   H2980     1.0  0.80312  0.54447  0.94239  1.0000
  H   H2981     1.0  0.86786  0.44367  0.82991  1.0000
  H   H2982     1.0  0.68780  0.56603  0.95604  1.0000
  H   H2983     1.0  0.59646  0.41177  0.97340  1.0000
  H   H2984     1.0  0.77772  0.56984  0.85091  1.0000
  H   H2985     1.0  0.68307  0.40859  0.88777  1.0000
  Fe  Fe335     1.0  0.51108  0.62535  0.95478  1.0000
  H   H2986     1.0  0.68839  0.59022  0.93710  1.0000
  H   H2987     1.0  0.64198  0.47406  0.96179  1.0000
  H   H2988     1.0  0.95464  0.43493  0.78357  1.0000
  H   H2989     1.0  0.81908  0.46418  0.94886  1.0000
  H   H2990     1.0  0.95430  0.45028  0.79058  1.0000
  H   H2991     1.0  0.68191  0.46647  0.94947  1.0000
  C   C2494     1.0  0.83773  0.46993  0.84797  1.0000
  C   C2495     1.0  0.83958  0.44342  0.85576  1.0000
  H   H2992     1.0  0.82511  0.45074  0.93162  1.0000
  H   H2993     1.0  0.80413  0.47180  0.92966  1.0000
  C   C2496     1.0  0.80053  0.45289  0.95599  1.0000
  S   S668      1.0  0.56515  0.55590  0.98531  1.0000
  H   H2994     1.0  0.89426  0.49098  0.75330  1.0000
  H   H2995     1.0  0.76079  0.49203  0.93935  1.0000
  C   C2497     1.0  0.61273  0.32563  0.95970  1.0000
  C   C2498     1.0  0.68815  0.41790  0.88718  1.0000
  H   H2996     1.0  0.97110  0.44606  0.76131  1.0000
  N   N167      1.0  0.67062  0.58625  0.95620  1.0000
  H   H2997     1.0  0.86545  0.47470  0.84847  1.0000
  C   C2499     1.0  0.55194  0.56877  0.97580  1.0000
  H   H2998     1.0  0.61143  0.33730  0.96049  1.0000
  H   H2999     1.0  0.59290  0.43479  0.95452  1.0000
  Fe  Fe336     1.0  0.92430  0.41229  0.74369  1.0000
  C   C2500     1.0  0.78903  0.44932  0.96841  1.0000
  H   H3000     1.0  0.58483  0.39900  0.93710  1.0000
  N   N168      1.0  0.77129  0.55902  0.98551  1.0000
  H   H3001     1.0  0.82295  0.52962  0.95586  1.0000
  C   C2501     1.0  0.98303  0.42241  0.78052  1.0000
  N   N169      1.0  0.70470  0.41323  0.88516  1.0000
  H   H3002     1.0  0.70767  0.43115  0.89280  1.0000
  S   S669      1.0  0.51108  0.64176  0.93316  1.0000
  H   H3003     1.0  0.95030  0.44959  0.74608  1.0000
  C   C2502     1.0  0.67540  0.56989  0.95792  1.0000
  C   C2503     1.0  0.67598  0.59328  0.94056  1.0000
  H   H3004     1.0  0.55504  0.60414  0.96795  1.0000
  S   S670      1.0  0.62381  0.39918  0.98695  1.0000
  C   C2504     1.0  0.84692  0.45541  0.85083  1.0000
  H   H3005     1.0  0.56474  0.64132  0.94685  1.0000
  N   N170      1.0  0.73352  0.38772  0.98503  1.0000
  H   H3006     1.0  0.81764  0.46861  0.97312  1.0000
  H   H3007     1.0  0.70574  0.43593  0.87395  1.0000
  H   H3008     1.0  0.67154  0.58986  0.93275  1.0000
  H   H3009     1.0  0.68358  0.49391  0.97724  1.0000
  C   C2505     1.0  0.95719  0.52944  0.75156  1.0000
  H   H3010     1.0  0.67186  0.56587  0.94988  1.0000
  H   H3011     1.0  0.87253  0.45807  0.74381  1.0000
  H   H3012     1.0  0.87899  0.44448  0.86389  1.0000
  C   C2506     1.0  0.58146  0.62105  0.94321  1.0000
  C   C2507     1.0  0.81052  0.46040  0.95796  1.0000
  C   C2508     1.0  0.97774  0.44863  0.80391  1.0000
  H   H3013     1.0  0.86219  0.43765  0.87087  1.0000
  C   C2509     1.0  0.71046  0.42679  0.88254  1.0000
  H   H3014     1.0  0.68463  0.42684  0.87783  1.0000
  H   H3015     1.0  0.72279  0.42493  0.87858  1.0000
  N   N171      1.0  0.86331  0.45261  0.84939  1.0000
  C   C2510     1.0  0.87125  0.44091  0.84074  1.0000
  H   H3016     1.0  0.86686  0.47063  0.83066  1.0000
  C   C2511     1.0  0.66030  0.46387  0.97370  1.0000
  C   C2512     1.0  0.75895  0.49218  0.95098  1.0000
  H   H3017     1.0  0.96502  0.51943  0.75638  1.0000
  H   H3018     1.0  0.65187  0.60193  0.97804  1.0000
  H   H3019     1.0  0.56732  0.44042  0.98947  1.0000
  H   H3020     1.0  0.94847  0.52534  0.74911  1.0000
  H   H3021     1.0  0.61020  0.60158  0.97003  1.0000
  C   C2513     1.0  0.71063  0.40678  0.87176  1.0000
  C   C2514     1.0  0.81049  0.53492  0.97677  1.0000
  C   C2515     1.0  0.86956  0.46594  0.84181  1.0000
  C   C2516     1.0  0.86673  0.44752  0.86437  1.0000
  H   H3022     1.0  0.88363  0.43950  0.83840  1.0000
  C   C2517     1.0  0.98595  0.45294  0.81143  1.0000
  C   C2518     1.0  0.74190  0.49578  0.97418  1.0000
  S   S671      1.0  0.55903  0.33791  0.93921  1.0000
  H   H3023     1.0  0.54664  0.33002  0.86527  1.0000
  H   H3024     1.0  0.67607  0.42827  0.96931  1.0000
  C   C2519     1.0  0.58081  0.41255  0.95300  1.0000
  C   C2520     1.0  0.98042  0.54106  0.75472  1.0000
  H   H3025     1.0  0.60897  0.32631  0.94944  1.0000
  C   C2521     1.0  0.76055  0.56840  0.97618  1.0000
  H   H3026     1.0  0.67567  0.60288  0.96420  1.0000
  H   H3027     1.0  0.98020  0.45855  0.82050  1.0000
  Fe  Fe337     1.0  0.58714  0.54685  0.97119  1.0000
  H   H3028     1.0  0.67892  0.53634  0.94793  1.0000
  C   C2522     1.0  0.74443  0.49529  0.95927  1.0000
  Fe  Fe338     1.0  0.58297  0.33415  0.92673  1.0000
  C   C2523     1.0  0.64527  0.58679  0.95261  1.0000
  H   H3029     1.0  0.86133  0.48157  0.74993  1.0000
  H   H3030     1.0  0.78047  0.57713  0.98542  1.0000
  C   C2524     1.0  0.57649  0.40477  0.94510  1.0000
  H   H3031     1.0  0.97503  0.53409  0.76432  1.0000
  S   S672      1.0  0.60145  0.52404  0.97744  1.0000
  H   H3032     1.0  0.55288  0.32933  0.88157  1.0000
  C   C2525     1.0  0.62231  0.59868  0.96721  1.0000
  C   C2526     1.0  0.63991  0.48544  0.97848  1.0000
  S   S673      1.0  0.63745  0.52760  0.98648  1.0000
  H   H3033     1.0  0.66034  0.43532  0.98295  1.0000
  H   H3034     1.0  0.76533  0.57726  0.96769  1.0000
  C   C2527     1.0  0.74401  0.39674  0.98460  1.0000
  C   C2528     1.0  0.78546  0.55132  0.97706  1.0000
  H   H3035     1.0  0.52351  0.59918  0.98026  1.0000
  S   S674      1.0  0.70273  0.46530  0.98177  1.0000
  H   H3036     1.0  0.67896  0.43644  0.98244  1.0000
  C   C2529     1.0  0.54493  0.32569  0.87746  1.0000
  C   C2530     1.0  0.51874  0.33355  0.92483  1.0000
  H   H3037     1.0  0.58217  0.65756  0.93878  1.0000
  C   C2531     1.0  0.50588  0.33365  0.92037  1.0000
  H   H3038     1.0  0.59015  0.42202  0.98768  1.0000
  H   H3039     1.0  0.76975  0.42262  0.98361  1.0000
  H   H3040     1.0  0.67563  0.45779  0.98869  1.0000
  Fe  Fe339     1.0  0.50216  0.64959  0.97233  1.0000
  H   H3041     1.0  0.87181  0.49526  0.74673  1.0000
  H   H3042     1.0  0.53359  0.33139  0.88268  1.0000
  H   H3043     1.0  0.85385  0.53261  0.75013  1.0000
  C   C2532     1.0  0.87270  0.48303  0.74922  1.0000
  H   H3044     1.0  0.60835  0.32984  0.98640  1.0000
  H   H3045     1.0  0.99688  0.51672  0.81265  1.0000
  H   H3046     1.0  0.99420  0.54426  0.76758  1.0000
  Fe  Fe340     1.0  0.55505  0.32815  0.92217  1.0000
  H   H3047     1.0  0.58147  0.40735  0.98824  1.0000
  C   C2533     1.0  0.90267  0.48572  0.74508  1.0000
  C   C2534     1.0  0.91725  0.48722  0.74338  1.0000
  C   C2535     1.0  0.88403  0.45997  0.74132  1.0000
  C   C2536     1.0  0.97651  0.54441  0.74070  1.0000
  H   H3048     1.0  0.51887  0.96941  0.19157  1.0000
  C   C2537     1.0  0.57340  0.95250  0.22732  1.0000
  C   C2538     1.0  0.51945  0.80804  0.02060  1.0000
  Fe  Fe341     1.0  0.54124  0.90132  0.19787  1.0000
  S   S675      1.0  0.53107  0.92308  0.18472  1.0000
  S   S676      1.0  0.53848  0.87963  0.19567  1.0000
  H   H3049     1.0  0.55588  0.98830  0.15325  1.0000
  Fe  Fe342     1.0  0.55295  0.92870  0.18246  1.0000
  S   S677      1.0  0.56457  0.93929  0.16018  1.0000
  S   S678      1.0  0.56382  0.90629  0.19407  1.0000
  C   C2539     1.0  0.51606  0.97229  0.18081  1.0000
  C   C2540     1.0  0.54800  0.91549  0.14430  1.0000
  H   H3050     1.0  0.53911  0.98992  0.14728  1.0000
  S   S679      1.0  0.52366  0.72587  0.01842  1.0000
  H   H3051     1.0  0.57450  0.96186  0.21817  1.0000
  H   H3052     1.0  0.62551  0.96200  0.18162  1.0000
  H   H3053     1.0  0.55910  0.88203  0.16562  1.0000
  H   H3054     1.0  0.58145  0.98398  0.11703  1.0000
  H   H3055     1.0  0.59689  0.90965  0.21188  1.0000
  H   H3056     1.0  0.52915  0.95979  0.14863  1.0000
  C   C2541     1.0  0.56136  0.86470  0.13474  1.0000
  C   C2542     1.0  0.55408  0.90466  0.15532  1.0000
  H   H3057     1.0  0.52147  0.85794  0.20184  1.0000
  C   C2543     1.0  0.59339  0.96838  0.16331  1.0000
  C   C2544     1.0  0.57602  0.94964  0.16231  1.0000
  C   C2545     1.0  0.57041  0.95954  0.17190  1.0000
  H   H3058     1.0  0.52430  0.73928  0.05294  1.0000
  H   H3059     1.0  0.55322  0.84762  0.16189  1.0000
  C   C2546     1.0  0.59925  0.95802  0.15423  1.0000
  C   C2547     1.0  0.59050  0.94876  0.15361  1.0000
  H   H3060     1.0  0.55920  0.96035  0.17858  1.0000
  H   H3061     1.0  0.53429  0.95484  0.17360  1.0000
  H   H3062     1.0  0.61039  0.95745  0.14737  1.0000
  H   H3063     1.0  0.59489  0.94106  0.14624  1.0000
  H   H3064     1.0  0.51974  0.95831  0.22545  1.0000
  H   H3065     1.0  0.60803  0.98271  0.20014  1.0000
  H   H3066     1.0  0.63409  0.96982  0.19089  1.0000
  H   H3067     1.0  0.54189  0.81153  0.01364  1.0000
  H   H3068     1.0  0.50251  0.89915  0.16279  1.0000
  H   H3069     1.0  0.57460  0.97677  0.17959  1.0000
  C   C2548     1.0  0.60209  0.92967  0.19712  1.0000
  C   C2549     1.0  0.50630  0.89038  0.17164  1.0000
  H   H3070     1.0  0.59917  0.97219  0.19380  1.0000
  C   C2550     1.0  0.51737  0.89161  0.17817  1.0000
  C   C2551     1.0  0.52294  0.87983  0.18901  1.0000
  Fe  Fe343     1.0  0.52490  0.93059  0.20614  1.0000
  C   C2552     1.0  0.62920  0.96018  0.19215  1.0000
  C   C2553     1.0  0.51175  0.69081  0.99926  1.0000
  H   H3071     1.0  0.52212  0.90128  0.17427  1.0000
  C   C2554     1.0  0.53518  0.86718  0.14620  1.0000
  C   C2555     1.0  0.54147  0.78926  0.01330  1.0000
  H   H3072     1.0  0.57748  0.96938  0.13265  1.0000
  H   H3073     1.0  0.50867  0.98082  0.14120  1.0000
  H   H3074     1.0  0.56494  0.85897  0.16222  1.0000
  H   H3075     1.0  0.60746  0.95019  0.18503  1.0000
  H   H3076     1.0  0.53282  0.97823  0.21239  1.0000
  C   C2556     1.0  0.51712  0.86710  0.19357  1.0000
  C   C2557     1.0  0.54238  0.91140  0.13440  1.0000
  S   S680      1.0  0.56559  0.91174  0.23378  1.0000
  H   H3077     1.0  0.54775  0.92704  0.14341  1.0000
  H   H3078     1.0  0.53627  0.96720  0.09638  1.0000
  C   C2558     1.0  0.55424  0.96741  0.12248  1.0000
  C   C2559     1.0  0.61149  0.94531  0.20735  1.0000
  H   H3079     1.0  0.61274  0.93604  0.23072  1.0000
  H   H3080     1.0  0.63149  0.95018  0.22066  1.0000
  H   H3081     1.0  0.53855  0.89395  0.12736  1.0000
  C   C2560     1.0  0.62209  0.95974  0.21821  1.0000
  N   N172      1.0  0.61670  0.95902  0.20532  1.0000
  C   C2561     1.0  0.52501  0.96370  0.17058  1.0000
  C   C2562     1.0  0.60127  0.91932  0.21049  1.0000
  H   H3082     1.0  0.63828  0.94996  0.19289  1.0000
  C   C2563     1.0  0.54279  0.89648  0.13552  1.0000
  S   S681      1.0  0.50683  0.93398  0.12588  1.0000
  H   H3083     1.0  0.50630  0.98685  0.11124  1.0000
  Fe  Fe344     1.0  0.52556  0.74938  0.00802  1.0000
  H   H3084     1.0  0.53250  0.87227  0.13511  1.0000
  H   H3085     1.0  0.55345  0.78592  0.00953  1.0000
  H   H3086     1.0  0.53772  0.91984  0.12576  1.0000
  C   C2564     1.0  0.54841  0.96185  0.11376  1.0000
  C   C2565     1.0  0.51059  0.97822  0.15236  1.0000
  C   C2566     1.0  0.51152  0.76710  0.06005  1.0000
  C   C2567     1.0  0.52217  0.96651  0.15647  1.0000
  C   C2568     1.0  0.55441  0.88973  0.15666  1.0000
  Fe  Fe345     1.0  0.55457  0.91572  0.21460  1.0000
  H   H3087     1.0  0.55244  0.97244  0.14978  1.0000
  C   C2569     1.0  0.61034  0.93459  0.22091  1.0000
  S   S682      1.0  0.53312  0.90833  0.21966  1.0000
  H   H3088     1.0  0.54540  0.86275  0.17119  1.0000
  H   H3089     1.0  0.50178  0.85594  0.19069  1.0000
  H   H3090     1.0  0.59850  0.92796  0.18803  1.0000
  H   H3091     1.0  0.56871  0.93999  0.21439  1.0000
  C   C2570     1.0  0.54866  0.88516  0.14681  1.0000
  C   C2571     1.0  0.50673  0.96344  0.11751  1.0000
  C   C2572     1.0  0.55269  0.98290  0.12074  1.0000
  S   S683      1.0  0.54072  0.76119  0.01247  1.0000
  C   C2573     1.0  0.60540  0.92177  0.22233  1.0000
  H   H3092     1.0  0.61293  0.95993  0.22833  1.0000
  C   C2574     1.0  0.51053  0.79791  0.02326  1.0000
  S   S684      1.0  0.54558  0.93866  0.20257  1.0000
  C   C2575     1.0  0.53495  0.80369  0.01570  1.0000
  H   H3093     1.0  0.56263  0.85282  0.13472  1.0000
  C   C2576     1.0  0.56974  0.94020  0.22523  1.0000
  H   H3094     1.0  0.55857  0.90788  0.16292  1.0000
  H   H3095     1.0  0.50827  0.98810  0.20363  1.0000
  C   C2577     1.0  0.51380  0.74566  0.04921  1.0000
  C   C2578     1.0  0.53247  0.77925  0.01553  1.0000
  H   H3096     1.0  0.54673  0.98711  0.22519  1.0000
  C   C2579     1.0  0.60717  0.94243  0.19554  1.0000
  C   C2580     1.0  0.54081  0.97152  0.10313  1.0000
  N   N173      1.0  0.54963  0.86935  0.14737  1.0000
  C   C2581     1.0  0.52438  0.79003  0.06109  1.0000
  C   C2582     1.0  0.60428  0.97213  0.20291  1.0000
  C   C2583     1.0  0.55348  0.85929  0.16126  1.0000
  S   S685      1.0  0.60395  0.98066  0.16319  1.0000
  H   H3097     1.0  0.53508  0.85525  0.14813  1.0000
  S   S686      1.0  0.51113  0.82640  0.02225  1.0000
  H   H3098     1.0  0.50505  0.91507  0.21056  1.0000
  H   H3099     1.0  0.62608  0.97008  0.21625  1.0000
  C   C2584     1.0  0.50404  0.97764  0.10844  1.0000
  C   C2585     1.0  0.54086  0.97837  0.23112  1.0000
  C   C2586     1.0  0.57905  0.96900  0.17231  1.0000
  H   H3100     1.0  0.51008  0.77600  0.02266  1.0000
  H   H3101     1.0  0.50801  0.73729  0.04868  1.0000
  H   H3102     1.0  0.54976  0.94999  0.11525  1.0000
  H   H3103     1.0  0.59515  0.97242  0.21294  1.0000
  H   H3104     1.0  0.52581  0.87201  0.15450  1.0000
  C   C2587     1.0  0.51703  0.78364  0.02054  1.0000
  S   S687      1.0  0.50282  0.94449  0.21450  1.0000
  H   H3105     1.0  0.55993  0.95944  0.13068  1.0000
  C   C2588     1.0  0.50392  0.98412  0.17708  1.0000
  H   H3106     1.0  0.55874  0.87131  0.12391  1.0000
  C   C2589     1.0  0.50061  0.74626  0.07420  1.0000
  H   H3107     1.0  0.53345  0.76016  0.04573  1.0000
  C   C2590     1.0  0.53301  0.97332  0.22393  1.0000
  H   H3108     1.0  0.60410  0.91397  0.23289  1.0000
  H   H3109     1.0  0.57240  0.86622  0.13513  1.0000
  C   C2591     1.0  0.53871  0.98678  0.10140  1.0000
  H   H3110     1.0  0.51087  0.74087  0.07875  1.0000
  C   C2592     1.0  0.50596  0.86598  0.18728  1.0000
  C   C2593     1.0  0.57526  0.98159  0.12873  1.0000
  H   H3111     1.0  0.51108  0.96173  0.12729  1.0000
  H   H3112     1.0  0.52909  0.79908  0.06106  1.0000
  C   C2594     1.0  0.56860  0.92784  0.23680  1.0000
  C   C2595     1.0  0.52645  0.76789  0.05252  1.0000
  C   C2596     1.0  0.53265  0.77930  0.05296  1.0000
  C   C2597     1.0  0.52570  0.96183  0.23148  1.0000
  C   C2598     1.0  0.55128  0.98460  0.14575  1.0000
  S   S688      1.0  0.50419  0.89381  0.12674  1.0000
  H   H3113     1.0  0.51680  0.75194  0.03767  1.0000
  H   H3114     1.0  0.54382  0.78005  0.04659  1.0000
  H   H3115     1.0  0.50279  0.93994  0.15727  1.0000
  H   H3116     1.0  0.50867  0.69815  0.00691  1.0000
  H   H3117     1.0  0.52321  0.93344  0.23479  1.0000
  C   C2599     1.0  0.50995  0.78925  0.06906  1.0000
  C   C2600     1.0  0.50369  0.95148  0.11404  1.0000
  N   N174      1.0  0.50428  0.75564  0.05925  1.0000
  Fe  Fe346     1.0  0.52346  0.72385  0.99575  1.0000
  C   C2601     1.0  0.50320  0.68040  0.00108  1.0000
  N   N175      1.0  0.55906  0.98847  0.13008  1.0000
  H   H3118     1.0  0.58040  0.98574  0.13552  1.0000
  S   S689      1.0  0.50090  0.75869  0.01121  1.0000
  C   C2602     1.0  0.50356  0.77799  0.06856  1.0000
  H   H3119     1.0  0.50352  0.79769  0.07531  1.0000
  C   C2603     1.0  0.50166  0.98696  0.16243  1.0000
  C   C2604     1.0  0.50725  0.67070  0.99133  1.0000
  C   C2605     1.0  0.50075  0.87744  0.17610  1.0000
  Fe  Fe347     1.0  0.92306  0.85861  0.42320  1.0000
  S   S690      1.0  0.93634  0.83655  0.43277  1.0000
  S   S691      1.0  0.90703  0.86320  0.40837  1.0000
  S   S692      1.0  0.94174  0.87032  0.41810  1.0000
  S   S693      1.0  0.91239  0.86485  0.44513  1.0000
  S   S694      1.0  0.92503  0.73751  0.43086  1.0000
  S   S695      1.0  0.98171  0.78191  0.35206  1.0000
  H   H3120     1.0  0.98906  0.77794  0.41480  1.0000
  H   H3121     1.0  0.97469  0.83796  0.35756  1.0000
  C   C2606     1.0  0.77756  0.90088  0.46161  1.0000
  H   H3122     1.0  0.65704  0.92509  0.35283  1.0000
  S   S696      1.0  0.92714  0.89752  0.44601  1.0000
  H   H3123     1.0  0.81014  0.91448  0.39106  1.0000
  H   H3124     1.0  0.98912  0.72859  0.46090  1.0000
  S   S697      1.0  0.68681  0.95774  0.34068  1.0000
  C   C2607     1.0  0.97555  0.75593  0.48364  1.0000
  H   H3125     1.0  0.83693  0.87096  0.45396  1.0000
  H   H3126     1.0  0.81112  0.86879  0.46362  1.0000
  H   H3127     1.0  0.79892  0.91493  0.46776  1.0000
  Fe  Fe348     1.0  0.73174  0.92662  0.48332  1.0000
  Fe  Fe349     1.0  0.57668  0.97408  0.26475  1.0000
  C   C2608     1.0  0.96944  0.83261  0.38655  1.0000
  H   H3128     1.0  0.72147  0.98476  0.46681  1.0000
  H   H3129     1.0  0.99491  0.74878  0.43983  1.0000
  C   C2609     1.0  0.90672  0.81927  0.47174  1.0000
  H   H3130     1.0  0.98310  0.68817  0.41765  1.0000
  C   C2610     1.0  0.73176  0.98239  0.41323  1.0000
  H   H3131     1.0  0.97762  0.73480  0.32752  1.0000
  S   S698      1.0  0.57532  0.96092  0.28814  1.0000
  Fe  Fe350     1.0  0.74376  0.95542  0.38826  1.0000
  S   S699      1.0  0.75840  0.96155  0.36611  1.0000
  S   S700      1.0  0.86109  0.95399  0.45276  1.0000
  Fe  Fe351     1.0  0.76350  0.92518  0.39583  1.0000
  S   S701      1.0  0.77964  0.92820  0.37391  1.0000
  S   S702      1.0  0.76720  0.90403  0.41290  1.0000
  Fe  Fe352     1.0  0.77736  0.95084  0.37771  1.0000
  S   S703      1.0  0.79802  0.95956  0.37342  1.0000
  Fe  Fe353     1.0  0.75915  0.93861  0.36441  1.0000
  S   S704      1.0  0.75505  0.93526  0.34383  1.0000
  S   S705      1.0  0.76258  0.94715  0.40030  1.0000
  S   S706      1.0  0.74321  0.93314  0.38591  1.0000
  C   C2611     1.0  0.99257  0.84058  0.37559  1.0000
  H   H3132     1.0  0.71921  0.96660  0.30877  1.0000
  C   C2612     1.0  0.94865  0.67391  0.42450  1.0000
  C   C2613     1.0  0.99258  0.80883  0.29771  1.0000
  H   H3133     1.0  0.96774  0.77153  0.44955  1.0000
  S   S707      1.0  0.95428  0.70264  0.37156  1.0000
  C   C2614     1.0  0.98950  0.73977  0.42421  1.0000
  Fe  Fe354     1.0  0.96112  0.78122  0.34559  1.0000
  H   H3134     1.0  0.78088  0.89693  0.45105  1.0000
  S   S708      1.0  0.96489  0.76455  0.33173  1.0000
  Fe  Fe355     1.0  0.94200  0.80620  0.36061  1.0000
  S   S709      1.0  0.96097  0.80898  0.36837  1.0000
  S   S710      1.0  0.91882  0.82019  0.36505  1.0000
  Fe  Fe356     1.0  0.97404  0.80655  0.34578  1.0000
  H   H3135     1.0  0.98068  0.81363  0.30243  1.0000
  Fe  Fe357     1.0  0.96684  0.78422  0.37397  1.0000
  S   S711      1.0  0.97478  0.77241  0.39484  1.0000
  S   S712      1.0  0.95467  0.80583  0.33726  1.0000
  S   S713      1.0  0.94661  0.78150  0.36826  1.0000
  C   C2615     1.0  0.74896  0.91896  0.43433  1.0000
  C   C2616     1.0  0.95668  0.71987  0.36014  1.0000
  C   C2617     1.0  0.96730  0.72056  0.34678  1.0000
  C   C2618     1.0  0.96943  0.73434  0.33786  1.0000
  C   C2619     1.0  0.96122  0.74747  0.34247  1.0000
  C   C2620     1.0  0.95059  0.74678  0.35582  1.0000
  C   C2621     1.0  0.94824  0.73301  0.36459  1.0000
  H   H3136     1.0  0.97379  0.71049  0.34321  1.0000
  Fe  Fe358     1.0  0.67340  0.97790  0.34963  1.0000
  H   H3137     1.0  0.94392  0.75685  0.35925  1.0000
  H   H3138     1.0  0.63896  0.95860  0.35360  1.0000
  Fe  Fe359     1.0  0.93193  0.87501  0.44087  1.0000
  C   C2622     1.0  0.73809  0.90661  0.45888  1.0000
  C   C2623     1.0  0.76342  0.97906  0.46878  1.0000
  H   H3139     1.0  0.93539  0.79638  0.48234  1.0000
  Fe  Fe360     1.0  0.95420  0.84878  0.42995  1.0000
  H   H3140     1.0  0.91743  0.70981  0.42526  1.0000
  H   H3141     1.0  0.73069  0.97210  0.42113  1.0000
  H   H3142     1.0  0.68127  0.92885  0.45917  1.0000
  Fe  Fe361     1.0  0.91765  0.75101  0.48019  1.0000
  H   H3143     1.0  0.98368  0.68710  0.44902  1.0000
  H   H3144     1.0  0.67411  0.93053  0.34203  1.0000
  H   H3145     1.0  0.67767  0.96591  0.41797  1.0000
  H   H3146     1.0  0.93978  0.68803  0.46190  1.0000
  S   S714      1.0  0.75478  0.93093  0.47548  1.0000
  C   C2624     1.0  0.70225  0.91776  0.44761  1.0000
  H   H3147     1.0  0.58832  0.98564  0.32142  1.0000
  H   H3148     1.0  0.70613  0.98438  0.48248  1.0000
  H   H3149     1.0  0.60454  0.94457  0.33216  1.0000
  C   C2625     1.0  0.57061  0.92807  0.25069  1.0000
  C   C2626     1.0  0.89077  0.81764  0.45659  1.0000
  C   C2627     1.0  0.61173  0.97941  0.31170  1.0000
  H   H3150     1.0  0.96447  0.69687  0.45381  1.0000
  C   C2628     1.0  0.61223  0.94697  0.33724  1.0000
  S   S715      1.0  0.59135  0.98757  0.26690  1.0000
  H   H3151     1.0  0.90824  0.67486  0.45812  1.0000
  H   H3152     1.0  0.57585  0.94058  0.26352  1.0000
  C   C2629     1.0  0.99227  0.78552  0.31512  1.0000
  H   H3153     1.0  0.99622  0.80445  0.42192  1.0000
  S   S716      1.0  0.65166  0.97603  0.36561  1.0000
  C   C2630     1.0  0.98123  0.71633  0.43394  1.0000
  C   C2631     1.0  0.98676  0.69741  0.41957  1.0000
  C   C2632     1.0  0.92812  0.68951  0.43920  1.0000
  C   C2633     1.0  0.96617  0.76607  0.46113  1.0000
  H   H3154     1.0  0.98952  0.84521  0.47801  1.0000
  C   C2634     1.0  0.77684  0.93883  0.43698  1.0000
  C   C2635     1.0  0.52455  0.93018  0.24643  1.0000
  H   H3155     1.0  0.59467  0.95915  0.35175  1.0000
  H   H3156     1.0  0.98312  0.72898  0.41113  1.0000
  H   H3157     1.0  0.99208  0.74867  0.41491  1.0000
  H   H3158     1.0  0.87710  0.85895  0.43206  1.0000
  Fe  Fe362     1.0  0.82568  0.96845  0.43609  1.0000
  C   C2636     1.0  0.70562  0.95153  0.34211  1.0000
  C   C2637     1.0  0.71130  0.95646  0.35146  1.0000
  C   C2638     1.0  0.72642  0.95114  0.35237  1.0000
  C   C2639     1.0  0.73595  0.94135  0.34352  1.0000
  C   C2640     1.0  0.73027  0.93658  0.33409  1.0000
  C   C2641     1.0  0.71509  0.94146  0.33358  1.0000
  H   H3159     1.0  0.70409  0.96430  0.35798  1.0000
  H   H3160     1.0  0.73075  0.95479  0.35973  1.0000
  H   H3161     1.0  0.73760  0.92899  0.32727  1.0000
  H   H3162     1.0  0.71075  0.93763  0.32634  1.0000
  C   C2642     1.0  0.93967  0.74625  0.42115  1.0000
  C   C2643     1.0  0.94478  0.74687  0.40594  1.0000
  C   C2644     1.0  0.95604  0.75443  0.39795  1.0000
  C   C2645     1.0  0.96212  0.76143  0.40515  1.0000
  C   C2646     1.0  0.95747  0.76024  0.42047  1.0000
  C   C2647     1.0  0.94627  0.75261  0.42848  1.0000
  H   H3163     1.0  0.93985  0.74173  0.40027  1.0000
  H   H3164     1.0  0.95993  0.75492  0.38618  1.0000
  H   H3165     1.0  0.96228  0.76548  0.42613  1.0000
  H   H3166     1.0  0.94279  0.75164  0.44033  1.0000
  H   H3167     1.0  0.89102  0.86233  0.38768  1.0000
  C   C2648     1.0  0.75559  0.90522  0.43038  1.0000
  H   H3168     1.0  0.75831  0.88154  0.43763  1.0000
  H   H3169     1.0  0.75048  0.92909  0.42646  1.0000
  N   N176      1.0  0.97580  0.70441  0.43138  1.0000
  S   S717      1.0  0.89303  0.75608  0.48968  1.0000
  C   C2649     1.0  0.75329  0.89218  0.44067  1.0000
  C   C2650     1.0  0.96140  0.71086  0.42656  1.0000
  Fe  Fe363     1.0  0.83932  0.94687  0.46085  1.0000
  Fe  Fe364     1.0  0.91391  0.74546  0.45195  1.0000
  C   C2651     1.0  0.80198  0.97162  0.41469  1.0000
  C   C2652     1.0  0.81479  0.96505  0.40546  1.0000
  C   C2653     1.0  0.81352  0.96126  0.39280  1.0000
  C   C2654     1.0  0.79943  0.96375  0.38958  1.0000
  C   C2655     1.0  0.78661  0.96991  0.39906  1.0000
  C   C2656     1.0  0.78789  0.97394  0.41157  1.0000
  H   H3170     1.0  0.82569  0.96323  0.40789  1.0000
  H   H3171     1.0  0.82345  0.95644  0.38549  1.0000
  H   H3172     1.0  0.77571  0.97210  0.39652  1.0000
  H   H3173     1.0  0.89141  0.94487  0.43549  1.0000
  C   C2657     1.0  0.91062  0.85095  0.39661  1.0000
  C   C2658     1.0  0.92311  0.83908  0.39628  1.0000
  C   C2659     1.0  0.92577  0.82960  0.38654  1.0000
  C   C2660     1.0  0.91594  0.83196  0.37719  1.0000
  C   C2661     1.0  0.90331  0.84365  0.37779  1.0000
  C   C2662     1.0  0.90070  0.85317  0.38742  1.0000
  H   H3174     1.0  0.93064  0.83719  0.40356  1.0000
  H   H3175     1.0  0.93518  0.82031  0.38657  1.0000
  H   H3176     1.0  0.89562  0.84545  0.37066  1.0000
  C   C2663     1.0  0.87643  0.88123  0.43295  1.0000
  Fe  Fe365     1.0  0.74296  0.95470  0.47130  1.0000
  H   H3177     1.0  0.89839  0.70264  0.44733  1.0000
  C   C2664     1.0  0.99022  0.83559  0.47378  1.0000
  C   C2665     1.0  0.92945  0.69677  0.46076  1.0000
  H   H3178     1.0  0.73921  0.96849  0.31866  1.0000
  C   C2666     1.0  0.83257  0.89370  0.45555  1.0000
  H   H3179     1.0  0.94286  0.66883  0.44800  1.0000
  S   S718      1.0  0.83625  0.92815  0.48042  1.0000
  H   H3180     1.0  0.83124  0.90791  0.40115  1.0000
  C   C2667     1.0  0.60663  0.95525  0.34823  1.0000
  H   H3181     1.0  0.88955  0.89860  0.47809  1.0000
  C   C2668     1.0  0.51980  0.93675  0.26985  1.0000
  N   N177      1.0  0.68951  0.94704  0.40796  1.0000
  C   C2669     1.0  0.67505  0.94554  0.40618  1.0000
  C   C2670     1.0  0.68785  0.96234  0.40968  1.0000
  C   C2671     1.0  0.70065  0.94497  0.39402  1.0000
  C   C2672     1.0  0.69381  0.93644  0.42133  1.0000
  C   C2673     1.0  0.68431  0.93713  0.43550  1.0000
  C   C2674     1.0  0.70768  0.92582  0.42089  1.0000
  C   C2675     1.0  0.68856  0.92797  0.44842  1.0000
  H   H3182     1.0  0.54806  0.97548  0.25122  1.0000
  C   C2676     1.0  0.98447  0.78969  0.29240  1.0000
  H   H3183     1.0  0.73022  0.98095  0.35321  1.0000
  H   H3184     1.0  0.67176  0.95321  0.39599  1.0000
  H   H3185     1.0  0.78171  0.94175  0.48403  1.0000
  H   H3186     1.0  0.99529  0.81458  0.28590  1.0000
  H   H3187     1.0  0.68695  0.97062  0.39911  1.0000
  H   H3188     1.0  0.69762  0.96327  0.41330  1.0000
  H   H3189     1.0  0.70246  0.93368  0.39194  1.0000
  H   H3190     1.0  0.69700  0.95300  0.38419  1.0000
  H   H3191     1.0  0.71155  0.94692  0.39419  1.0000
  H   H3192     1.0  0.67364  0.94496  0.43667  1.0000
  N   N178      1.0  0.78629  0.89110  0.47262  1.0000
  H   H3193     1.0  0.98035  0.78926  0.32037  1.0000
  Fe  Fe366     1.0  0.92718  0.84382  0.45435  1.0000
  C   C2677     1.0  0.72814  0.99013  0.32464  1.0000
  N   N179      1.0  0.91055  0.79226  0.41349  1.0000
  C   C2678     1.0  0.91565  0.78853  0.39861  1.0000
  C   C2679     1.0  0.90423  0.77985  0.42378  1.0000
  C   C2680     1.0  0.89845  0.80591  0.41265  1.0000
  C   C2681     1.0  0.92263  0.79467  0.41894  1.0000
  C   C2682     1.0  0.91975  0.79742  0.43334  1.0000
  C   C2683     1.0  0.93730  0.79478  0.41022  1.0000
  C   C2684     1.0  0.93083  0.79979  0.43886  1.0000
  C   C2685     1.0  0.94825  0.79747  0.41572  1.0000
  C   C2686     1.0  0.94508  0.79979  0.43006  1.0000
  H   H3194     1.0  0.92459  0.77817  0.39864  1.0000
  H   H3195     1.0  0.90640  0.78677  0.39475  1.0000
  H   H3196     1.0  0.91986  0.79769  0.39012  1.0000
  H   H3197     1.0  0.91319  0.76969  0.42567  1.0000
  H   H3198     1.0  0.89592  0.77700  0.41944  1.0000
  H   H3199     1.0  0.89821  0.78249  0.43473  1.0000
  H   H3200     1.0  0.90283  0.81565  0.40549  1.0000
  H   H3201     1.0  0.88941  0.80483  0.40798  1.0000
  H   H3202     1.0  0.89308  0.80861  0.42373  1.0000
  H   H3203     1.0  0.90885  0.79762  0.44048  1.0000
  H   H3204     1.0  0.94065  0.79272  0.39915  1.0000
  H   H3205     1.0  0.92824  0.80177  0.44999  1.0000
  H   H3206     1.0  0.95934  0.79747  0.40886  1.0000
  H   H3207     1.0  0.95362  0.80172  0.43435  1.0000
  H   H3208     1.0  0.78974  0.86805  0.48373  1.0000
  H   H3209     1.0  0.77134  0.87607  0.48014  1.0000
  H   H3210     1.0  0.87376  0.84982  0.45922  1.0000
  S   S719      1.0  0.72817  0.90731  0.47700  1.0000
  H   H3211     1.0  0.61207  0.96621  0.36217  1.0000
  H   H3212     1.0  0.99840  0.74110  0.38616  1.0000
  H   H3213     1.0  0.65468  0.92087  0.32831  1.0000
  H   H3214     1.0  0.98597  0.80336  0.40925  1.0000
  H   H3215     1.0  0.76471  0.94197  0.43896  1.0000
  H   H3216     1.0  0.79177  0.92002  0.40121  1.0000
  H   H3217     1.0  0.66076  0.94249  0.35273  1.0000
  H   H3218     1.0  0.98197  0.73160  0.37912  1.0000
  H   H3219     1.0  0.89773  0.89242  0.46105  1.0000
  H   H3220     1.0  0.81269  0.89269  0.41297  1.0000
  C   C2687     1.0  0.72954  0.97764  0.31869  1.0000
  H   H3221     1.0  0.97248  0.71822  0.48245  1.0000
  H   H3222     1.0  0.80554  0.94603  0.44610  1.0000
  C   C2688     1.0  0.82182  0.90592  0.45962  1.0000
  H   H3223     1.0  0.70642  0.96539  0.43727  1.0000
  H   H3224     1.0  0.88588  0.82205  0.44692  1.0000
  H   H3225     1.0  0.93285  0.70718  0.45408  1.0000
  H   H3226     1.0  0.97472  0.82207  0.38270  1.0000
  H   H3227     1.0  0.87272  0.86611  0.47514  1.0000
  C   C2689     1.0  0.94609  0.79517  0.48559  1.0000
  C   C2690     1.0  0.80346  0.92098  0.39962  1.0000
  C   C2691     1.0  0.91449  0.67920  0.46363  1.0000
  S   S720      1.0  0.97951  0.66218  0.38097  1.0000
  S   S721      1.0  0.99487  0.69103  0.37176  1.0000
  C   C2692     1.0  0.63189  0.95471  0.34914  1.0000
  H   H3228     1.0  0.98068  0.70825  0.45781  1.0000
  C   C2693     1.0  0.98822  0.85259  0.43580  1.0000
  H   H3229     1.0  0.97672  0.85831  0.43894  1.0000
  C   C2694     1.0  0.54156  0.97182  0.24582  1.0000
  H   H3230     1.0  0.75126  0.96867  0.33586  1.0000
  C   C2695     1.0  0.91410  0.91030  0.43619  1.0000
  H   H3231     1.0  0.77793  0.97884  0.41882  1.0000
  S   S722      1.0  0.55559  0.99111  0.26984  1.0000
  C   C2696     1.0  0.94001  0.67673  0.43820  1.0000
  C   C2697     1.0  0.51993  0.97494  0.28648  1.0000
  H   H3232     1.0  0.95675  0.86208  0.38305  1.0000
  C   C2698     1.0  0.66181  0.93461  0.34569  1.0000
  H   H3233     1.0  0.53608  0.95525  0.26457  1.0000
  C   C2699     1.0  0.89518  0.79823  0.47808  1.0000
  H   H3234     1.0  0.95758  0.66402  0.42400  1.0000
  H   H3235     1.0  0.78636  0.87174  0.46518  1.0000
  C   C2700     1.0  0.90597  0.70482  0.45310  1.0000
  H   H3236     1.0  0.99795  0.69282  0.42246  1.0000
  S   S723      1.0  0.53325  0.97486  0.30884  1.0000
  H   H3237     1.0  0.72237  0.90864  0.43330  1.0000
  H   H3238     1.0  0.67145  0.92752  0.31967  1.0000
  H   H3239     1.0  0.90233  0.83529  0.45191  1.0000
  H   H3240     1.0  0.93256  0.70432  0.40175  1.0000
  Fe  Fe367     1.0  0.55498  0.97906  0.29340  1.0000
  C   C2701     1.0  0.65905  0.93107  0.32289  1.0000
  H   H3241     1.0  0.77819  0.95248  0.45081  1.0000
  C   C2702     1.0  0.71806  0.97638  0.31293  1.0000
  H   H3242     1.0  0.89113  0.87969  0.47730  1.0000
  H   H3243     1.0  0.81048  0.89624  0.43106  1.0000
  H   H3244     1.0  0.52965  0.97811  0.27875  1.0000
  C   C2703     1.0  0.59953  0.98606  0.32147  1.0000
  H   H3245     1.0  0.76537  0.90142  0.46583  1.0000
  H   H3246     1.0  0.65779  0.96333  0.33175  1.0000
  H   H3247     1.0  0.70562  0.91078  0.45766  1.0000
  N   N180      1.0  0.80903  0.91571  0.41359  1.0000
  C   C2704     1.0  0.97327  0.69249  0.44475  1.0000
  C   C2705     1.0  0.98455  0.72828  0.42210  1.0000
  H   H3248     1.0  0.87854  0.88497  0.42098  1.0000
  H   H3249     1.0  0.88048  0.91423  0.45061  1.0000
  C   C2706     1.0  0.81353  0.87938  0.46268  1.0000
  H   H3250     1.0  0.92382  0.67007  0.46701  1.0000
  H   H3251     1.0  0.77903  0.91244  0.45887  1.0000
  C   C2707     1.0  0.82846  0.88047  0.45707  1.0000
  H   H3252     1.0  0.51891  0.92079  0.25186  1.0000
  C   C2708     1.0  0.61645  0.95914  0.35414  1.0000
  H   H3253     1.0  0.80384  0.93279  0.39479  1.0000
  S   S724      1.0  0.84620  0.97746  0.42530  1.0000
  C   C2709     1.0  0.80572  0.93604  0.48203  1.0000
  C   C2710     1.0  0.80225  0.89167  0.46693  1.0000
  H   H3254     1.0  0.89496  0.91316  0.40990  1.0000
  H   H3255     1.0  0.76219  0.98138  0.33478  1.0000
  H   H3256     1.0  0.93995  0.73254  0.37487  1.0000
  C   C2711     1.0  0.80662  0.90055  0.42043  1.0000
  H   H3257     1.0  0.83073  0.90977  0.41926  1.0000
  H   H3258     1.0  0.91122  0.92742  0.44796  1.0000
  H   H3259     1.0  0.98825  0.70525  0.40868  1.0000
  S   S725      1.0  0.80343  0.97757  0.42980  1.0000
  C   C2712     1.0  0.90766  0.92429  0.43968  1.0000
  C   C2713     1.0  0.74049  0.91965  0.44867  1.0000
  S   S726      1.0  0.72004  0.95040  0.47689  1.0000
  H   H3260     1.0  0.56978  0.91849  0.25968  1.0000
  S   S727      1.0  0.83784  0.94463  0.43880  1.0000
  Fe  Fe368     1.0  0.58818  0.97620  0.29085  1.0000
  H   H3261     1.0  0.95653  0.70223  0.42513  1.0000
  H   H3262     1.0  0.98595  0.72612  0.36203  1.0000
  Fe  Fe369     1.0  0.84701  0.97715  0.44855  1.0000
  C   C2714     1.0  0.89639  0.93413  0.43269  1.0000
  H   H3263     1.0  0.85088  0.89600  0.47843  1.0000
  C   C2715     1.0  0.70456  0.98219  0.44908  1.0000
  H   H3264     1.0  0.67253  0.95237  0.32060  1.0000
  C   C2716     1.0  0.89164  0.93006  0.42208  1.0000
  C   C2717     1.0  0.78435  0.94475  0.44372  1.0000
  S   S728      1.0  0.74970  0.97151  0.45131  1.0000
  Fe  Fe370     1.0  0.85860  0.95359  0.43031  1.0000
  H   H3265     1.0  0.71658  0.98093  0.44644  1.0000
  H   H3266     1.0  0.99640  0.86328  0.44809  1.0000
  C   C2718     1.0  0.63801  0.94603  0.33816  1.0000
  H   H3267     1.0  0.51490  0.94544  0.27654  1.0000
  C   C2719     1.0  0.71171  0.91660  0.43387  1.0000
  S   S729      1.0  0.82544  0.96994  0.45896  1.0000
  C   C2720     1.0  0.74430  0.89289  0.45481  1.0000
  C   C2721     1.0  0.90953  0.90637  0.42538  1.0000
  C   C2722     1.0  0.89851  0.91632  0.41817  1.0000
  H   H3268     1.0  0.65511  0.93615  0.31233  1.0000
  S   S730      1.0  0.87648  0.94148  0.41434  1.0000
  C   C2723     1.0  0.92579  0.69952  0.42565  1.0000
  H   H3269     1.0  0.91444  0.89562  0.42258  1.0000
  C   C2724     1.0  0.53464  0.96006  0.25336  1.0000
  C   C2725     1.0  0.78489  0.92915  0.42752  1.0000
  Fe  Fe371     1.0  0.89307  0.73666  0.48091  1.0000
  S   S731      1.0  0.72259  0.97161  0.39461  1.0000
  H   H3270     1.0  0.78028  0.90825  0.48534  1.0000
  S   S732      1.0  0.94594  0.85444  0.45241  1.0000
  S   S733      1.0  0.97805  0.83736  0.42140  1.0000
  H   H3271     1.0  0.50595  0.96557  0.32341  1.0000
  C   C2726     1.0  0.62621  0.97997  0.31192  1.0000
  N   N181      1.0  0.65444  0.94169  0.33291  1.0000
  H   H3272     1.0  0.90878  0.71571  0.44740  1.0000
  H   H3273     1.0  0.65507  0.96071  0.31495  1.0000
  H   H3274     1.0  0.95719  0.83498  0.38705  1.0000
  C   C2727     1.0  0.79095  0.93470  0.48891  1.0000
  H   H3275     1.0  0.80785  0.94419  0.47190  1.0000
  H   H3276     1.0  0.87650  0.90203  0.43627  1.0000
  C   C2728     1.0  0.99194  0.84214  0.42695  1.0000
  H   H3277     1.0  0.67568  0.93402  0.40544  1.0000
  H   H3278     1.0  0.95250  0.68159  0.40080  1.0000
  S   S734      1.0  0.91614  0.76556  0.45795  1.0000
  S   S735      1.0  0.91925  0.82784  0.47491  1.0000
  S   S736      1.0  0.88897  0.75037  0.45877  1.0000
  C   C2729     1.0  0.96894  0.85845  0.38309  1.0000
  H   H3279     1.0  0.73565  0.93029  0.45177  1.0000
  C   C2730     1.0  0.86207  0.89408  0.48101  1.0000
  C   C2731     1.0  0.90386  0.80606  0.48130  1.0000
  H   H3280     1.0  0.99833  0.77612  0.42929  1.0000
  S   S737      1.0  0.91792  0.73046  0.47335  1.0000
  H   H3281     1.0  0.74247  0.88280  0.46272  1.0000
  H   H3282     1.0  0.53170  0.93199  0.27071  1.0000
  H   H3283     1.0  0.95394  0.78519  0.48202  1.0000
  H   H3284     1.0  0.84411  0.89450  0.45124  1.0000
  H   H3285     1.0  0.79459  0.90026  0.42280  1.0000
  C   C2732     1.0  0.87112  0.91171  0.45995  1.0000
  C   C2733     1.0  0.68352  0.97399  0.44713  1.0000
  C   C2734     1.0  0.90011  0.82512  0.45940  1.0000
  H   H3286     1.0  0.89937  0.70637  0.46434  1.0000
  H   H3287     1.0  0.63113  0.93647  0.32333  1.0000
  C   C2735     1.0  0.67386  0.98375  0.45577  1.0000
  H   H3288     1.0  0.97092  0.83065  0.39807  1.0000
  Fe  Fe372     1.0  0.65742  0.99076  0.37675  1.0000
  C   C2736     1.0  0.88869  0.80394  0.46569  1.0000
  H   H3289     1.0  0.82506  0.91617  0.45864  1.0000
  C   C2737     1.0  0.69885  0.97321  0.44376  1.0000
  C   C2738     1.0  0.66018  0.95510  0.32470  1.0000
  H   H3290     1.0  0.94373  0.76440  0.46271  1.0000
  N   N182      1.0  0.87380  0.89571  0.46720  1.0000
  C   C2739     1.0  0.97767  0.76302  0.46873  1.0000
  H   H3291     1.0  0.75874  0.97931  0.31809  1.0000
  C   C2740     1.0  0.80805  0.93175  0.43123  1.0000
  C   C2741     1.0  0.99737  0.80280  0.41057  1.0000
  H   H3292     1.0  0.96257  0.71886  0.41575  1.0000
  C   C2742     1.0  0.98304  0.71672  0.44807  1.0000
  Fe  Fe373     1.0  0.89142  0.76931  0.46675  1.0000
  S   S738      1.0  0.87950  0.79315  0.46068  1.0000
  C   C2743     1.0  0.79987  0.94105  0.44103  1.0000
  C   C2744     1.0  0.88864  0.89141  0.47117  1.0000
  S   S739      1.0  0.60947  0.96963  0.29959  1.0000
  H   H3293     1.0  0.98549  0.77757  0.29380  1.0000
  C   C2745     1.0  0.76544  0.98906  0.47590  1.0000
  C   C2746     1.0  0.87371  0.88604  0.45756  1.0000
  H   H3294     1.0  0.96948  0.68355  0.44241  1.0000
  C   C2747     1.0  0.72850  0.98493  0.39930  1.0000
  C   C2748     1.0  0.93451  0.69658  0.41201  1.0000
  H   H3295     1.0  0.77857  0.92461  0.42279  1.0000
  H   H3296     1.0  0.90693  0.68161  0.47425  1.0000
  H   H3297     1.0  0.97962  0.74546  0.36256  1.0000
  H   H3298     1.0  0.82005  0.92980  0.42929  1.0000
  H   H3299     1.0  0.71574  0.92451  0.41070  1.0000
  H   H3300     1.0  0.82782  0.92609  0.40459  1.0000
  H   H3301     1.0  0.66564  0.94844  0.41546  1.0000
  H   H3302     1.0  0.81738  0.98380  0.36610  1.0000
  H   H3303     1.0  0.87026  0.91890  0.46765  1.0000
  C   C2749     1.0  0.95259  0.76191  0.46856  1.0000
  C   C2750     1.0  0.87567  0.86652  0.43918  1.0000
  C   C2751     1.0  0.98689  0.73482  0.36712  1.0000
  H   H3304     1.0  0.95065  0.80496  0.47897  1.0000
  H   H3305     1.0  0.77146  0.98498  0.48477  1.0000
  H   H3306     1.0  0.76811  0.96734  0.47202  1.0000
  N   N183      1.0  0.91955  0.69257  0.45386  1.0000
  S   S740      1.0  0.65557  0.98439  0.40149  1.0000
  C   C2752     1.0  0.50222  0.94813  0.25405  1.0000
  C   C2753     1.0  0.94584  0.68378  0.41143  1.0000
  C   C2754     1.0  0.50650  0.96801  0.31162  1.0000
  H   H3307     1.0  0.95308  0.71690  0.43479  1.0000
  C   C2755     1.0  0.98787  0.72838  0.45007  1.0000
  C   C2756     1.0  0.80076  0.92564  0.42401  1.0000
  Fe  Fe374     1.0  0.97548  0.68546  0.36748  1.0000
  H   H3308     1.0  0.63558  0.97524  0.30405  1.0000
  C   C2757     1.0  0.62860  0.98656  0.32227  1.0000
  C   C2758     1.0  0.62767  0.94242  0.33220  1.0000
  C   C2759     1.0  0.78344  0.87603  0.47553  1.0000
  S   S741      1.0  0.64371  0.97714  0.48832  1.0000
  H   H3309     1.0  0.96732  0.84216  0.47167  1.0000
  H   H3310     1.0  0.96020  0.85298  0.36241  1.0000
  H   H3311     1.0  0.92380  0.69865  0.47203  1.0000
  C   C2760     1.0  0.87544  0.89091  0.44192  1.0000
  C   C2761     1.0  0.82541  0.91486  0.40954  1.0000
  C   C2762     1.0  0.97235  0.84810  0.36202  1.0000
  H   H3312     1.0  0.66196  0.98409  0.45864  1.0000
  S   S742      1.0  0.98790  0.67926  0.34578  1.0000
  H   H3313     1.0  0.82384  0.98891  0.38441  1.0000
  C   C2763     1.0  0.97870  0.82189  0.46416  1.0000
  H   H3314     1.0  0.86055  0.91544  0.45582  1.0000
  C   C2764     1.0  0.51911  0.97232  0.30172  1.0000
  H   H3315     1.0  0.97270  0.79412  0.29784  1.0000
  C   C2765     1.0  0.87312  0.87092  0.46352  1.0000
  C   C2766     1.0  0.87387  0.86140  0.45446  1.0000
  H   H3316     1.0  0.67911  0.96679  0.44334  1.0000
  C   C2767     1.0  0.99107  0.73987  0.43818  1.0000
  S   S743      1.0  0.96760  0.68982  0.48446  1.0000
  S   S744      1.0  0.68023  0.99075  0.36203  1.0000
  N   N184      1.0  0.99540  0.79255  0.29917  1.0000
  H   H3317     1.0  0.98578  0.79507  0.28043  1.0000
  S   S745      1.0  0.99482  0.76783  0.45986  1.0000
  N   N185      1.0  0.51839  0.94269  0.25417  1.0000
  H   H3318     1.0  0.53670  0.92587  0.24621  1.0000
  C   C2768     1.0  0.50802  0.97369  0.28122  1.0000
  C   C2769     1.0  0.80687  0.90501  0.46505  1.0000
  H   H3319     1.0  0.96948  0.85651  0.39492  1.0000
  H   H3320     1.0  0.98423  0.75363  0.48961  1.0000
  H   H3321     1.0  0.97420  0.86790  0.37671  1.0000
  C   C2770     1.0  0.70488  0.98732  0.31305  1.0000
  C   C2771     1.0  0.52628  0.95482  0.24645  1.0000
  H   H3322     1.0  0.96903  0.82083  0.46099  1.0000
  S   S746      1.0  0.98967  0.82140  0.33332  1.0000
  C   C2772     1.0  0.99219  0.81138  0.46200  1.0000
  C   C2773     1.0  0.95053  0.75488  0.48359  1.0000
  H   H3323     1.0  0.86111  0.90226  0.48772  1.0000
  H   H3324     1.0  0.63979  0.98689  0.32242  1.0000
  H   H3325     1.0  0.99220  0.80199  0.45784  1.0000
  C   C2774     1.0  0.57404  0.94054  0.25288  1.0000
  C   C2775     1.0  0.75499  0.98417  0.45780  1.0000
  C   C2776     1.0  0.81765  0.92689  0.48842  1.0000
  S   S747      1.0  0.58165  0.96778  0.24271  1.0000
  N   N186      1.0  0.97613  0.84496  0.37680  1.0000
  C   C2777     1.0  0.97771  0.83392  0.47013  1.0000
  C   C2778     1.0  0.75357  0.97975  0.32989  1.0000
  H   H3326     1.0  0.51374  0.92767  0.27530  1.0000
  C   C2779     1.0  0.99940  0.85546  0.44092  1.0000
  H   H3327     1.0  0.50854  0.97614  0.26943  1.0000
  C   C2780     1.0  0.78050  0.89635  0.48677  1.0000
  H   H3328     1.0  0.89352  0.78773  0.48520  1.0000
  H   H3329     1.0  0.97869  0.85599  0.35376  1.0000
  H   H3330     1.0  0.69586  0.98606  0.30898  1.0000
  H   H3331     1.0  0.99449  0.77323  0.31684  1.0000
  H   H3332     1.0  0.99385  0.85273  0.39145  1.0000
  H   H3333     1.0  0.64939  0.98408  0.43251  1.0000
  H   H3334     1.0  0.80656  0.99141  0.35245  1.0000
  H   H3335     1.0  0.66916  0.95292  0.48942  1.0000
  C   C2781     1.0  0.57573  0.95265  0.24107  1.0000
  H   H3336     1.0  0.99584  0.75706  0.37161  1.0000
  H   H3337     1.0  0.86440  0.88305  0.48849  1.0000
  H   H3338     1.0  0.99700  0.82566  0.36047  1.0000
  H   H3339     1.0  0.99930  0.81187  0.30380  1.0000
  H   H3340     1.0  0.50000  0.95076  0.24274  1.0000
  H   H3341     1.0  0.73920  0.99121  0.42759  1.0000
  C   C2782     1.0  0.73369  0.99152  0.34729  1.0000
  H   H3342     1.0  0.99896  0.78824  0.32145  1.0000
  S   S748      1.0  0.94887  0.66108  0.48284  1.0000
  C   C2783     1.0  0.81326  0.98902  0.48955  1.0000
  H   H3343     1.0  0.99521  0.65874  0.30256  1.0000
  H   H3344     1.0  0.70788  0.98361  0.53125  1.0000
  C   C2784     1.0  0.88971  0.70125  0.49895  1.0000
  C   C2785     1.0  0.93468  0.80807  0.50571  1.0000
  C   C2786     1.0  0.89233  0.70628  0.53146  1.0000
  H   H3345     1.0  0.98089  0.67463  0.51008  1.0000
  H   H3346     1.0  0.92300  0.81010  0.50430  1.0000
  C   C2787     1.0  0.60969  0.95373  0.52301  1.0000
  H   H3347     1.0  0.94580  0.71769  0.50102  1.0000
  H   H3348     1.0  0.99385  0.68364  0.52404  1.0000
  S   S749      1.0  0.72974  0.92727  0.50699  1.0000
  C   C2788     1.0  0.97739  0.71053  0.49131  1.0000
  C   C2789     1.0  0.89343  0.69129  0.53793  1.0000
  C   C2790     1.0  0.95887  0.79061  0.50540  1.0000
  H   H3349     1.0  0.74662  0.94247  0.53230  1.0000
  C   C2791     1.0  0.88971  0.67514  0.50872  1.0000
  H   H3350     1.0  0.92413  0.78512  0.50701  1.0000
  C   C2792     1.0  0.98926  0.69113  0.51491  1.0000
  C   C2793     1.0  0.52153  0.96780  0.64346  1.0000
  H   H3351     1.0  0.93055  0.68004  0.53636  1.0000
  S   S750      1.0  0.53191  0.95167  0.71105  1.0000
  H   H3352     1.0  0.92183  0.73241  0.52305  1.0000
  H   H3353     1.0  0.58149  0.98510  0.71571  1.0000
  C   C2794     1.0  0.91943  0.70315  0.52836  1.0000
  S   S751      1.0  0.77007  0.92218  0.51131  1.0000
  S   S752      1.0  0.93345  0.75064  0.49383  1.0000
  H   H3354     1.0  0.98609  0.72676  0.49590  1.0000
  H   H3355     1.0  0.52969  0.95934  0.63821  1.0000
  C   C2795     1.0  0.96540  0.77655  0.51338  1.0000
  H   H3356     1.0  0.79807  0.90726  0.51876  1.0000
  C   C2796     1.0  0.91285  0.68334  0.50266  1.0000
  H   H3357     1.0  0.95014  0.68931  0.52194  1.0000
  C   C2797     1.0  0.90511  0.71214  0.52662  1.0000
  H   H3358     1.0  0.55315  0.98671  0.54243  1.0000
  N   N187      1.0  0.93291  0.70945  0.52245  1.0000
  C   C2798     1.0  0.57912  0.96685  0.56266  1.0000
  H   H3359     1.0  0.78743  0.89003  0.49508  1.0000
  H   H3360     1.0  0.94088  0.72789  0.52382  1.0000
  H   H3361     1.0  0.93417  0.80814  0.51741  1.0000
  C   C2799     1.0  0.98194  0.68605  0.50701  1.0000
  C   C2800     1.0  0.50847  0.97489  0.63826  1.0000
  S   S753      1.0  0.55939  0.97529  0.68265  1.0000
  C   C2801     1.0  0.68344  0.95860  0.49996  1.0000
  Fe  Fe375     1.0  0.96427  0.66672  0.49326  1.0000
  H   H3362     1.0  0.88162  0.71324  0.52948  1.0000
  C   C2802     1.0  0.52411  0.97167  0.65537  1.0000
  C   C2803     1.0  0.59174  0.96497  0.55119  1.0000
  H   H3363     1.0  0.77791  0.97047  0.51657  1.0000
  H   H3364     1.0  0.72587  0.96393  0.53006  1.0000
  C   C2804     1.0  0.93574  0.71291  0.50607  1.0000
  H   H3365     1.0  0.77261  0.94545  0.52567  1.0000
  H   H3366     1.0  0.87011  0.69221  0.50481  1.0000
  C   C2805     1.0  0.98192  0.79852  0.50320  1.0000
  S   S754      1.0  0.54238  0.97353  0.72576  1.0000
  C   C2806     1.0  0.97622  0.69575  0.49503  1.0000
  H   H3367     1.0  0.96059  0.74639  0.50263  1.0000
  C   C2807     1.0  0.73951  0.98058  0.52269  1.0000
  C   C2808     1.0  0.73695  0.96598  0.52762  1.0000
  C   C2809     1.0  0.80580  0.97716  0.49367  1.0000
  C   C2810     1.0  0.92015  0.68788  0.53501  1.0000
  H   H3368     1.0  0.92745  0.72143  0.53991  1.0000
  H   H3369     1.0  0.62661  0.97420  0.51825  1.0000
  H   H3370     1.0  0.95632  0.70467  0.52306  1.0000
  C   C2811     1.0  0.60212  0.97850  0.50946  1.0000
  H   H3371     1.0  0.57465  0.98402  0.52223  1.0000
  H   H3372     1.0  0.92625  0.72120  0.50192  1.0000
  H   H3373     1.0  0.93381  0.78049  0.52185  1.0000
  H   H3374     1.0  0.96358  0.81223  0.49384  1.0000
  H   H3375     1.0  0.55988  0.97809  0.65174  1.0000
  C   C2812     1.0  0.93062  0.72334  0.52761  1.0000
  H   H3376     1.0  0.92469  0.68094  0.50236  1.0000
  S   S755      1.0  0.70157  0.96613  0.51299  1.0000
  C   C2813     1.0  0.68525  0.96907  0.50659  1.0000
  H   H3377     1.0  0.80730  0.95361  0.50135  1.0000
  H   H3378     1.0  0.84759  0.96795  0.49547  1.0000
  H   H3379     1.0  0.60219  0.95874  0.55424  1.0000
  H   H3380     1.0  0.90373  0.72364  0.52091  1.0000
  H   H3381     1.0  0.72101  0.98512  0.50524  1.0000
  H   H3382     1.0  0.94096  0.77153  0.50621  1.0000
  C   C2814     1.0  0.59091  0.97122  0.53613  1.0000
  C   C2815     1.0  0.56526  0.97463  0.55948  1.0000
  H   H3383     1.0  0.83396  0.94778  0.50240  1.0000
  C   C2816     1.0  0.82816  0.95921  0.49917  1.0000
  C   C2817     1.0  0.97967  0.77375  0.51627  1.0000
  H   H3384     1.0  0.98838  0.80701  0.49917  1.0000
  S   S756      1.0  0.50747  0.96927  0.73594  1.0000
  C   C2818     1.0  0.81483  0.91649  0.50158  1.0000
  H   H3385     1.0  0.60088  0.94986  0.52045  1.0000
  H   H3386     1.0  0.58008  0.96249  0.57411  1.0000
  H   H3387     1.0  0.61284  0.98529  0.53014  1.0000
  H   H3388     1.0  0.53427  0.96613  0.65946  1.0000
  C   C2819     1.0  0.94661  0.69927  0.52694  1.0000
  C   C2820     1.0  0.90730  0.68211  0.53969  1.0000
  H   H3389     1.0  0.55558  0.97647  0.56841  1.0000
  H   H3390     1.0  0.61992  0.95202  0.51406  1.0000
  Fe  Fe376     1.0  0.54140  0.97204  0.70314  1.0000
  C   C2821     1.0  0.51377  0.98280  0.66201  1.0000
  H   H3391     1.0  0.94496  0.69565  0.53920  1.0000
  Fe  Fe377     1.0  0.53063  0.95485  0.73380  1.0000
  H   H3392     1.0  0.90864  0.80163  0.49099  1.0000
  H   H3393     1.0  0.95982  0.76745  0.51738  1.0000
  H   H3394     1.0  0.98447  0.76293  0.52232  1.0000
  C   C2822     1.0  0.61671  0.97402  0.52765  1.0000
  C   C2823     1.0  0.76643  0.96930  0.51977  1.0000
  N   N188      1.0  0.60454  0.96950  0.52422  1.0000
  H   H3395     1.0  0.82400  0.90943  0.50657  1.0000
  C   C2824     1.0  0.75469  0.98184  0.51842  1.0000
  C   C2825     1.0  0.56393  0.98042  0.54482  1.0000
  C   C2826     1.0  0.98496  0.71544  0.49898  1.0000
  C   C2827     1.0  0.96765  0.80145  0.50028  1.0000
  C   C2828     1.0  0.66146  0.98479  0.50188  1.0000
  C   C2829     1.0  0.81314  0.96252  0.49852  1.0000
  H   H3396     1.0  0.62105  0.96633  0.53724  1.0000
  H   H3397     1.0  0.57985  0.98004  0.69977  1.0000
  C   C2830     1.0  0.67422  0.98213  0.50765  1.0000
  H   H3398     1.0  0.99903  0.78237  0.51336  1.0000
  C   C2831     1.0  0.90513  0.67189  0.50788  1.0000
  S   S757      1.0  0.74226  0.95784  0.49373  1.0000
  C   C2832     1.0  0.76349  0.95519  0.52497  1.0000
  C   C2833     1.0  0.74879  0.95353  0.52882  1.0000
  H   H3399     1.0  0.88359  0.68666  0.54109  1.0000
  H   H3400     1.0  0.88371  0.66632  0.51282  1.0000
  C   C2834     1.0  0.80016  0.91527  0.50849  1.0000
  H   H3401     1.0  0.91089  0.70685  0.49511  1.0000
  H   H3402     1.0  0.90817  0.67032  0.54419  1.0000
  Fe  Fe378     1.0  0.72018  0.95156  0.49991  1.0000
  C   C2835     1.0  0.98791  0.78470  0.51119  1.0000
  H   H3403     1.0  0.50652  0.97198  0.62888  1.0000
  C   C2836     1.0  0.90508  0.69802  0.49839  1.0000
  Fe  Fe379     1.0  0.50977  0.96798  0.71245  1.0000
  H   H3404     1.0  0.93880  0.81791  0.49847  1.0000
  C   C2837     1.0  0.83580  0.97057  0.49528  1.0000
  Fe  Fe380     1.0  0.75199  0.93347  0.49858  1.0000
  S   S758      1.0  0.87976  0.71947  0.49337  1.0000
  H   H3405     1.0  0.93751  0.70281  0.50167  1.0000
  C   C2838     1.0  0.78821  0.92433  0.50221  1.0000
  N   N189      1.0  0.94399  0.79387  0.50174  1.0000
  C   C2839     1.0  0.99127  0.70570  0.51049  1.0000
  H   H3406     1.0  0.61253  0.94634  0.53346  1.0000
  C   C2840     1.0  0.57650  0.97879  0.53326  1.0000
  C   C2841     1.0  0.93542  0.78224  0.50962  1.0000
  C   C2842     1.0  0.88204  0.68977  0.50420  1.0000
  C   C2843     1.0  0.96207  0.75186  0.49104  1.0000
  H   H3407     1.0  0.69184  0.94841  0.49930  1.0000
  H   H3408     1.0  0.79437  0.97907  0.49273  1.0000
  H   H3409     1.0  0.59562  0.98716  0.69865  1.0000
  H   H3410     1.0  0.50409  0.93952  0.71900  1.0000
  H   H3411     1.0  0.59406  0.97491  0.50545  1.0000
  C   C2844     1.0  0.65962  0.97421  0.49537  1.0000
  H   H3412     1.0  0.61263  0.97744  0.50082  1.0000
  C   C2845     1.0  0.67057  0.96111  0.49446  1.0000
  C   C2846     1.0  0.55121  0.98977  0.66964  1.0000
  H   H3413     1.0  0.71594  0.98857  0.54376  1.0000
  C   C2847     1.0  0.50040  0.99037  0.65687  1.0000
  H   H3414     1.0  0.51660  0.98529  0.67109  1.0000
  H   H3415     1.0  0.76872  0.89536  0.49182  1.0000
  H   H3416     1.0  0.67564  0.99023  0.51279  1.0000
  H   H3417     1.0  0.59791  0.99050  0.50971  1.0000
  Fe  Fe381     1.0  0.51934  0.98778  0.72630  1.0000
  C   C2848     1.0  0.58343  0.98838  0.70341  1.0000
  C   C2849     1.0  0.82849  0.98530  0.49068  1.0000
  C   C2850     1.0  0.55291  0.98812  0.65517  1.0000
  S   S759      1.0  0.51928  0.98808  0.70303  1.0000
  H   H3418     1.0  0.52316  0.66399  0.97226  1.0000
  S   S760      1.0  0.50875  0.76082  0.90268  1.0000
  S   S761      1.0  0.54350  0.66104  0.92959  1.0000
  H   H3419     1.0  0.54916  0.72360  0.92111  1.0000
  H   H3420     1.0  0.52101  0.79131  0.96389  1.0000
  C   C2851     1.0  0.51692  0.97305  0.76903  1.0000
  H   H3421     1.0  0.56379  0.70334  0.89947  1.0000
  Fe  Fe382     1.0  0.50538  0.77638  0.88133  1.0000
  C   C2852     1.0  0.51026  0.93278  0.77656  1.0000
  H   H3422     1.0  0.55531  0.72572  0.93642  1.0000
  H   H3423     1.0  0.52106  0.80967  0.95297  1.0000
  H   H3424     1.0  0.52340  0.78366  0.93998  1.0000
  C   C2853     1.0  0.52853  0.68166  0.97813  1.0000
  C   C2854     1.0  0.50446  0.80667  0.89192  1.0000
  H   H3425     1.0  0.54272  0.74634  0.90857  1.0000
  C   C2855     1.0  0.50599  0.82323  0.90632  1.0000
  H   H3426     1.0  0.51596  0.71054  0.90814  1.0000
  Fe  Fe383     1.0  0.51778  0.74298  0.88960  1.0000
  H   H3427     1.0  0.51763  0.68446  0.92271  1.0000
  C   C2856     1.0  0.51101  0.92976  0.75209  1.0000
  H   H3428     1.0  0.50895  0.73862  0.93487  1.0000
  C   C2857     1.0  0.50113  0.82402  0.97484  1.0000
  H   H3429     1.0  0.53837  0.68203  0.96928  1.0000
  C   C2858     1.0  0.54160  0.67945  0.91952  1.0000
  S   S762      1.0  0.51187  0.79818  0.87665  1.0000
  H   H3430     1.0  0.51188  0.83047  0.90817  1.0000
  H   H3431     1.0  0.52349  0.75800  0.95165  1.0000
  C   C2859     1.0  0.52798  0.76043  0.93988  1.0000
  S   S763      1.0  0.51646  0.75896  0.86785  1.0000
  C   C2860     1.0  0.53978  0.70864  0.90285  1.0000
  H   H3432     1.0  0.56539  0.67770  0.91411  1.0000
  C   C2861     1.0  0.53890  0.76893  0.90948  1.0000
  N   N190      1.0  0.51053  0.80874  0.97610  1.0000
  H   H3433     1.0  0.51596  0.73683  0.95813  1.0000
  H   H3434     1.0  0.52279  0.73294  0.91948  1.0000
  C   C2862     1.0  0.55456  0.68483  0.91292  1.0000
  N   N191      1.0  0.53165  0.73378  0.93754  1.0000
  S   S764      1.0  0.53450  0.93871  0.75479  1.0000
  H   H3435     1.0  0.52652  0.71841  0.95824  1.0000
  C   C2863     1.0  0.53328  0.77959  0.91812  1.0000
  H   H3436     1.0  0.50918  0.70095  0.95932  1.0000
  C   C2864     1.0  0.52447  0.69142  0.98779  1.0000
  C   C2865     1.0  0.52723  0.73023  0.95395  1.0000
  C   C2866     1.0  0.54601  0.72327  0.93321  1.0000
  H   H3437     1.0  0.52704  0.96924  0.77391  1.0000
  S   S765      1.0  0.52832  0.74630  0.98507  1.0000
  H   H3438     1.0  0.53555  0.73202  0.95910  1.0000
  H   H3439     1.0  0.51868  0.71942  0.93584  1.0000
  C   C2867     1.0  0.53889  0.75402  0.91593  1.0000
  H   H3440     1.0  0.50407  0.80277  0.95898  1.0000
  H   H3441     1.0  0.51552  0.93512  0.78409  1.0000
  H   H3442     1.0  0.53211  0.79696  0.98109  1.0000
  C   C2868     1.0  0.55366  0.69934  0.90463  1.0000
  C   C2869     1.0  0.52799  0.77533  0.93331  1.0000
  S   S766      1.0  0.53535  0.70437  0.98511  1.0000
  H   H3443     1.0  0.53109  0.81596  0.97115  1.0000
  H   H3444     1.0  0.52262  0.81756  0.88719  1.0000
  C   C2870     1.0  0.51988  0.67144  0.97980  1.0000
  S   S767      1.0  0.53953  0.72679  0.89242  1.0000
  C   C2871     1.0  0.51778  0.93275  0.76182  1.0000
  H   H3445     1.0  0.53279  0.79120  0.91298  1.0000
  C   C2872     1.0  0.51999  0.73106  0.93172  1.0000
  H   H3446     1.0  0.54271  0.77230  0.89759  1.0000
  C   C2873     1.0  0.51204  0.81598  0.89444  1.0000
  H   H3447     1.0  0.52016  0.97842  0.75717  1.0000
  C   C2874     1.0  0.53313  0.74932  0.93130  1.0000
  C   C2875     1.0  0.52669  0.70339  0.90955  1.0000
  H   H3448     1.0  0.54547  0.71154  0.93858  1.0000
  C   C2876     1.0  0.52761  0.68872  0.91785  1.0000
  C   C2877     1.0  0.52477  0.80833  0.97982  1.0000
  H   H3449     1.0  0.50965  0.78691  0.98967  1.0000
  H   H3450     1.0  0.51356  0.96281  0.76919  1.0000
  N   N192      1.0  0.50471  0.98320  0.77726  1.0000
  C   C2878     1.0  0.51433  0.80297  0.96233  1.0000
  H   H3451     1.0  0.51103  0.97320  0.79821  1.0000
  H   H3452     1.0  0.49980  0.70029  0.93851  1.0000
  H   H3453     1.0  0.49997  0.82832  0.95145  1.0000
  C   C2879     1.0  0.50136  0.97531  0.79294  1.0000
  S   S768      1.0  0.50136  0.66776  0.95210  1.0000
  H   H3454     1.0  0.50040  0.83890  0.87260  1.0000
  C   C2880     1.0  0.50260  0.79839  0.98800  1.0000
  Fe  Fe384     1.0  0.50354  0.75429  0.98885  1.0000
  H   H3455     1.0  0.52291  0.81176  0.99044  1.0000
  H   H3456     1.0  0.51682  0.92974  0.74070  1.0000
