data_image0
_chemical_formula_structural       S2HCHCFeSHCNC2SFeSCFeSFeSHC2H2SCFeS2HFeS2FeS2FeSFeS3FeS2FeS2FeSFeS3FeS2FeS2FeSFeS2C2H3C2H2C6H4C6H4C6H6C3HCH3C6H4C6H4C6H4C6H4C2H3CHC4H2CH2C3H4CHCFeC2H3CSC2H3CSHCH2CSH8CS2H2C2HCNC9H16CH2CH4CN2CH3CHCHCHCFe2H4CNCFeC2HCHNHCH2CHCHNC9H14NC5H9SHCHNC9H12CHCH4C3HCHC3H2NH3C2HCH2CH3CH5FeHCHCSHCSCSHC2HFeS2H2FeSHSFeS2FeS2FeSFeS4H2FeHSFeCH2FeSCSFeS2FeS2FeSFeS3FeS2FeS2FeSFeS3FeSFeSFeS2C7H5C2H3C6H4C6H4C3H2C6H4C6H4C6H4C6H4C6H5C2H4C6H6CH2C2HC2HC7H3SCHC4HSHNHC2HNC9H24CH2SH2C2H4CH2C2H5FeH4FeNHC4H3C2H2CH3C2H2S2HC2SCH2NC2H2CHNH3C3SC3H2C4HCSCH3C2SHCHC4HCH4NC2HC3HCH5CNCHC2HC2SCHC2H3C4H3CN2C3H10CH2NC2H2C2HCHC2H4CH5CH3CH2CH3C3SC2H2CHC2H4CH2CH3CNHC2HC2SH5CHNH2FeHCH6CFeS2FeS3FeS2FeCSFeS2FeHFeCFeS3HFeS2FeS2FeSFeS3FeS2FeS2FeSFeS3FeS2FeS2FeSFeS3C3H5CH2C3H4C6H4C3FeHCH2CHC6H4C6H4CNC2HCSH3C6H5C6H4CH2C2H2C6H4C6H5NC6HNH12CHNCH3CHC4H5C2HC2HC3HCNCH3CH3CH2CH9C3H2C2HC3SC4HSHFeCH2C3H8CHNC4HCHCSH10C2HFeC3HC2HNC2HSCH4CH2NC9H19CHCHCHC4H4CH3CH5CHCHC2NCSHSCH2NH5C2HCH2C3FeH4CNHCHNCHCSHSNC9H13CH3C2HNHCHSH2CH2CHC2H4CHFeS2FeSFeSFeS3FeS2FeSFeSFeS3FeSFeS2FeSFeS3FeS2FeS2FeHFeS3H2CH3CSHC2FeS2FeS2FeSFeHS2CFeS2FeS2FeSFeS3CHC3H5C6H7SH3NH4CH3C3H2C6H4C7H4C2H2C2HCHC6H4C6H4C6H4C6H4C6H4C6H4C2HNC9H14CH3C2NHSC2H2C3HCNC3HCH3C2HCH2CHCHC2H3C2H4NC9H14NC4H3CH3CHNC9H14CNC9H14CNC2HNC5H10C2H6C2H2CH3CH2C3H3SC2H2CHSH2CHC2HC2NC6HC2H3C2HCHNHNH2CH6CH5C4H7C3H9CH3C2H2C3HC4HCH2CHC2HCFeCHFeS2FeSHCS2H2FeS2FeS2FeSFeS3FeS2HFeSHCH2FeS2FeS2FeSFeS3FeS2FeS2FeSFeS3FeS2FeSFeS3HCHC2H2C6H4C6H4C6H5C2H2C6H4C6H4C6H4C6H4C6H10NH2C6H5NH4SHCH3CFeHCH2CH3FeHNC11H2NH10C2HC2HCH2CHCH3SH5CHNC9H15NC9H14NC9H11NC5HCFeHC2H2CH4C3HC2NH3CH2CHCSC3HC2H2C2HCH2NC4H3C2HC3H4C3H8CHNH4SH2CH3CHC3HC4H2C2HSH2SHC2NH4C3HCHCSHCH3C2HC2SH2CSNCNC2H3C2H4C2H4CH2CH2FeHC2HCFeS2FeS2FeSFeS3FeS2FeS2FeSFeS3FeS2FeS2FeSFeS3CSH2C2FeS2FeSHFeSFeS3FeS2FeSHFeSFeS3FeS2FeS2FeHFeS3HCHCH2C6H4C6H4C6H4SHC2H3C2HC2H2FeC6H4C6H5C2HC2HC6H4C6H4C3H2C6H4C8H2C6H3NC9H12C2N2C4H11SCH3NCH2C3H3CNH2CSH3CH2CH2C2HC2HCH2C2H4CHCHCH3NC5H8NC3H3CH9SC5H3SCHCH8CHC2H8C2NC9H15CHC2HFeH2C2NC9H18CHC3SH3SH2C3H2C3NC8H13CSCH2NC2H2C2HCHCH2CNH3C2HCSCH2SC4H2CH3CH5C2H3C2HCH4C2H3FeHFeSCFeS2FeSFeS3FeS2FeS2FeSFeS3FeS2FeSFeSFeS3CFeS2FeSHFeSFeS3FeS2FeS2FeSFeS2FeSFeS2FeCFeS3C6H3C2H7C6H5C3HCHCH3CH3C6H4C3H2C6H4C6H4C6H4C6H4C6H4CSC2SCHC5NC9H14NC4SHC2H10C2HCHNC9H14C2HCHCHC3H3CH3NH5CH3C5SC2HNHCH3CHC2HCNCH3C4NH6CHC3HCH4CNH7CH3C2H2C2HC3HSH3CHC2H4CHNCNH3CNC2H6C6H4CH2CHC7H3CH3CH2CHC2H2C2NCHCH2C3H5CH3CH2SHC2H3CH5C2HC3H6CH7C2H2CH3CH2FeSCFeS2FeSFeS3FeS2FeSHFeSFeS3FeSFeS2FeSFeHS2HCFeS2FeS2Fe2S3FeS2FeS2FeSFeS2FeS2FeS2FeSFeS2C6H4C6H4C6H4CH2CH2CHC6H4C6H4C6H4CH2CH7C6H4C6H4C5HCHCSH3CHNHC2SC4H2C2HCHC2HCH2NC2HC3H4CSH3CH3C5H3NHCHC2HCHCSH2CSH2C3H2SHCH5NHC2H2CHC2HCH2CH2CH3C3H4CH3NHCHCH2NC9H14NC6HSCH11CHCH2CHC2NH5CHNH2CHC3HNHCHC2H2CHCHCHCH3C2H9CHCH2C2H4C3H2CH3CHC2FeS2FeS2FeSFeS3FeS2FeS2FeSFeS3FeS2FeS2FeSFeS4CH4FeS2FeSFeSH2S4FeS4NCSHC6H5C2H3C6H4CH2C4HCHC6H4C6H4C2HSHCHC2HC6H4C6H4C6H4C3H2CH3FeH2CFeS2HSH2CHCH2C3H3FeHC3HCH3CNH5C3HC3HC2HSHCSH2C2H2C2H3C3HC4H4CFeHC3H2FeCH3NC8H12NH2NC6HC2H2CH9NHNC6H10C2H6NC6HCH12CH2C3HC6H4CHNH3C2H2CHNC2NCFeH4C2FeHC2HCH6C3H2CFeH3CH2C2HSH6CSC2H2NCHCH2CHC2HCH3C2SH3CHCH2CH6C6FeS2FeS2FeSFeS3FeS2FeS2FeSFeS3CSFeS2FeSFeS3FeS2FeS2FeSFeS3HFeS2FeS2FeSFeS3FeS2FeSFeSFeS3C6H4C2HC2HC7H4C6H4C4HCH2CHC6H4C6H4C6H4C6H4C6H4C6H4C2H3CHNHC2H5CHNC8H9CH4CHCHCHCNC6H11NC9H16C2H2CH2CHCH3C2HCHNH2NHC5H3C2H2CH3C4H4CNHCHCH5C2H2CH5C2HCH6C2HCH5CHFeHC4H3C2NHCH2C2HC2H2CH4CH3CHC2H3CHC3HNC9H14NC9H18CHCNHCHCHSHC3SHCH2C3HFeS2FeS2FeSFeS3FeS2FeS2FeSFeS3FeSFeS2FeSFeS3HFeSC3H2SC2H2FeS2FeCSFeS2C6H5CH3CH2C6H4C2HC4H2C6H4C6H4C6H4C6H4C3HNCH2CHC4HCH2SCNC4H5SH7NC5H8C2H3C2HSCH3N2CHSCHC2H2CFeHNC9H14NC7HC2H5CH3CHCHFeCH2CHCH2SHSH2CH6CHCSC4HCH4CHC3H3C4FeCH3SCNC9H15C2HC3HC2H4SCHC4NHC2H3C2NC9H10CHFeC2H3NH7CH3C3H2SH4C2H2FeHC5FeH3CSH2CHCH2CHCH4CFeSCHSH2SFeCFeS2FeS2FeSFeS3HS2FeS2NS2HC2FeSH2SHC2NFeCHFeS2FeSFeS3FeS2FeS2FeSFeS3FeS2FeS2FeSFeS3HC6H4C6H4C6H4C6H4C4H7C6H5CSH2CHC6H4C2H2C6H4C6H4C6H4C6H4NC9H15C2HCH4CH2CHC2H4CNC9H14CSCH2C2H2NHCH2CNC2HC6HSH2CH7CHNCHCH3NH3CH2CHCH2CHC2H2NC10H13C2H5CHCH6SHC2NCH3CHC3H3CH4SH4CH2NH2C2H3CFeC2HNC9H13C2H3C2SH2CHFeHFeS2FeS2Fe2S3FeS2FeSFeSFeS3FeSCFeS2FeSFeS3HFeS2FeS2FeSFeS3HCHCH3C2H4FeS2FeS2FeSFeS3FeS2FeS2FeHFeHS2C2H2C6H5C2H3CH3CSH5C6H6C4HCH2CHN2CHC2SH3SC8H4C2H2C6H4C6H5C6H4C6H4C6H5CHC7H3C5H7C3NC9H14C3H4CHC3NHC2HC3HSCHNC4H3C2HNC2HC2H5CH2CHCH4N2C9H14NC9H18C2HCH2CH2CNC2H2C2H4CHNHNC2HC2H3C2H3C2H4SH5C3HCH3CH5CHC2H4C3HC2H2C2HSC2HC2HSH3CH3C2H3C2H3CFeS2FeS2FeSFeHS2HFeSHFeS2FeSFeHS2FeS2FeS2FeSFeS3HFeS2FeS2FeSFeS2FeS2FeS2Fe2S3FeS2FeSFeS3C6H4C6H4C6H4C3HC2HCHC6H4C2H2C6H4C6H6SH3C7H4C6H4CH2C4NH2CHC3HC2SH4C2H2CH4C4H2C4H4CHCH6C4H2CH2CHCHCHCNH4NCHCH2CHFeCHC2HCH2CH5CH4CHNCHC2H2CH4CHC2H3NCHSHSNH2NC9H14C2H3CHCH3CNCNH3CHCH2CHCHC2HSNH3CHCH2CH3CH2C2HC2NH3CHC2H6C2HCH2CHC2H2CH3NCH2CHC2H5C2H2FeS2FeS2FeSFeS3HSHCHFeCSH2CFeSCSH3C2H2SHCFeSFeS2FeS3FeS2FeS2FeSFeS3FeS2FeS2FeSFeS3HC6HCHCH2C6H4C6H4C6H4CSNC2H2NH8CHC6H4NHC6H4FeCHC6H4C6H4C6HCH2C6H3C2HFeCH4CH4CH3SH2CH2SHC5HCHSHCHC2HC5H7CH2SCNHC4HCNC9H14NC9H17FeCH2CHCH5CHCHNCSC4HCH3C2SHCFeH3NC9H14NC9H14SH4SCHCH2CH6C4H2C2H3CSC2HFeC2HSHC2SHC2HFeS2FeS2FeSFeS3FeS2FeS2FeSFeS3FeS2FeS2FeSFeS3CSCHFeS2FeS2FeHFeS3FeS2FeS2Fe2S3FeS2FeS2FeSFeCS2H2CH2CNH4C6H4C6H4C6H4C4HCH3C2HC6H4C3H2C6H4C6H4C3HC2HFeHC6H4C6H4C6H4C4H3C2H2CHC3H3C6H9CNHCSC3S2FeH3S2CHCH4CH3SFeCHCSH4CNCSH2C3H5CHSCHFeCHSCH2CH4CH2C2HCH5NC9H14C2H6NC9H14NC6H10NC9H14NC9H13C2SH5CH2CH2C2HNC3FeCH2NCHCH2CFeHCH2CH2C2H2CHCHCNC9H14C3NH2NC6H10NC9H7NCH4CHC2H3CHSH2CHCHCH3CHCHCFeSFeS2FeH2S2FeS2FeSHS2CSFeSHSCNHFeS2FeS2FeSFeS3FeS2FeS2FeSFeS3FeS2FeS2FeSFeS3NHCH2C5H3C6H4CHC4H3NC6H4C6H4CHC4NCHC7H4FeH2C6H5CH2C6H4CSH2C6H2C2H2CSHCH4CH3C3HC2HCH2FeCHSHC3HCHFeHC2H2C3H2NC9H14NC9H14NC6HCH11CFeC4H2CH4CFeH2NC7H7CHCH3C2HCHCHNCH3NHCH2CH8SH3CHC2H2FeCHCSCH5C2SCH2C2SH2C2HCH5CH3CHCHC2H2CNCH2C4HSCHCHSHC3HCHCH3CH7C3HCH2CH7CHCHC2H3CH3C3FeS2FeS2FeSFeS3H2C2FeS2FeS2FeSFeS3HCFeSHFeS2FeSFeCS2FeS2FeS2FeSFeS3FeS2FeS2FeSFeS2FeS2HSFeSFeS3HCHC2H2C6H8C7H4C6H4C6H4NHSHNC6H4C5H5C2H2C2H3C6H4C6H4C6H4C3HC2HCHCNC9H15CNC9H9CH3C3H2CH5NCH2C2NC9H14NC2H7CHC2HCH2SHCH8CNCHC4SC8H3C3H9C2H4NH2C2NC2HCHC3H5C2H3CHNHC3H3CH4C3FeCHCH5CH2CH6CH4NHCHCHC3NH3C3HC2HC5H2CH4C3H2CH3CHCH4CH2SHCH5SHSH4CHCHFeS2FeSCSH3FeCSCFeH2CH2CSCHC3SFeS2FeSFeS3FeS2FeS2FeSFeS3FeS2FeS2FeSFeS3C4H2CH4C6H4C6H4C6H4C5H4CHC3SH3CSC6H5C2NH2C7H4C6H4NHSHCHC2FeC2HCH4FeCH10SCH4CHCHCHNC3HNC2H2NC9H14C4HCH2C5HCSHCHSC2H5CH2C2H3C2H3C2NC6HCH16CHSCHCH6CH2CHCH3C2HCH2SHCH5CFeH2C4H2CHC2HC2NH2NC6HCH2CSC5H2CHCNHC2H2C2H7CHCFeH2CHSFeS2FeSFeS2FeS2FeS2FeSFeS3FeS2FeS2FeSFeS3HFeS2H3Fe2S2CHFeS2FeS2FeSFeS3CS2H3FeSCHSH3SC2H2C6H4C2H2C6H4C2NH2SC6H4C6H4CHC4H2C6H4C6H4C6H4C6H4C6H5C3H2CH2CH6C2HFeCSHCH6CNC9H14NC9H14FeH4CHNHSHNH2CH3CHCHCHFeNC2H2CH2C2H5SCH3C3HSC2NH3C4H3NC9H15CFeHC3SFeHSH2C2H2C3SH2CH2CHCH2CH2CHCHCHCH2CHSHCNC9H15CHC2HC2H2CHCHCH4C3HNHCHCHCHC4SCH2CHCSC2H2C5HCH2NHCNH4CHFeCHC4FeHCFeS2FeS2FeSFeS3HCFeS2FeS2FeHFeS3H2NFeS2FeS2FeSFeS3FeS2FeS2FeSFeCS2FeS2FeS2FeSFeS2FeS2HSFeSFeS3HC6H5C2H2C6H4C6H5C6H4C2H3C8H4C6H7CH5C7H4C6H4C6H4CHC4HCH2CHC3HC2HC2SHC2FeH2CH4CNH3CH3SHC4SHC2H3CNH3CHCH6C4H4NC9H16SH4C3SC4H4CH2CH3C2HC4HCH7C6H6NC4H2C3H2C2H6CH3NC9H14NC6H10NC8H11CH3NC4H2CNHC2HCHC2H2C3H2CH2SCH4CH4NHCH2CFeS2FeS2FeSFeS3HFeS2FeS2FeSFeCS2FeS2FeSHFeSFeS3FeS2FeSFeSFeS3FeS2FeSFeS3FeS2FeS2Fe2S3HNHC6H4C6H4C6H4C6H5CNC6H4C6H4CH3C7H4C6H4C6H4C2NCH2CH2SNC9H15CH5CH2C2H2NSHCH2NCHCHCH2CHCH2SCHCHC2HC3HNC7HCH14NC7HCH6NCH2CH3C2H2CH12C2HC2HCNCH3CHCH2CHCHCH2C3HC4FeCH6CHCHC4H2C3HC2HCH6C2H2CH2CH4CH5C2H2CNHC3HCSH2CNHCH2CHCH4C3HCHCHC2HCH3NHCH4SH2CHCH4CH7CH2CHCFeS2FeS2FeSFeS3FeS2FeS2FeSFeS4FeS2FeSFeS3CFeS2FeHFeS2FeSCHSCFeCSFeC2FeS2FeS2FeSFeS3C6H4C6H4CH2C6H5CH5C6H4C4HC8H4C6H4C6H4C6H4C6H4C5H2CH2CHC2H3C3H6CSHC2HCH3CH3CSH3C2H2CH5C2HC3H2CH5C3H2NC9H14NC6H10CH3CSH3CHCH2CNH3C3HSC2HCNHFeH3CHNC7H17CHNHCFeNCH4CHCHCHC2HSH3CH3C2HCHNH6CH2CH5C6H2NC9H2CSH2C3SHCHC2H2C2SHFeCH2SH5C2NCSHFeS2FeS2FeSFeS3FeS2FeS2FeSFeS3FeS2FeS2FeSFeS3HC3H2C4FeS2FeSHFeSFeS3FeS2FeS2FeSFeHS2FeS2FeS2FeSFeS3H5NHC2HC6H7CFeH3C6H4C6H10CH5CHCHC6H4C3H2C6H4C6H2C3H4C6H4C6H4C6H4C7H6C6H3C4SHCHCH2CH7CHNHN2C9H13CHCNC9H14NC9H14CH2C2H2FeHSH2NHC2HC2H4CH3SH5SCH4C2H3C2H3CH3SHCHCHCHNC9H14NC9H16CHCHCHNH2C3HCH2CH11CHCH2SCH2CNC9HCHC2H2C2H3CH2C2NC2NCNHC4FeCHCH2CHCHSHCH2C2H2CH2S2H3CH3CNHCHFeS2FeS2FeSFeS2FeS2FeS2FeSFeS3FeS2FeS2FeSFeS3HC2HFeS2C2FeS2CSCHC2FeSH2C2FeS2H4C6H4CH4CHC4H4C6H4C6H3C6H4C6H5C6H4C6H4C6H11NHCHC2HCHCH6C2H2NH3C3H4CHCHC2HCH4CH3CH3C2HN2C2H2C2H2CH2CHC2H4CNHSH3FeCFeH4SH2C2H4CNC2H2SNCFeCH5CH3CHCH3C3H2NC2NC9H11CH2CHCHC2HCH2CHSHCHC4HCH2C2HCNCHCHC2H2FeC3HCHCHC2HC2H4CHCH2CSHC3SH3CHSH3FeS2FeS2Fe2S3FeS2FeS2FeSFeS3FeS2FeSFeS3FeH2CFeS2CHFeS2H2FeS2HFeSCSHS2HS2FeS2FeS2FeSFeS3C6H4C6H5C2HC6H5SH4CH3C6H4C4H5C7H4C6H5C6H4C6H4C6H4C4HCH3C2H5CHCNC9H14NCH3CHC2H6C3HFeCSHFeH2FeH2CHC2H2C4HC2HC4HC3HSH2FeCH2CH3SHC2HC2HCH5CHC2NHNC3HSHC2NC9H14NC5H18CH4CHCHCHC2H6CNC9H14CHCH4NH3SNC2HCHNC9H9SHNHCH3NHCHSC2HC2H2FeC2HC2Fe2H2FeS2FeS2FeSFeS3FeS2FeS2FeSFeS3FeS2FeS2FeSFeS3FeHCFeS2FeS3FeS2FeS2Fe2S3FeS2FeS3CSCHC7H4C8H3CHCHC4H3C6H4C6H4C6H4C2H3CHCH2C6H4C6H4C6H4NCHC3H4SCH5C3H5CH4CHCH2C2H2NC2HCH3C3H3CH4CNH2CHC2H5SH2C3NC9H14NC6HCH12CH3CHC2HCH5CH5C2HCH2C2HCHCHCHNC3H2CHC2HCHFeH2CNHNH2C2HCH2C2H5CHCNCHCHC6HCH3CHC2H5NC6H2CH13CNCHC5HNHSCH2C3H2CH2CH8SHCHC2H3CH5CFeNC3H2CH4CH2CH2CH2CH2C4HCFeSFeS2FeSFeS3FeS3FeSFeS2FeS2FeSHFeSFeS3CHCHCH2CHFeS2FeS2FeSFeS3FeS2FeS2FeSFeS3FeS2FeS2FeSFeS3HSCH2C6H4C3H4C6H4CH2C3H5C5HCH2CH2CHC3HSCH2C6H4C6H4C6H4C6H4C6H4C6H8C2H3C2H2C4HSHCNH4C2H2CH2CHCHCHSH3C2SH2C4HNH4C2H2CH10C2HC2H5CHC2H5CH2CH2NH3NC9H14NC9H14CHSHCHCHNC2HC3HCHCHCH3CHCHCH2CH3CHCHCHCH3NHCFeHC3HCH2C2H3NC9H11C2HNC9H3NHCHCHCH4CH2C2HC5HC2HNCHCH2C3HFeS2FeSFeS3FeSHFeS2FeSFeS3FeS2FeS2FeSFeS3H5FeS2FeS2FeSFeS3FeCSHCSNHCH2SCH4FeHCHC2SC2HSH3SC6H4C6H8C7H4C7H3C6H4C6H4C6H4C6H4C6H4C6H6CHC2HSC2SC2H2C2NHCHC2HSCH2SHNC3H11C2H5NHCNH3CHCNCH2C2H2CHNC5H4NC9H14CNCSHCHSC2HC2HFeSC3H2CH4C2HCH5C4H3C2FeHCHCFeHC4H13CH2CHCNC9H15CN2C7H5CH2CH2CH4C3HC3FeCHSHSH2CH6C2H3CH3CH2NCHCH2S2H2SHCH5FeHC2SFeS2FeS2FeSFeS3FeS2FeS2FeSFeS3FeS2FeS2FeSFeS3HSC2HCH4FeS2FeSFeSFeS3FeS2FeS2Fe2S3FeS2FeS2FeSFeHS2H2C3HCHCH2C6H4C6H4C6H7C2H2C2H4C4H2CH2CH3CHC6H4C4H3C6H4C6H4CH4C6H4C6H4C6H4C4HCHSC5H3NC9HSH12NC9H14NHC8H4FeH4CH3C3H4CHSH2FeCNCHC5H8C4H5NC9HCH12NC9H15C3HCNH2CH4CH3C2HCH2C5H2C2H5CH3CHC2H4CHC2H2C4H2C3SHCNCH4CNHC2SCH5NH2FeHCSHNHC2H2FeSH2SCH2CH4CHCH4N2C5H4CH2NCHCH2C2HCH3C3HCH3SH2SC2H2CHC6HSC2HC2H3CHCHCH4CH3CH2FeS2FeSFeS3FeS2FeS2FeSFeS3FeS2FeS2FeSFeHS2FeS2FeS2FeSFeS3FeS2FeS2FeSFeS2FeS2FeS2FeSFeS2HC6H4C4H2C6H4C6H4C6H4C6H4C6H4CHC2H3C6H4C6H4CHC4HCH2C5H2CHCH2CH2CH2CHC2H2C2H2C2HC2HCH3C4HCH3C2H5C2HFeNC9H14CSH6SCH6CH6C2HNHC2H2CSH2CHC2HCH4CHCNHC2HC2NH2SCH2C3H3CHCH2NCH2CH3CNH2NH4NHC5HC2H9C2HNC3H3C2H4CH6NHCHC5HC2HCH2CH5CH3C3H5SC2HCHCH4C3H2CH3CHCH2C2NCHCH3CH3CH2C4HSHCFeS2FeS2FeSFeS2FeSFeS2FeSFeS3FeS2FeSFeSFeS3HFeS2FeS2FeSFeS3FeS2FeS2FeSFeS3FeS2FeS2FeSFeCS2NHC7H4C9H4C6H8SH3CHCNC6H4C6H4C6H4C2H2C6H4C6H4C6H3C2H4CH5C7H4CH5NCHNC2HCHC2H10C2H6C2H2SHNH2C2H2CH5NC9H16CHCHCNC9H14NC9H13NC9H15CHC3H3CH2C2H2CHCH9C2H2CHC2HC2H2C2SH4CH3C2H2CNH2NHCNH2CHNH3C7HCHC2HCHCH2NCH4C3HC3H4CHCN
_chemical_formula_sum              "S1536 H6912 C5760 Fe768 N384"
_cell_length_a       104.153
_cell_length_b       104.945
_cell_length_c       104.987
_cell_angle_alpha    74.0086
_cell_angle_beta     73.6301
_cell_angle_gamma    73.6755

_space_group_name_H-M_alt    "P 1"
_space_group_IT_number       1

loop_
  _space_group_symop_operation_xyz
  'x, y, z'

loop_
  _atom_site_type_symbol
  _atom_site_label
  _atom_site_symmetry_multiplicity
  _atom_site_fract_x
  _atom_site_fract_y
  _atom_site_fract_z
  _atom_site_occupancy
  S   S1        1.0  0.39203  0.21612  0.22095  1.0000
  S   S2        1.0  0.37732  0.20451  0.20348  1.0000
  H   H1        1.0  0.27460  0.22557  0.15573  1.0000
  C   C1        1.0  0.37327  0.18942  0.17335  1.0000
  H   H2        1.0  0.48437  0.11646  0.18770  1.0000
  C   C2        1.0  0.35684  0.22433  0.14362  1.0000
  Fe  Fe1       1.0  0.39601  0.21288  0.19976  1.0000
  S   S3        1.0  0.41662  0.20052  0.19122  1.0000
  H   H3        1.0  0.40261  0.07953  0.09242  1.0000
  C   C3        1.0  0.39173  0.13265  0.18745  1.0000
  N   N1        1.0  0.29924  0.10128  0.22761  1.0000
  C   C4        1.0  0.39236  0.16172  0.21919  1.0000
  C   C5        1.0  0.36058  0.19081  0.18255  1.0000
  S   S4        1.0  0.30725  0.21227  0.11707  1.0000
  Fe  Fe2       1.0  0.34026  0.21691  0.12405  1.0000
  S   S5        1.0  0.34033  0.19869  0.11673  1.0000
  C   C6        1.0  0.35574  0.02216  0.17397  1.0000
  Fe  Fe3       1.0  0.32766  0.21372  0.10276  1.0000
  S   S6        1.0  0.33279  0.21216  0.08085  1.0000
  Fe  Fe4       1.0  0.32005  0.19849  0.13154  1.0000
  S   S7        1.0  0.31288  0.18062  0.14637  1.0000
  H   H4        1.0  0.40012  0.17826  0.20471  1.0000
  C   C7        1.0  0.35860  0.99794  0.17648  1.0000
  C   C8        1.0  0.34123  0.98781  0.17365  1.0000
  H   H5        1.0  0.35583  0.16261  0.22529  1.0000
  H   H6        1.0  0.36273  0.19173  0.14489  1.0000
  S   S8        1.0  0.33038  0.12498  0.20892  1.0000
  C   C9        1.0  0.36214  0.19133  0.15546  1.0000
  Fe  Fe5       1.0  0.34592  0.13777  0.20359  1.0000
  S   S9        1.0  0.35561  0.14745  0.18242  1.0000
  S   S10       1.0  0.36017  0.12270  0.21599  1.0000
  H   H7        1.0  0.38389  0.18833  0.15271  1.0000
  Fe  Fe6       1.0  0.36012  0.05816  0.16311  1.0000
  S   S11       1.0  0.38119  0.04451  0.15985  1.0000
  S   S12       1.0  0.34623  0.05617  0.18395  1.0000
  Fe  Fe7       1.0  0.36203  0.06950  0.13305  1.0000
  S   S13       1.0  0.38301  0.05673  0.12748  1.0000
  S   S14       1.0  0.35094  0.08453  0.11773  1.0000
  Fe  Fe8       1.0  0.37488  0.03978  0.14314  1.0000
  S   S15       1.0  0.38118  0.01847  0.13904  1.0000
  Fe  Fe9       1.0  0.38716  0.06280  0.14459  1.0000
  S   S16       1.0  0.40706  0.06971  0.13889  1.0000
  S   S17       1.0  0.35343  0.05217  0.14741  1.0000
  S   S18       1.0  0.36658  0.07681  0.14914  1.0000
  Fe  Fe10      1.0  0.35940  0.14533  0.05681  1.0000
  S   S19       1.0  0.37124  0.15877  0.03999  1.0000
  S   S20       1.0  0.34173  0.15230  0.07328  1.0000
  Fe  Fe11      1.0  0.37855  0.11961  0.04903  1.0000
  S   S21       1.0  0.39217  0.13104  0.03168  1.0000
  S   S22       1.0  0.38293  0.09698  0.05646  1.0000
  Fe  Fe12      1.0  0.38985  0.14423  0.04633  1.0000
  S   S23       1.0  0.40655  0.15242  0.04944  1.0000
  Fe  Fe13      1.0  0.37214  0.14433  0.02711  1.0000
  S   S24       1.0  0.36602  0.15313  0.00672  1.0000
  S   S25       1.0  0.37782  0.13160  0.06384  1.0000
  S   S26       1.0  0.35872  0.13200  0.04368  1.0000
  Fe  Fe14      1.0  0.42769  0.15690  0.13905  1.0000
  S   S27       1.0  0.44166  0.14145  0.15155  1.0000
  S   S28       1.0  0.41442  0.17711  0.14273  1.0000
  Fe  Fe15      1.0  0.43107  0.13835  0.11953  1.0000
  S   S29       1.0  0.44594  0.12190  0.13012  1.0000
  S   S30       1.0  0.41883  0.13245  0.10830  1.0000
  Fe  Fe16      1.0  0.43124  0.12615  0.14939  1.0000
  S   S31       1.0  0.42018  0.11100  0.16530  1.0000
  Fe  Fe17      1.0  0.45509  0.13861  0.13109  1.0000
  S   S32       1.0  0.41623  0.14204  0.13884  1.0000
  S   S33       1.0  0.44138  0.15491  0.11861  1.0000
  C   C10       1.0  0.48986  0.11072  0.15627  1.0000
  C   C11       1.0  0.36705  0.14271  0.99554  1.0000
  H   H8        1.0  0.41038  0.10896  0.05138  1.0000
  H   H9        1.0  0.40788  0.10997  0.10930  1.0000
  H   H10       1.0  0.39741  0.12420  0.19425  1.0000
  C   C12       1.0  0.37534  0.12130  0.98800  1.0000
  C   C13       1.0  0.37386  0.12902  0.99760  1.0000
  H   H11       1.0  0.44925  0.19597  0.16904  1.0000
  H   H12       1.0  0.37828  0.12446  0.00642  1.0000
  C   C14       1.0  0.40959  0.14818  0.06600  1.0000
  C   C15       1.0  0.40036  0.14246  0.07707  1.0000
  C   C16       1.0  0.40330  0.13807  0.08996  1.0000
  C   C17       1.0  0.41533  0.13971  0.09211  1.0000
  C   C18       1.0  0.42428  0.14622  0.08130  1.0000
  C   C19       1.0  0.42142  0.15041  0.06822  1.0000
  H   H13       1.0  0.39094  0.14133  0.07575  1.0000
  H   H14       1.0  0.39627  0.13324  0.09831  1.0000
  H   H15       1.0  0.43363  0.14751  0.08288  1.0000
  H   H16       1.0  0.42857  0.15499  0.05973  1.0000
  C   C20       1.0  0.41025  0.08097  0.14679  1.0000
  C   C21       1.0  0.40195  0.08421  0.15903  1.0000
  C   C22       1.0  0.40514  0.09324  0.16488  1.0000
  C   C23       1.0  0.41642  0.09927  0.15833  1.0000
  C   C24       1.0  0.42457  0.09602  0.14611  1.0000
  C   C25       1.0  0.42161  0.08683  0.14046  1.0000
  H   H17       1.0  0.39328  0.07956  0.16412  1.0000
  H   H18       1.0  0.39886  0.09554  0.17445  1.0000
  H   H19       1.0  0.43348  0.10022  0.14116  1.0000
  H   H20       1.0  0.42827  0.08416  0.13118  1.0000
  C   C26       1.0  0.36021  0.08789  0.10083  1.0000
  C   C27       1.0  0.35536  0.09984  0.09198  1.0000
  C   C28       1.0  0.36236  0.10265  0.07836  1.0000
  C   C29       1.0  0.37402  0.09333  0.07343  1.0000
  C   C30       1.0  0.37880  0.08129  0.08222  1.0000
  C   C31       1.0  0.37205  0.07870  0.09597  1.0000
  H   H21       1.0  0.34618  0.10697  0.09564  1.0000
  H   H22       1.0  0.35856  0.11194  0.07161  1.0000
  H   H23       1.0  0.38778  0.07405  0.07840  1.0000
  H   H24       1.0  0.37579  0.06944  0.10265  1.0000
  H   H25       1.0  0.47307  0.14634  0.14979  1.0000
  H   H26       1.0  0.47232  0.11230  0.17287  1.0000
  C   C32       1.0  0.34800  0.00514  0.13868  1.0000
  C   C33       1.0  0.35609  0.01314  0.14019  1.0000
  C   C34       1.0  0.37040  0.00879  0.13754  1.0000
  H   H27       1.0  0.41618  0.15121  0.17469  1.0000
  C   C35       1.0  0.48379  0.14551  0.14483  1.0000
  H   H28       1.0  0.33694  0.00852  0.14078  1.0000
  H   H29       1.0  0.35120  0.02260  0.14344  1.0000
  H   H30       1.0  0.48654  0.17848  0.13258  1.0000
  C   C36       1.0  0.34671  0.08012  0.21418  1.0000
  C   C37       1.0  0.35098  0.08528  0.20022  1.0000
  C   C38       1.0  0.35112  0.07797  0.19070  1.0000
  C   C39       1.0  0.34657  0.06575  0.19519  1.0000
  C   C40       1.0  0.34188  0.06096  0.20909  1.0000
  C   C41       1.0  0.38884  0.14937  0.22105  1.0000
  H   H31       1.0  0.35458  0.09464  0.19682  1.0000
  H   H32       1.0  0.35467  0.08177  0.17996  1.0000
  H   H33       1.0  0.33834  0.05157  0.21262  1.0000
  H   H34       1.0  0.41351  0.13798  0.16878  1.0000
  C   C42       1.0  0.33559  0.19543  0.07891  1.0000
  C   C43       1.0  0.33175  0.18520  0.08998  1.0000
  C   C44       1.0  0.33381  0.17194  0.08819  1.0000
  C   C45       1.0  0.33997  0.16879  0.07539  1.0000
  C   C46       1.0  0.34405  0.17898  0.06438  1.0000
  C   C47       1.0  0.34176  0.19229  0.06612  1.0000
  H   H35       1.0  0.32690  0.18756  0.09987  1.0000
  H   H36       1.0  0.33054  0.16412  0.09672  1.0000
  H   H37       1.0  0.34858  0.17674  0.05444  1.0000
  H   H38       1.0  0.34466  0.20020  0.05751  1.0000
  C   C48       1.0  0.32482  0.17114  0.15622  1.0000
  C   C49       1.0  0.32040  0.16330  0.16907  1.0000
  C   C50       1.0  0.32979  0.15605  0.17725  1.0000
  C   C51       1.0  0.34367  0.15640  0.17243  1.0000
  C   C52       1.0  0.34813  0.16406  0.15951  1.0000
  C   C53       1.0  0.33869  0.17154  0.15146  1.0000
  H   H39       1.0  0.30966  0.16298  0.17278  1.0000
  H   H40       1.0  0.32628  0.15018  0.18723  1.0000
  H   H41       1.0  0.35885  0.16439  0.15580  1.0000
  H   H42       1.0  0.34217  0.17755  0.14155  1.0000
  C   C54       1.0  0.41628  0.19408  0.17762  1.0000
  C   C55       1.0  0.40677  0.20085  0.16956  1.0000
  C   C56       1.0  0.40663  0.19574  0.15861  1.0000
  C   C57       1.0  0.41562  0.18357  0.15599  1.0000
  C   C58       1.0  0.42522  0.17679  0.16400  1.0000
  C   C59       1.0  0.42561  0.18212  0.17475  1.0000
  H   H43       1.0  0.39965  0.21016  0.17164  1.0000
  H   H44       1.0  0.39945  0.20126  0.15223  1.0000
  H   H45       1.0  0.43236  0.16752  0.16190  1.0000
  H   H46       1.0  0.43301  0.17688  0.18098  1.0000
  C   C60       1.0  0.36279  0.11651  0.12939  1.0000
  C   C61       1.0  0.32300  0.19555  0.18247  1.0000
  H   H47       1.0  0.41751  0.13433  0.18510  1.0000
  H   H48       1.0  0.37864  0.15927  0.17908  1.0000
  H   H49       1.0  0.38174  0.00902  0.16746  1.0000
  C   C62       1.0  0.27185  0.22098  0.14915  1.0000
  H   H50       1.0  0.34436  0.02429  0.17627  1.0000
  C   C63       1.0  0.34364  0.22881  0.15101  1.0000
  C   C64       1.0  0.26696  0.20783  0.13177  1.0000
  C   C65       1.0  0.45409  0.19149  0.14913  1.0000
  C   C66       1.0  0.36819  0.22287  0.14901  1.0000
  H   H51       1.0  0.40240  0.16915  0.18499  1.0000
  H   H52       1.0  0.35895  0.18572  0.22399  1.0000
  C   C67       1.0  0.41166  0.14211  0.17796  1.0000
  H   H53       1.0  0.38228  0.99777  0.18393  1.0000
  H   H54       1.0  0.34494  0.00910  0.19861  1.0000
  C   C68       1.0  0.46441  0.18642  0.13843  1.0000
  C   C69       1.0  0.36954  0.13525  0.14915  1.0000
  C   C70       1.0  0.39721  0.16871  0.20613  1.0000
  H   H55       1.0  0.47961  0.19215  0.11270  1.0000
  H   H56       1.0  0.39974  0.09777  0.07383  1.0000
  H   H57       1.0  0.49176  0.17972  0.15330  1.0000
  H   H58       1.0  0.47806  0.16836  0.12168  1.0000
  C   C71       1.0  0.28000  0.20826  0.14725  1.0000
  H   H59       1.0  0.35813  0.13685  0.15186  1.0000
  C   C72       1.0  0.42908  0.11536  0.06972  1.0000
  Fe  Fe18      1.0  0.37253  0.20943  0.22397  1.0000
  C   C73       1.0  0.41178  0.10294  0.08487  1.0000
  C   C74       1.0  0.36626  0.22536  0.16201  1.0000
  H   H60       1.0  0.28847  0.20354  0.15230  1.0000
  H   H61       1.0  0.36086  0.10766  0.13717  1.0000
  H   H62       1.0  0.33893  0.06391  0.22929  1.0000
  C   C75       1.0  0.41394  0.10899  0.06014  1.0000
  S   S34       1.0  0.36069  0.23046  0.21756  1.0000
  C   C76       1.0  0.34821  0.19264  0.17841  1.0000
  C   C77       1.0  0.42445  0.11548  0.05846  1.0000
  H   H63       1.0  0.32387  0.18697  0.17772  1.0000
  H   H64       1.0  0.34053  0.20371  0.20082  1.0000
  H   H65       1.0  0.41794  0.07714  0.09823  1.0000
  C   C78       1.0  0.36838  0.98827  0.13220  1.0000
  S   S35       1.0  0.32123  0.21513  0.14022  1.0000
  H   H66       1.0  0.39315  0.12882  0.17813  1.0000
  C   C79       1.0  0.42293  0.10916  0.08277  1.0000
  H   H67       1.0  0.35839  0.03036  0.17690  1.0000
  H   H68       1.0  0.48848  0.15317  0.15967  1.0000
  C   C80       1.0  0.38956  0.10285  0.10048  1.0000
  S   S36       1.0  0.34984  0.23277  0.18572  1.0000
  H   H69       1.0  0.37779  0.10979  0.16204  1.0000
  H   H70       1.0  0.35136  0.11219  0.11744  1.0000
  H   H71       1.0  0.38088  0.11080  0.98955  1.0000
  H   H72       1.0  0.26523  0.20275  0.12491  1.0000
  H   H73       1.0  0.39700  0.14987  0.98854  1.0000
  H   H74       1.0  0.42005  0.09381  0.10970  1.0000
  H   H75       1.0  0.37909  0.01579  0.18202  1.0000
  H   H76       1.0  0.43722  0.12049  0.06839  1.0000
  C   C81       1.0  0.39846  0.16341  0.19489  1.0000
  S   S37       1.0  0.47826  0.13641  0.12483  1.0000
  S   S38       1.0  0.35920  0.22030  0.12779  1.0000
  H   H77       1.0  0.28409  0.19191  0.13708  1.0000
  H   H78       1.0  0.36040  0.99698  0.20167  1.0000
  C   C82       1.0  0.39490  0.15089  0.19639  1.0000
  C   C83       1.0  0.46825  0.19503  0.11411  1.0000
  H   H79       1.0  0.37820  0.10164  0.14905  1.0000
  C   C84       1.0  0.35723  0.11900  0.11803  1.0000
  N   N2        1.0  0.37866  0.18683  0.08083  1.0000
  C   C85       1.0  0.37183  0.17595  0.08148  1.0000
  C   C86       1.0  0.36870  0.20003  0.07838  1.0000
  C   C87       1.0  0.39047  0.18693  0.06893  1.0000
  C   C88       1.0  0.38348  0.18416  0.09351  1.0000
  C   C89       1.0  0.37844  0.19302  0.10280  1.0000
  C   C90       1.0  0.39350  0.17227  0.09694  1.0000
  C   C91       1.0  0.38325  0.19001  0.11471  1.0000
  C   C92       1.0  0.39818  0.16934  0.10889  1.0000
  C   C93       1.0  0.39304  0.17819  0.11777  1.0000
  H   H80       1.0  0.36275  0.17561  0.09017  1.0000
  H   H81       1.0  0.36820  0.17753  0.07204  1.0000
  H   H82       1.0  0.37885  0.16575  0.08257  1.0000
  H   H83       1.0  0.35927  0.20041  0.08667  1.0000
  H   H84       1.0  0.36515  0.20177  0.06885  1.0000
  H   H85       1.0  0.37324  0.20874  0.07746  1.0000
  H   H86       1.0  0.39760  0.17679  0.06899  1.0000
  H   H87       1.0  0.38708  0.18970  0.05917  1.0000
  H   H88       1.0  0.39649  0.19430  0.06858  1.0000
  H   H89       1.0  0.37083  0.20237  0.10116  1.0000
  H   H90       1.0  0.39785  0.16519  0.09032  1.0000
  H   H91       1.0  0.37943  0.19698  0.12157  1.0000
  H   H92       1.0  0.40595  0.16022  0.11120  1.0000
  H   H93       1.0  0.39673  0.17595  0.12699  1.0000
  H   H94       1.0  0.34058  0.19469  0.16026  1.0000
  H   H95       1.0  0.33799  0.17169  0.19396  1.0000
  C   C94       1.0  0.38955  0.15546  0.17425  1.0000
  H   H96       1.0  0.38490  0.10085  0.09315  1.0000
  H   H97       1.0  0.31318  0.19620  0.19026  1.0000
  C   C95       1.0  0.44654  0.18938  0.12579  1.0000
  H   H98       1.0  0.32254  0.20562  0.20303  1.0000
  H   H99       1.0  0.42892  0.12072  0.04844  1.0000
  H   H100      1.0  0.32547  0.18034  0.20631  1.0000
  H   H101      1.0  0.38746  0.11407  0.09915  1.0000
  C   C96       1.0  0.33545  0.18054  0.19884  1.0000
  N   N3        1.0  0.39684  0.14530  0.18431  1.0000
  N   N4        1.0  0.33495  0.19342  0.18849  1.0000
  C   C97       1.0  0.35409  0.99262  0.13478  1.0000
  H   H102      1.0  0.46596  0.19503  0.10437  1.0000
  H   H103      1.0  0.34333  0.17880  0.20479  1.0000
  H   H104      1.0  0.32195  0.20519  0.17463  1.0000
  C   C98       1.0  0.40913  0.09899  0.10979  1.0000
  H   H105      1.0  0.44187  0.20012  0.12666  1.0000
  C   C99       1.0  0.33243  0.20478  0.19536  1.0000
  H   H106      1.0  0.33209  0.21464  0.18791  1.0000
  C   C100      1.0  0.40779  0.10271  0.07311  1.0000
  H   H107      1.0  0.38381  0.09861  0.11076  1.0000
  C   C101      1.0  0.48892  0.14071  0.13278  1.0000
  Fe  Fe19      1.0  0.34376  0.11079  0.22267  1.0000
  Fe  Fe20      1.0  0.31012  0.22919  0.12451  1.0000
  H   H108      1.0  0.37500  0.22387  0.16632  1.0000
  H   H109      1.0  0.30392  0.18225  0.08113  1.0000
  H   H110      1.0  0.40180  0.07697  0.11018  1.0000
  H   H111      1.0  0.46482  0.20564  0.11571  1.0000
  C   C102      1.0  0.40680  0.08199  0.09986  1.0000
  N   N5        1.0  0.46142  0.18567  0.12569  1.0000
  C   C103      1.0  0.29761  0.11283  0.21580  1.0000
  Fe  Fe21      1.0  0.36712  0.22630  0.19664  1.0000
  C   C104      1.0  0.38999  0.14400  0.20987  1.0000
  C   C105      1.0  0.37338  0.11103  0.15314  1.0000
  H   H112      1.0  0.39438  0.16433  0.16949  1.0000
  C   C106      1.0  0.46671  0.17164  0.12333  1.0000
  H   H113      1.0  0.38958  0.15111  0.16569  1.0000
  N   N6        1.0  0.40452  0.09685  0.09854  1.0000
  H   H114      1.0  0.35897  0.01491  0.19979  1.0000
  C   C107      1.0  0.35632  0.00729  0.19593  1.0000
  H   H115      1.0  0.44089  0.18265  0.13434  1.0000
  H   H116      1.0  0.40312  0.09476  0.11989  1.0000
  C   C108      1.0  0.34936  0.19308  0.16448  1.0000
  H   H117      1.0  0.46418  0.17052  0.11412  1.0000
  C   C109      1.0  0.34216  0.06797  0.21854  1.0000
  H   H118      1.0  0.30901  0.08770  0.21375  1.0000
  N   N7        1.0  0.36455  0.04076  0.10118  1.0000
  C   C110      1.0  0.35701  0.04527  0.11403  1.0000
  C   C111      1.0  0.36013  0.02851  0.10116  1.0000
  C   C112      1.0  0.37939  0.03690  0.10132  1.0000
  C   C113      1.0  0.36212  0.05130  0.08887  1.0000
  C   C114      1.0  0.36996  0.04940  0.07581  1.0000
  C   C115      1.0  0.35197  0.06361  0.08940  1.0000
  C   C116      1.0  0.36842  0.05955  0.06414  1.0000
  C   C117      1.0  0.35046  0.07365  0.07765  1.0000
  C   C118      1.0  0.35880  0.07172  0.06509  1.0000
  H   H119      1.0  0.34571  0.04687  0.11551  1.0000
  H   H120      1.0  0.35985  0.03763  0.12305  1.0000
  H   H121      1.0  0.35940  0.05485  0.11437  1.0000
  H   H122      1.0  0.34903  0.03092  0.10109  1.0000
  H   H123      1.0  0.36175  0.02033  0.11032  1.0000
  H   H124      1.0  0.36591  0.02409  0.09216  1.0000
  H   H125      1.0  0.38576  0.03161  0.09308  1.0000
  H   H126      1.0  0.38340  0.04597  0.10034  1.0000
  H   H127      1.0  0.38141  0.02968  0.11091  1.0000
  H   H128      1.0  0.37748  0.04010  0.07451  1.0000
  H   H129      1.0  0.34538  0.06600  0.09881  1.0000
  H   H130      1.0  0.37484  0.05809  0.05431  1.0000
  H   H131      1.0  0.34310  0.08321  0.07837  1.0000
  H   H132      1.0  0.35795  0.07975  0.05610  1.0000
  N   N8        1.0  0.37594  0.12340  0.14266  1.0000
  C   C119      1.0  0.39102  0.12222  0.13858  1.0000
  C   C120      1.0  0.37036  0.12537  0.13055  1.0000
  C   C121      1.0  0.37203  0.13672  0.11960  1.0000
  C   C122      1.0  0.36643  0.13907  0.10828  1.0000
  C   C123      1.0  0.35903  0.13024  0.10750  1.0000
  H   H133      1.0  0.37292  0.13391  0.15870  1.0000
  H   H134      1.0  0.39398  0.13137  0.13126  1.0000
  H   H135      1.0  0.39551  0.12080  0.14746  1.0000
  H   H136      1.0  0.39630  0.11334  0.13378  1.0000
  H   H137      1.0  0.37761  0.14393  0.11975  1.0000
  H   H138      1.0  0.36774  0.14782  0.10007  1.0000
  H   H139      1.0  0.35461  0.13216  0.09875  1.0000
  H   H140      1.0  0.37212  0.14483  0.14245  1.0000
  H   H141      1.0  0.38250  0.18835  0.17673  1.0000
  S   S39       1.0  0.33485  0.14976  0.21972  1.0000
  H   H142      1.0  0.36054  0.19044  0.19295  1.0000
  C   C124      1.0  0.37407  0.18947  0.15987  1.0000
  H   H143      1.0  0.38058  0.13438  0.19223  1.0000
  N   N9        1.0  0.32186  0.16667  0.04032  1.0000
  C   C125      1.0  0.31971  0.15304  0.04831  1.0000
  C   C126      1.0  0.31451  0.17056  0.02912  1.0000
  C   C127      1.0  0.33676  0.16526  0.03438  1.0000
  C   C128      1.0  0.31708  0.17728  0.04849  1.0000
  C   C129      1.0  0.31820  0.19089  0.04223  1.0000
  C   C130      1.0  0.31160  0.17449  0.06276  1.0000
  C   C131      1.0  0.31416  0.20102  0.04976  1.0000
  C   C132      1.0  0.30758  0.18471  0.07018  1.0000
  C   C133      1.0  0.30889  0.19792  0.06372  1.0000
  H   H144      1.0  0.32336  0.14532  0.04187  1.0000
  H   H145      1.0  0.32561  0.14912  0.05648  1.0000
  H   H146      1.0  0.30867  0.15326  0.05301  1.0000
  H   H147      1.0  0.30321  0.17233  0.03316  1.0000
  H   H148      1.0  0.31754  0.16251  0.02311  1.0000
  H   H149      1.0  0.31680  0.17994  0.02175  1.0000
  H   H150      1.0  0.34249  0.16262  0.04256  1.0000
  H   H151      1.0  0.34090  0.15714  0.02839  1.0000
  H   H152      1.0  0.33934  0.17470  0.02735  1.0000
  H   H153      1.0  0.32251  0.19374  0.03149  1.0000
  H   H154      1.0  0.31081  0.16439  0.06856  1.0000
  H   H155      1.0  0.31542  0.21127  0.04484  1.0000
  C   C134      1.0  0.47085  0.18793  0.16246  1.0000
  H   H156      1.0  0.30623  0.20569  0.06962  1.0000
  C   C135      1.0  0.27755  0.20168  0.13862  1.0000
  H   H157      1.0  0.36220  0.11147  0.15723  1.0000
  H   H158      1.0  0.42685  0.10975  0.09103  1.0000
  H   H159      1.0  0.40519  0.12813  0.98097  1.0000
  H   H160      1.0  0.46227  0.16419  0.13210  1.0000
  C   C136      1.0  0.34469  0.99753  0.17811  1.0000
  C   C137      1.0  0.37648  0.99634  0.13353  1.0000
  C   C138      1.0  0.37693  0.00765  0.17852  1.0000
  H   H161      1.0  0.35611  0.15904  0.98232  1.0000
  C   C139      1.0  0.47809  0.18236  0.14026  1.0000
  H   H162      1.0  0.33638  0.00489  0.18264  1.0000
  C   C140      1.0  0.49009  0.11503  0.17769  1.0000
  C   C141      1.0  0.34173  0.23169  0.16373  1.0000
  C   C142      1.0  0.48309  0.11259  0.16932  1.0000
  H   H163      1.0  0.44340  0.19500  0.14869  1.0000
  H   H164      1.0  0.37845  0.21944  0.14333  1.0000
  N   N10       1.0  0.36195  0.00850  0.18111  1.0000
  H   H165      1.0  0.44451  0.18825  0.11634  1.0000
  H   H166      1.0  0.48435  0.10919  0.14965  1.0000
  H   H167      1.0  0.38752  0.99286  0.13149  1.0000
  C   C143      1.0  0.25873  0.22056  0.13359  1.0000
  C   C144      1.0  0.36879  0.98793  0.17020  1.0000
  H   H168      1.0  0.35944  0.02331  0.16279  1.0000
  C   C145      1.0  0.45733  0.19216  0.16096  1.0000
  H   H169      1.0  0.38695  0.13445  0.21212  1.0000
  H   H170      1.0  0.30637  0.11153  0.20691  1.0000
  C   C146      1.0  0.48122  0.18308  0.15211  1.0000
  H   H171      1.0  0.37962  0.98761  0.16811  1.0000
  H   H172      1.0  0.39124  0.16591  0.22791  1.0000
  H   H173      1.0  0.33056  0.98790  0.17461  1.0000
  C   C147      1.0  0.36140  0.14847  0.98400  1.0000
  H   H174      1.0  0.32099  0.09993  0.22245  1.0000
  H   H175      1.0  0.28811  0.11386  0.21239  1.0000
  H   H176      1.0  0.47329  0.18843  0.17167  1.0000
  H   H177      1.0  0.29735  0.12261  0.21823  1.0000
  H   H178      1.0  0.25077  0.22501  0.12793  1.0000
  Fe  Fe22      1.0  0.32060  0.13540  0.22650  1.0000
  H   H179      1.0  0.33487  0.23022  0.14691  1.0000
  C   C148      1.0  0.35298  0.22972  0.16939  1.0000
  H   H180      1.0  0.23605  0.23241  0.15897  1.0000
  C   C149      1.0  0.26087  0.22751  0.14240  1.0000
  S   S40       1.0  0.32934  0.23210  0.10876  1.0000
  H   H181      1.0  0.29098  0.08833  0.22082  1.0000
  C   C150      1.0  0.49258  0.14930  0.15045  1.0000
  S   S41       1.0  0.34734  0.08804  0.22668  1.0000
  C   C151      1.0  0.30070  0.08863  0.22308  1.0000
  S   S42       1.0  0.38616  0.23450  0.19123  1.0000
  H   H182      1.0  0.49343  0.13169  0.19221  1.0000
  C   C152      1.0  0.14121  0.99924  0.34620  1.0000
  C   C153      1.0  0.14481  0.23257  0.39310  1.0000
  H   H183      1.0  0.05884  0.22570  0.37605  1.0000
  Fe  Fe23      1.0  0.23664  0.22519  0.35320  1.0000
  S   S43       1.0  0.21711  0.21795  0.36189  1.0000
  S   S44       1.0  0.25049  0.21927  0.33401  1.0000
  H   H184      1.0  0.27730  0.08516  0.27228  1.0000
  H   H185      1.0  0.30380  0.14971  0.31223  1.0000
  Fe  Fe24      1.0  0.22150  0.21632  0.38202  1.0000
  S   S45       1.0  0.21834  0.19682  0.39707  1.0000
  H   H186      1.0  0.37988  0.23052  0.27676  1.0000
  S   S46       1.0  0.24213  0.22197  0.37324  1.0000
  Fe  Fe25      1.0  0.24220  0.15341  0.32125  1.0000
  S   S47       1.0  0.21972  0.16063  0.32180  1.0000
  S   S48       1.0  0.25290  0.15815  0.33466  1.0000
  Fe  Fe26      1.0  0.24677  0.13551  0.30146  1.0000
  S   S49       1.0  0.22458  0.14089  0.30027  1.0000
  S   S50       1.0  0.26409  0.12068  0.29120  1.0000
  Fe  Fe27      1.0  0.22608  0.16205  0.29935  1.0000
  S   S51       1.0  0.21631  0.17952  0.28495  1.0000
  Fe  Fe28      1.0  0.21983  0.13894  0.32288  1.0000
  S   S52       1.0  0.20200  0.13142  0.33836  1.0000
  S   S53       1.0  0.24863  0.15694  0.29858  1.0000
  S   S54       1.0  0.24190  0.13150  0.32428  1.0000
  S   S55       1.0  0.13318  0.22954  0.33489  1.0000
  H   H187      1.0  0.16302  0.21069  0.28181  1.0000
  H   H188      1.0  0.28951  0.14244  0.32188  1.0000
  Fe  Fe29      1.0  0.12128  0.21621  0.33195  1.0000
  H   H189      1.0  0.19283  0.20326  0.33737  1.0000
  S   S56       1.0  0.10124  0.21349  0.34622  1.0000
  Fe  Fe30      1.0  0.15007  0.21089  0.33566  1.0000
  C   C154      1.0  0.36224  0.17101  0.25642  1.0000
  H   H190      1.0  0.22546  0.06411  0.37780  1.0000
  H   H191      1.0  0.21487  0.09770  0.35744  1.0000
  Fe  Fe31      1.0  0.14483  0.20352  0.31196  1.0000
  S   S57       1.0  0.15215  0.18782  0.29928  1.0000
  C   C155      1.0  0.35936  0.21917  0.27242  1.0000
  S   S58       1.0  0.13767  0.19728  0.33438  1.0000
  Fe  Fe32      1.0  0.16744  0.07247  0.34790  1.0000
  S   S59       1.0  0.16862  0.05692  0.36738  1.0000
  S   S60       1.0  0.18627  0.07906  0.33355  1.0000
  Fe  Fe33      1.0  0.13671  0.07654  0.35322  1.0000
  S   S61       1.0  0.13543  0.06170  0.37328  1.0000
  S   S62       1.0  0.11865  0.08873  0.34431  1.0000
  Fe  Fe34      1.0  0.15042  0.07169  0.37648  1.0000
  S   S63       1.0  0.14785  0.07754  0.39644  1.0000
  Fe  Fe35      1.0  0.15358  0.04837  0.36213  1.0000
  S   S64       1.0  0.15493  0.02544  0.36662  1.0000
  S   S65       1.0  0.15007  0.08760  0.35730  1.0000
  S   S66       1.0  0.15397  0.06276  0.34180  1.0000
  Fe  Fe36      1.0  0.05942  0.13438  0.37882  1.0000
  S   S67       1.0  0.04131  0.14704  0.39074  1.0000
  S   S68       1.0  0.06747  0.11227  0.38689  1.0000
  Fe  Fe37      1.0  0.06601  0.15821  0.35657  1.0000
  S   S69       1.0  0.04839  0.17269  0.36647  1.0000
  S   S70       1.0  0.08101  0.16568  0.33775  1.0000
  Fe  Fe38      1.0  0.05534  0.16149  0.38573  1.0000
  S   S71       1.0  0.05660  0.17395  0.39968  1.0000
  Fe  Fe39      1.0  0.03607  0.15695  0.37032  1.0000
  S   S72       1.0  0.01471  0.16506  0.36567  1.0000
  S   S73       1.0  0.07368  0.14804  0.37552  1.0000
  S   S74       1.0  0.05334  0.14327  0.35871  1.0000
  Fe  Fe40      1.0  0.15041  0.17052  0.42060  1.0000
  S   S75       1.0  0.15662  0.19067  0.41284  1.0000
  Fe  Fe41      1.0  0.15144  0.14318  0.41540  1.0000
  S   S76       1.0  0.16065  0.13295  0.39747  1.0000
  Fe  Fe42      1.0  0.12454  0.15899  0.42936  1.0000
  S   S77       1.0  0.10137  0.16470  0.43402  1.0000
  S   S78       1.0  0.13877  0.16413  0.40930  1.0000
  C   C156      1.0  0.20793  0.09638  0.36729  1.0000
  C   C157      1.0  0.06985  0.17063  0.40849  1.0000
  C   C158      1.0  0.06672  0.17638  0.41983  1.0000
  C   C159      1.0  0.07657  0.17441  0.42732  1.0000
  C   C160      1.0  0.08991  0.16695  0.42345  1.0000
  C   C161      1.0  0.09332  0.16131  0.41189  1.0000
  C   C162      1.0  0.08323  0.16306  0.40446  1.0000
  H   H192      1.0  0.05649  0.18226  0.42301  1.0000
  H   H193      1.0  0.07378  0.17876  0.43621  1.0000
  H   H194      1.0  0.10358  0.15547  0.40884  1.0000
  H   H195      1.0  0.08582  0.15870  0.39560  1.0000
  H   H196      1.0  0.19007  0.11596  0.39035  1.0000
  C   C163      1.0  0.15009  0.01551  0.35818  1.0000
  C   C164      1.0  0.14565  0.02107  0.34601  1.0000
  H   H197      1.0  0.27676  0.14095  0.29344  1.0000
  H   H198      1.0  0.14575  0.03155  0.34110  1.0000
  H   H199      1.0  0.00058  0.15197  0.39728  1.0000
  C   C165      1.0  0.15166  0.09286  0.39662  1.0000
  C   C166      1.0  0.15699  0.10135  0.38463  1.0000
  C   C167      1.0  0.15956  0.11367  0.38504  1.0000
  C   C168      1.0  0.15686  0.11759  0.39745  1.0000
  C   C169      1.0  0.15159  0.10910  0.40948  1.0000
  C   C170      1.0  0.14906  0.09673  0.40906  1.0000
  H   H200      1.0  0.15923  0.09841  0.37504  1.0000
  H   H201      1.0  0.16375  0.12013  0.37572  1.0000
  H   H202      1.0  0.14960  0.11196  0.41911  1.0000
  H   H203      1.0  0.14500  0.09018  0.41840  1.0000
  C   C171      1.0  0.10447  0.09517  0.35622  1.0000
  C   C172      1.0  0.10335  0.08974  0.37013  1.0000
  C   C173      1.0  0.09170  0.09467  0.37950  1.0000
  C   C174      1.0  0.08143  0.10546  0.37501  1.0000
  C   C175      1.0  0.08273  0.11111  0.36112  1.0000
  C   C176      1.0  0.09410  0.10579  0.35172  1.0000
  H   H204      1.0  0.11136  0.08168  0.37372  1.0000
  H   H205      1.0  0.09077  0.09035  0.39026  1.0000
  H   H206      1.0  0.07484  0.11941  0.35757  1.0000
  H   H207      1.0  0.09489  0.10998  0.34095  1.0000
  C   C177      1.0  0.00384  0.15511  0.36479  1.0000
  C   C178      1.0  0.00711  0.14090  0.36826  1.0000
  C   C179      1.0  0.15764  0.18864  0.45507  1.0000
  H   H208      1.0  0.01660  0.13568  0.37147  1.0000
  H   H209      1.0  0.17762  0.14075  0.37005  1.0000
  C   C180      1.0  0.09690  0.19927  0.34419  1.0000
  C   C181      1.0  0.10133  0.19532  0.33168  1.0000
  C   C182      1.0  0.09658  0.18486  0.32976  1.0000
  C   C183      1.0  0.08746  0.17831  0.34036  1.0000
  C   C184      1.0  0.08365  0.18179  0.35306  1.0000
  C   C185      1.0  0.08843  0.19219  0.35499  1.0000
  H   H210      1.0  0.10799  0.20066  0.32332  1.0000
  H   H211      1.0  0.09970  0.18207  0.31998  1.0000
  H   H212      1.0  0.07697  0.17651  0.36142  1.0000
  H   H213      1.0  0.08552  0.19478  0.36484  1.0000
  C   C186      1.0  0.19752  0.11714  0.33656  1.0000
  C   C187      1.0  0.20449  0.11069  0.32576  1.0000
  C   C188      1.0  0.20070  0.09923  0.32471  1.0000
  C   C189      1.0  0.18991  0.09420  0.33441  1.0000
  C   C190      1.0  0.18284  0.10081  0.34509  1.0000
  C   C191      1.0  0.18669  0.11217  0.34621  1.0000
  H   H214      1.0  0.21287  0.11445  0.31827  1.0000
  H   H215      1.0  0.20626  0.09414  0.31645  1.0000
  H   H216      1.0  0.17467  0.09695  0.35272  1.0000
  H   H217      1.0  0.18137  0.11703  0.35467  1.0000
  C   C192      1.0  0.19864  0.18043  0.28945  1.0000
  C   C193      1.0  0.19190  0.17989  0.27989  1.0000
  C   C194      1.0  0.17762  0.18140  0.28320  1.0000
  C   C195      1.0  0.17008  0.18386  0.29593  1.0000
  C   C196      1.0  0.17686  0.18404  0.30562  1.0000
  C   C197      1.0  0.19117  0.18212  0.30245  1.0000
  H   H218      1.0  0.19771  0.17844  0.26988  1.0000
  H   H219      1.0  0.17238  0.18127  0.27569  1.0000
  H   H220      1.0  0.17106  0.18583  0.31551  1.0000
  H   H221      1.0  0.19636  0.18249  0.30988  1.0000
  C   C198      1.0  0.27362  0.12751  0.27524  1.0000
  C   C199      1.0  0.28701  0.12054  0.27049  1.0000
  C   C200      1.0  0.29463  0.12549  0.25758  1.0000
  C   C201      1.0  0.28879  0.13729  0.24920  1.0000
  C   C202      1.0  0.27545  0.14437  0.25404  1.0000
  C   C203      1.0  0.26794  0.13960  0.26710  1.0000
  H   H222      1.0  0.29148  0.11120  0.27676  1.0000
  H   H223      1.0  0.30489  0.11998  0.25409  1.0000
  H   H224      1.0  0.27087  0.15354  0.24764  1.0000
  H   H225      1.0  0.25760  0.14504  0.27067  1.0000
  C   C204      1.0  0.20129  0.19488  0.40119  1.0000
  C   C205      1.0  0.19830  0.18198  0.40671  1.0000
  C   C206      1.0  0.18468  0.18041  0.40995  1.0000
  C   C207      1.0  0.17398  0.19182  0.40801  1.0000
  C   C208      1.0  0.17704  0.20466  0.40241  1.0000
  C   C209      1.0  0.19063  0.20618  0.39893  1.0000
  H   H226      1.0  0.20656  0.17318  0.40836  1.0000
  H   H227      1.0  0.18252  0.17042  0.41402  1.0000
  H   H228      1.0  0.16888  0.21351  0.40075  1.0000
  H   H229      1.0  0.19283  0.21616  0.39473  1.0000
  H   H230      1.0  0.27638  0.16457  0.29262  1.0000
  C   C210      1.0  0.17995  0.22526  0.36532  1.0000
  C   C211      1.0  0.17393  0.21514  0.36468  1.0000
  H   H231      1.0  0.09778  0.06925  0.35277  1.0000
  H   H232      1.0  0.21290  0.22989  0.32509  1.0000
  H   H233      1.0  0.18541  0.22358  0.37319  1.0000
  H   H234      1.0  0.17462  0.20576  0.37221  1.0000
  C   C212      1.0  0.25191  0.17528  0.33419  1.0000
  C   C213      1.0  0.25341  0.18483  0.32188  1.0000
  C   C214      1.0  0.25333  0.19828  0.32182  1.0000
  C   C215      1.0  0.25126  0.20229  0.33408  1.0000
  C   C216      1.0  0.24941  0.19281  0.34636  1.0000
  C   C217      1.0  0.25008  0.17926  0.34638  1.0000
  H   H235      1.0  0.25486  0.18183  0.31243  1.0000
  H   H236      1.0  0.25469  0.20563  0.31230  1.0000
  H   H237      1.0  0.24780  0.19582  0.35586  1.0000
  H   H238      1.0  0.24910  0.17188  0.35591  1.0000
  H   H239      1.0  0.12860  0.04305  0.35907  1.0000
  H   H240      1.0  0.10662  0.22194  0.39194  1.0000
  C   C218      1.0  0.21888  0.21974  0.32320  1.0000
  H   H241      1.0  0.13747  0.19550  0.39698  1.0000
  H   H242      1.0  0.16910  0.16366  0.38463  1.0000
  C   C219      1.0  0.06524  0.21630  0.34035  1.0000
  C   C220      1.0  0.36179  0.18099  0.24448  1.0000
  H   H243      1.0  0.20006  0.17189  0.44588  1.0000
  C   C221      1.0  0.18570  0.22956  0.29319  1.0000
  C   C222      1.0  0.17830  0.20268  0.43827  1.0000
  H   H244      1.0  0.15081  0.99826  0.29277  1.0000
  C   C223      1.0  0.20314  0.10771  0.37325  1.0000
  C   C224      1.0  0.05158  0.20369  0.37555  1.0000
  C   C225      1.0  0.17017  0.99007  0.32262  1.0000
  C   C226      1.0  0.17675  0.98718  0.33333  1.0000
  C   C227      1.0  0.19238  0.22975  0.31341  1.0000
  C   C228      1.0  0.21892  0.19725  0.32190  1.0000
  C   C229      1.0  0.18819  0.21009  0.43054  1.0000
  H   H245      1.0  0.32039  0.14105  0.29497  1.0000
  H   H246      1.0  0.28852  0.16850  0.29933  1.0000
  H   H247      1.0  0.13210  0.23345  0.36158  1.0000
  S   S79       1.0  0.12734  0.22155  0.30907  1.0000
  C   C230      1.0  0.99647  0.14152  0.30536  1.0000
  H   H248      1.0  0.19850  0.19216  0.37702  1.0000
  C   C231      1.0  0.28240  0.16088  0.30064  1.0000
  C   C232      1.0  0.21732  0.07402  0.35400  1.0000
  C   C233      1.0  0.35746  0.16501  0.23401  1.0000
  C   C234      1.0  0.21661  0.06081  0.37672  1.0000
  H   H249      1.0  0.09204  0.03874  0.34735  1.0000
  S   S80       1.0  0.13489  0.16755  0.44026  1.0000
  H   H250      1.0  0.12187  0.06041  0.35207  1.0000
  N   N11       1.0  0.21002  0.21077  0.32346  1.0000
  H   H251      1.0  0.10601  0.99639  0.36231  1.0000
  C   C235      1.0  0.20328  0.21118  0.30177  1.0000
  C   C236      1.0  0.18951  0.09516  0.39252  1.0000
  H   H252      1.0  0.00200  0.13078  0.30805  1.0000
  N   N12       1.0  0.15562  0.14696  0.32178  1.0000
  C   C237      1.0  0.16768  0.13705  0.32624  1.0000
  C   C238      1.0  0.15934  0.15113  0.30676  1.0000
  C   C239      1.0  0.15309  0.15899  0.32770  1.0000
  C   C240      1.0  0.14305  0.14148  0.32587  1.0000
  C   C241      1.0  0.13052  0.14995  0.32285  1.0000
  C   C242      1.0  0.14285  0.12773  0.33261  1.0000
  C   C243      1.0  0.11855  0.14500  0.32640  1.0000
  C   C244      1.0  0.13081  0.12290  0.33609  1.0000
  C   C245      1.0  0.11870  0.13151  0.33301  1.0000
  H   H253      1.0  0.17076  0.12800  0.32158  1.0000
  H   H254      1.0  0.17691  0.14154  0.32320  1.0000
  H   H255      1.0  0.16564  0.13359  0.33749  1.0000
  H   H256      1.0  0.16097  0.14245  0.30190  1.0000
  H   H257      1.0  0.16893  0.15506  0.30322  1.0000
  H   H258      1.0  0.15128  0.15943  0.30263  1.0000
  H   H259      1.0  0.16249  0.16309  0.32516  1.0000
  H   H260      1.0  0.14518  0.16758  0.32372  1.0000
  H   H261      1.0  0.14960  0.15643  0.33895  1.0000
  H   H262      1.0  0.12989  0.16047  0.31759  1.0000
  H   H263      1.0  0.15188  0.12042  0.33517  1.0000
  H   H264      1.0  0.10907  0.15168  0.32403  1.0000
  H   H265      1.0  0.13089  0.11233  0.34100  1.0000
  H   H266      1.0  0.10942  0.12770  0.33566  1.0000
  H   H267      1.0  0.20652  0.11703  0.36795  1.0000
  H   H268      1.0  0.03098  0.14854  0.33995  1.0000
  H   H269      1.0  0.12367  0.04758  0.34307  1.0000
  H   H270      1.0  0.11496  0.12526  0.46747  1.0000
  H   H271      1.0  0.18763  0.14311  0.38028  1.0000
  H   H272      1.0  0.21179  0.08221  0.34690  1.0000
  H   H273      1.0  0.11788  0.20353  0.37106  1.0000
  H   H274      1.0  0.07700  0.21445  0.32020  1.0000
  H   H275      1.0  0.15405  0.99719  0.37339  1.0000
  H   H276      1.0  0.04346  0.19435  0.33527  1.0000
  C   C246      1.0  0.11382  0.21190  0.39393  1.0000
  H   H277      1.0  0.12032  0.02444  0.37454  1.0000
  H   H278      1.0  0.12432  0.16299  0.37906  1.0000
  S   S81       1.0  0.16418  0.15003  0.42531  1.0000
  H   H279      1.0  0.10535  0.13345  0.36301  1.0000
  H   H280      1.0  0.11161  0.04467  0.38004  1.0000
  C   C247      1.0  0.19421  0.08377  0.38665  1.0000
  C   C248      1.0  0.16605  0.21895  0.27372  1.0000
  H   H281      1.0  0.09359  0.04853  0.38027  1.0000
  H   H282      1.0  0.02784  0.12677  0.33788  1.0000
  H   H283      1.0  0.18291  0.16243  0.44528  1.0000
  H   H284      1.0  0.30356  0.07933  0.23080  1.0000
  C   C249      1.0  0.12082  0.04986  0.35337  1.0000
  H   H285      1.0  0.17744  0.17508  0.34694  1.0000
  H   H286      1.0  0.14868  0.23240  0.40172  1.0000
  C   C250      1.0  0.20654  0.16280  0.35839  1.0000
  C   C251      1.0  0.13326  0.22225  0.38240  1.0000
  H   H287      1.0  0.12340  0.14038  0.39256  1.0000
  H   H288      1.0  0.15032  0.18238  0.46180  1.0000
  H   H289      1.0  0.27520  0.13655  0.31132  1.0000
  H   H290      1.0  0.34949  0.22271  0.27936  1.0000
  H   H291      1.0  0.09180  0.12817  0.39715  1.0000
  Fe  Fe43      1.0  0.14781  0.14654  0.44448  1.0000
  H   H292      1.0  0.36736  0.21488  0.27850  1.0000
  H   H293      1.0  0.28917  0.12729  0.30040  1.0000
  H   H294      1.0  0.22695  0.07674  0.35388  1.0000
  H   H295      1.0  0.19052  0.06314  0.37730  1.0000
  Fe  Fe44      1.0  0.14104  0.23314  0.31222  1.0000
  N   N13       1.0  0.17200  0.18057  0.45306  1.0000
  H   H296      1.0  0.99738  0.17040  0.32156  1.0000
  C   C252      1.0  0.18212  0.18866  0.44438  1.0000
  C   C253      1.0  0.32062  0.14921  0.26154  1.0000
  C   C254      1.0  0.13807  0.22256  0.39367  1.0000
  C   C255      1.0  0.19393  0.10712  0.38582  1.0000
  H   H297      1.0  0.11210  0.14893  0.45850  1.0000
  H   H298      1.0  0.16982  0.17330  0.43674  1.0000
  H   H299      1.0  0.22486  0.21535  0.33126  1.0000
  C   C256      1.0  0.14372  0.15782  0.47867  1.0000
  C   C257      1.0  0.17257  0.16929  0.44682  1.0000
  H   H300      1.0  0.19507  0.21868  0.33989  1.0000
  H   H301      1.0  0.16252  0.00433  0.29805  1.0000
  C   C258      1.0  0.27659  0.11405  0.24001  1.0000
  H   H302      1.0  0.14760  0.23341  0.27979  1.0000
  H   H303      1.0  0.17921  0.23416  0.28593  1.0000
  H   H304      1.0  0.09953  0.05822  0.34196  1.0000
  C   C259      1.0  0.13528  0.23282  0.37068  1.0000
  C   C260      1.0  0.36073  0.15800  0.25706  1.0000
  H   H305      1.0  0.09639  0.11016  0.39785  1.0000
  H   H306      1.0  0.17184  0.15948  0.35026  1.0000
  S   S82       1.0  0.16173  0.20361  0.35221  1.0000
  S   S83       1.0  0.13636  0.13756  0.43498  1.0000
  H   H307      1.0  0.13691  0.21488  0.40294  1.0000
  C   C261      1.0  0.19518  0.21731  0.29217  1.0000
  C   C262      1.0  0.16734  0.21708  0.35416  1.0000
  S   S84       1.0  0.29768  0.14329  0.23252  1.0000
  C   C263      1.0  0.99795  0.13343  0.36784  1.0000
  H   H308      1.0  0.08627  0.05801  0.35752  1.0000
  H   H309      1.0  0.19990  0.05858  0.36157  1.0000
  N   N14       1.0  0.10674  0.04818  0.36040  1.0000
  C   C264      1.0  0.12286  0.21191  0.37025  1.0000
  C   C265      1.0  0.21414  0.17908  0.36535  1.0000
  H   H310      1.0  0.12461  0.15074  0.46630  1.0000
  H   H311      1.0  0.29588  0.08313  0.25214  1.0000
  C   C266      1.0  0.11720  0.12667  0.47671  1.0000
  H   H312      1.0  0.09230  0.01528  0.34839  1.0000
  N   N15       1.0  0.20850  0.07176  0.36791  1.0000
  H   H313      1.0  0.17549  0.18287  0.47150  1.0000
  H   H314      1.0  0.09357  0.12178  0.38250  1.0000
  H   H315      1.0  0.11210  0.12386  0.40701  1.0000
  C   C267      1.0  0.21703  0.16860  0.35853  1.0000
  C   C268      1.0  0.10572  0.00683  0.36223  1.0000
  C   C269      1.0  0.37650  0.22527  0.25241  1.0000
  S   S85       1.0  0.15903  0.21535  0.31336  1.0000
  C   C270      1.0  0.20073  0.18383  0.37196  1.0000
  C   C271      1.0  0.09807  0.01752  0.35432  1.0000
  C   C272      1.0  0.15051  0.00165  0.36405  1.0000
  H   H316      1.0  0.16103  0.23107  0.33654  1.0000
  H   H317      1.0  0.18219  0.09479  0.40223  1.0000
  C   C273      1.0  0.11361  0.15067  0.46793  1.0000
  C   C274      1.0  0.19636  0.18256  0.44191  1.0000
  C   C275      1.0  0.31601  0.14435  0.28613  1.0000
  C   C276      1.0  0.12036  0.15637  0.37557  1.0000
  H   H318      1.0  0.03754  0.20211  0.35647  1.0000
  C   C277      1.0  0.19666  0.06700  0.36714  1.0000
  S   S86       1.0  0.13494  0.98974  0.33856  1.0000
  C   C278      1.0  0.11796  0.11696  0.39994  1.0000
  H   H319      1.0  0.10326  0.06159  0.37397  1.0000
  H   H320      1.0  0.11717  0.10643  0.40562  1.0000
  H   H321      1.0  0.00047  0.12245  0.37077  1.0000
  C   C279      1.0  0.00170  0.14828  0.32333  1.0000
  C   C280      1.0  0.19019  0.17790  0.37216  1.0000
  S   S87       1.0  0.15301  0.13638  0.46518  1.0000
  H   H322      1.0  0.22229  0.18354  0.36555  1.0000
  C   C281      1.0  0.19280  0.16712  0.36538  1.0000
  H   H323      1.0  0.11609  0.11153  0.37020  1.0000
  C   C282      1.0  0.18010  0.16388  0.35094  1.0000
  C   C283      1.0  0.11968  0.14327  0.38332  1.0000
  C   C284      1.0  0.11572  0.16103  0.36353  1.0000
  C   C285      1.0  0.11419  0.13446  0.37918  1.0000
  H   H324      1.0  0.19513  0.14107  0.36309  1.0000
  C   C286      1.0  0.11335  0.00956  0.36972  1.0000
  H   H325      1.0  0.30302  0.15566  0.25268  1.0000
  H   H326      1.0  0.16757  0.16903  0.47371  1.0000
  H   H327      1.0  0.12898  0.11718  0.39758  1.0000
  H   H328      1.0  0.16055  0.16022  0.37386  1.0000
  N   N16       1.0  0.11274  0.12076  0.38733  1.0000
  C   C287      1.0  0.09807  0.03099  0.35379  1.0000
  C   C288      1.0  0.11362  0.02295  0.36911  1.0000
  H   H329      1.0  0.12018  0.09985  0.38515  1.0000
  C   C289      1.0  0.10590  0.03411  0.36120  1.0000
  C   C290      1.0  0.09804  0.12020  0.39139  1.0000
  C   C291      1.0  0.11052  0.15256  0.35912  1.0000
  H   H330      1.0  0.32789  0.14971  0.25182  1.0000
  C   C292      1.0  0.18264  0.22756  0.25419  1.0000
  H   H331      1.0  0.28644  0.15436  0.27440  1.0000
  H   H332      1.0  0.13922  0.16363  0.47015  1.0000
  H   H333      1.0  0.20967  0.20950  0.42215  1.0000
  H   H334      1.0  0.20931  0.15483  0.35277  1.0000
  H   H335      1.0  0.18011  0.18194  0.37773  1.0000
  C   C293      1.0  0.18578  0.14581  0.36982  1.0000
  N   N17       1.0  0.18188  0.16078  0.36508  1.0000
  C   C294      1.0  0.14619  0.99353  0.35806  1.0000
  H   H336      1.0  0.22043  0.06480  0.34960  1.0000
  C   C295      1.0  0.10366  0.05080  0.37427  1.0000
  C   C296      1.0  0.12040  0.11039  0.37911  1.0000
  H   H337      1.0  0.13137  0.11099  0.37527  1.0000
  C   C297      1.0  0.09710  0.05879  0.35284  1.0000
  C   C298      1.0  0.01076  0.13608  0.32815  1.0000
  S   S88       1.0  0.35743  0.13814  0.24714  1.0000
  C   C299      1.0  0.20354  0.08403  0.37381  1.0000
  H   H338      1.0  0.18233  0.98641  0.28871  1.0000
  C   C300      1.0  0.10977  0.13949  0.36676  1.0000
  C   C301      1.0  0.35834  0.15494  0.24591  1.0000
  H   H339      1.0  0.11596  0.17127  0.35767  1.0000
  H   H340      1.0  0.10673  0.15624  0.34986  1.0000
  H   H341      1.0  0.13733  0.01754  0.33094  1.0000
  C   C302      1.0  0.28772  0.10250  0.23961  1.0000
  C   C303      1.0  0.32531  0.14509  0.27352  1.0000
  C   C304      1.0  0.30660  0.15259  0.26206  1.0000
  C   C305      1.0  0.20060  0.20886  0.33703  1.0000
  H   H342      1.0  0.25784  0.12398  0.25188  1.0000
  H   H343      1.0  0.21037  0.05784  0.38711  1.0000
  H   H344      1.0  0.04319  0.19857  0.37676  1.0000
  C   C306      1.0  0.14105  0.01303  0.34018  1.0000
  N   N18       1.0  0.29138  0.14719  0.30014  1.0000
  N   N19       1.0  0.36296  0.23039  0.26086  1.0000
  C   C307      1.0  0.20198  0.21716  0.31283  1.0000
  C   C308      1.0  0.13598  0.19785  0.38645  1.0000
  C   C309      1.0  0.29720  0.15182  0.27458  1.0000
  H   H345      1.0  0.18960  0.07535  0.36169  1.0000
  H   H346      1.0  0.02924  0.22005  0.36750  1.0000
  H   H347      1.0  0.36409  0.17324  0.26513  1.0000
  H   H348      1.0  0.21037  0.20169  0.30033  1.0000
  H   H349      1.0  0.19619  0.21236  0.28403  1.0000
  H   H350      1.0  0.00384  0.14719  0.29764  1.0000
  H   H351      1.0  0.20617  0.20318  0.34523  1.0000
  H   H352      1.0  0.37650  0.21617  0.24892  1.0000
  H   H353      1.0  0.05054  0.20573  0.38570  1.0000
  H   H354      1.0  0.07184  0.21718  0.36412  1.0000
  C   C310      1.0  0.29755  0.14267  0.31224  1.0000
  H   H355      1.0  0.16775  0.20815  0.43913  1.0000
  H   H356      1.0  0.18544  0.20684  0.26561  1.0000
  N   N20       1.0  0.12658  0.21123  0.38313  1.0000
  C   C311      1.0  0.30160  0.14774  0.28703  1.0000
  C   C312      1.0  0.20614  0.19007  0.43410  1.0000
  H   H357      1.0  0.15427  0.19271  0.44525  1.0000
  H   H358      1.0  0.13206  0.18935  0.38564  1.0000
  C   C313      1.0  0.05429  0.21261  0.35123  1.0000
  C   C314      1.0  0.35937  0.17802  0.23323  1.0000
  H   H359      1.0  0.25826  0.10547  0.27230  1.0000
  C   C315      1.0  0.00385  0.16062  0.32466  1.0000
  H   H360      1.0  0.14777  0.99896  0.31015  1.0000
  C   C316      1.0  0.28279  0.13759  0.30140  1.0000
  C   C317      1.0  0.06825  0.21201  0.32814  1.0000
  H   H361      1.0  0.18959  0.15965  0.34392  1.0000
  H   H362      1.0  0.22747  0.16488  0.35339  1.0000
  H   H363      1.0  0.27478  0.16093  0.31052  1.0000
  H   H364      1.0  0.33629  0.14237  0.27296  1.0000
  C   C318      1.0  0.16837  0.16560  0.37385  1.0000
  H   H365      1.0  0.22072  0.05144  0.37251  1.0000
  H   H366      1.0  0.30406  0.13219  0.31279  1.0000
  H   H367      1.0  0.19037  0.07479  0.39225  1.0000
  H   H368      1.0  0.16424  0.17664  0.37029  1.0000
  H   H369      1.0  0.38506  0.14395  0.23125  1.0000
  C   C319      1.0  0.20206  0.20383  0.42853  1.0000
  H   H370      1.0  0.16530  0.16279  0.45325  1.0000
  H   H371      1.0  0.21694  0.18516  0.43198  1.0000
  H   H372      1.0  0.35827  0.21052  0.26885  1.0000
  C   C320      1.0  0.17525  0.17475  0.46667  1.0000
  H   H373      1.0  0.35258  0.22503  0.24858  1.0000
  H   H374      1.0  0.31483  0.09177  0.23944  1.0000
  C   C321      1.0  0.15079  0.14432  0.47885  1.0000
  H   H375      1.0  0.22689  0.19794  0.31225  1.0000
  H   H376      1.0  0.00964  0.12630  0.32771  1.0000
  H   H377      1.0  0.18510  0.22069  0.42574  1.0000
  C   C322      1.0  0.01442  0.16062  0.33045  1.0000
  C   C323      1.0  0.02309  0.14847  0.33508  1.0000
  C   C324      1.0  0.04619  0.20507  0.34879  1.0000
  S   S89       1.0  0.33289  0.12032  0.24064  1.0000
  C   C325      1.0  0.26601  0.11491  0.25162  1.0000
  C   C326      1.0  0.06050  0.20403  0.32636  1.0000
  H   H378      1.0  0.22632  0.22135  0.31326  1.0000
  H   H379      1.0  0.22451  0.19260  0.33027  1.0000
  C   C327      1.0  0.15734  0.23176  0.27253  1.0000
  H   H380      1.0  0.01565  0.17006  0.33182  1.0000
  C   C328      1.0  0.27701  0.09308  0.26314  1.0000
  C   C329      1.0  0.16602  0.22950  0.34476  1.0000
  H   H381      1.0  0.15639  0.19721  0.45996  1.0000
  H   H382      1.0  0.11542  0.22152  0.36725  1.0000
  H   H383      1.0  0.17517  0.99485  0.33910  1.0000
  H   H384      1.0  0.10841  0.20386  0.39466  1.0000
  C   C330      1.0  0.26623  0.10448  0.26316  1.0000
  H   H385      1.0  0.03486  0.22836  0.37694  1.0000
  H   H386      1.0  0.31145  0.10997  0.23483  1.0000
  C   C331      1.0  0.02126  0.13622  0.33395  1.0000
  H   H387      1.0  0.36151  0.15025  0.26623  1.0000
  H   H388      1.0  0.21278  0.19001  0.32218  1.0000
  H   H389      1.0  0.27601  0.12277  0.23167  1.0000
  C   C332      1.0  0.06117  0.22343  0.36579  1.0000
  N   N21       1.0  0.05127  0.21621  0.36463  1.0000
  H   H390      1.0  0.14632  0.19760  0.37954  1.0000
  C   C333      1.0  0.28760  0.09205  0.25156  1.0000
  C   C334      1.0  0.17866  0.21684  0.26458  1.0000
  H   H391      1.0  0.11954  0.00120  0.37563  1.0000
  C   C335      1.0  0.04939  0.20069  0.33661  1.0000
  C   C336      1.0  0.15607  0.99669  0.30115  1.0000
  S   S90       1.0  0.36420  0.19700  0.24422  1.0000
  H   H392      1.0  0.06137  0.19608  0.37348  1.0000
  H   H393      1.0  0.06325  0.20025  0.31711  1.0000
  H   H394      1.0  0.11588  0.21040  0.40414  1.0000
  H   H395      1.0  0.19262  0.22521  0.24760  1.0000
  H   H396      1.0  0.07199  0.22207  0.34113  1.0000
  C   C337      1.0  0.03739  0.22518  0.36708  1.0000
  H   H397      1.0  0.13212  0.21098  0.36182  1.0000
  N   N22       1.0  0.10964  0.14008  0.47999  1.0000
  H   H398      1.0  0.16371  0.00010  0.32065  1.0000
  H   H399      1.0  0.10753  0.16105  0.46885  1.0000
  Fe  Fe45      1.0  0.34796  0.13377  0.23252  1.0000
  H   H400      1.0  0.18532  0.16740  0.46626  1.0000
  C   C338      1.0  0.31213  0.10070  0.23128  1.0000
  H   H401      1.0  0.38494  0.22218  0.25788  1.0000
  H   H402      1.0  0.09232  0.13871  0.47337  1.0000
  H   H403      1.0  0.12851  0.12566  0.47447  1.0000
  H   H404      1.0  0.06099  0.23331  0.35833  1.0000
  H   H405      1.0  0.37922  0.23312  0.24319  1.0000
  H   H406      1.0  0.03660  0.23451  0.35885  1.0000
  C   C339      1.0  0.35270  0.23394  0.25235  1.0000
  Fe  Fe46      1.0  0.21538  0.11328  0.67781  1.0000
  S   S91       1.0  0.19378  0.11265  0.68896  1.0000
  S   S92       1.0  0.21799  0.12341  0.65556  1.0000
  Fe  Fe47      1.0  0.20215  0.09108  0.69793  1.0000
  S   S93       1.0  0.18920  0.07621  0.70023  1.0000
  S   S94       1.0  0.22354  0.09106  0.68546  1.0000
  S   S95       1.0  0.22067  0.11994  0.69395  1.0000
  Fe  Fe48      1.0  0.09917  0.19260  0.69669  1.0000
  S   S96       1.0  0.09894  0.21455  0.69515  1.0000
  S   S97       1.0  0.08109  0.18304  0.70807  1.0000
  Fe  Fe49      1.0  0.11250  0.21308  0.67444  1.0000
  C   C340      1.0  0.15392  0.16126  0.70124  1.0000
  S   S98       1.0  0.11099  0.19193  0.67538  1.0000
  Fe  Fe50      1.0  0.20356  0.19980  0.62756  1.0000
  S   S99       1.0  0.18507  0.20316  0.61908  1.0000
  S   S100      1.0  0.20680  0.18706  0.64778  1.0000
  Fe  Fe51      1.0  0.21674  0.22046  0.60528  1.0000
  H   H407      1.0  0.39338  0.21611  0.71611  1.0000
  Fe  Fe52      1.0  0.18554  0.22518  0.61503  1.0000
  C   C341      1.0  0.17853  0.14408  0.57970  1.0000
  Fe  Fe53      1.0  0.20017  0.20333  0.59898  1.0000
  S   S101      1.0  0.19921  0.19401  0.58214  1.0000
  S   S102      1.0  0.20255  0.22185  0.62552  1.0000
  S   S103      1.0  0.21880  0.19797  0.60795  1.0000
  H   H408      1.0  0.16085  0.10275  0.69909  1.0000
  Fe  Fe54      1.0  0.14674  0.05982  0.62545  1.0000
  S   S104      1.0  0.13433  0.04534  0.64008  1.0000
  S   S105      1.0  0.14142  0.06903  0.60507  1.0000
  Fe  Fe55      1.0  0.16382  0.05828  0.64523  1.0000
  S   S106      1.0  0.15311  0.04340  0.66153  1.0000
  S   S107      1.0  0.18081  0.06763  0.64573  1.0000
  Fe  Fe56      1.0  0.15437  0.03293  0.64492  1.0000
  S   S108      1.0  0.16057  0.00980  0.64785  1.0000
  Fe  Fe57      1.0  0.13391  0.05684  0.65535  1.0000
  S   S109      1.0  0.11520  0.06333  0.67107  1.0000
  S   S110      1.0  0.16699  0.04667  0.62904  1.0000
  S   S111      1.0  0.14445  0.07248  0.64027  1.0000
  Fe  Fe58      1.0  0.12794  0.14550  0.56208  1.0000
  S   S112      1.0  0.13135  0.16625  0.55129  1.0000
  S   S113      1.0  0.10751  0.13981  0.57118  1.0000
  Fe  Fe59      1.0  0.15831  0.13305  0.55869  1.0000
  S   S114      1.0  0.16442  0.15275  0.54712  1.0000
  S   S115      1.0  0.17270  0.11458  0.56770  1.0000
  Fe  Fe60      1.0  0.14774  0.16199  0.56307  1.0000
  S   S116      1.0  0.14851  0.17415  0.57774  1.0000
  Fe  Fe61      1.0  0.14762  0.15525  0.53613  1.0000
  S   S117      1.0  0.14712  0.16482  0.51378  1.0000
  S   S118      1.0  0.14271  0.14208  0.57507  1.0000
  S   S119      1.0  0.14310  0.13467  0.54647  1.0000
  Fe  Fe62      1.0  0.05224  0.14419  0.66901  1.0000
  S   S120      1.0  0.03929  0.13046  0.66826  1.0000
  S   S121      1.0  0.05198  0.14732  0.68962  1.0000
  Fe  Fe63      1.0  0.06110  0.15173  0.63849  1.0000
  S   S122      1.0  0.04879  0.13914  0.63498  1.0000
  S   S123      1.0  0.07422  0.16469  0.62241  1.0000
  Fe  Fe64      1.0  0.03191  0.14705  0.65148  1.0000
  S   S124      1.0  0.00955  0.15664  0.65025  1.0000
  Fe  Fe65      1.0  0.05706  0.12347  0.65187  1.0000
  S   S125      1.0  0.06483  0.10243  0.64757  1.0000
  S   S126      1.0  0.04361  0.16127  0.65344  1.0000
  S   S127      1.0  0.07064  0.13554  0.65418  1.0000
  C   C342      1.0  0.13871  0.22251  0.64560  1.0000
  C   C343      1.0  0.01329  0.14538  0.69418  1.0000
  C   C344      1.0  0.12226  0.20141  0.61501  1.0000
  H   H409      1.0  0.19520  0.12606  0.56536  1.0000
  H   H410      1.0  0.18975  0.14041  0.68720  1.0000
  H   H411      1.0  0.14027  0.09670  0.69717  1.0000
  H   H412      1.0  0.17490  0.15438  0.67146  1.0000
  H   H413      1.0  0.33595  0.21650  0.70152  1.0000
  C   C345      1.0  0.14814  0.15642  0.50083  1.0000
  H   H414      1.0  0.03228  0.19196  0.59089  1.0000
  H   H415      1.0  0.15861  0.04125  0.60680  1.0000
  C   C346      1.0  0.15554  0.21791  0.68737  1.0000
  C   C347      1.0  0.15627  0.13683  0.49020  1.0000
  C   C348      1.0  0.15494  0.14282  0.50115  1.0000
  H   H416      1.0  0.00754  0.13922  0.70324  1.0000
  H   H417      1.0  0.11438  0.11813  0.48514  1.0000
  H   H418      1.0  0.16171  0.12636  0.49049  1.0000
  H   H419      1.0  0.15938  0.13699  0.50972  1.0000
  C   C349      1.0  0.09829  0.14685  0.58533  1.0000
  C   C350      1.0  0.10237  0.15705  0.58839  1.0000
  C   C351      1.0  0.09484  0.16260  0.59973  1.0000
  C   C352      1.0  0.08345  0.15769  0.60823  1.0000
  C   C353      1.0  0.07952  0.14732  0.60529  1.0000
  C   C354      1.0  0.08679  0.14207  0.59373  1.0000
  H   H420      1.0  0.11122  0.16082  0.58192  1.0000
  H   H421      1.0  0.09792  0.17063  0.60197  1.0000
  H   H422      1.0  0.07088  0.14336  0.61187  1.0000
  H   H423      1.0  0.08365  0.13416  0.59140  1.0000
  C   C355      1.0  0.15253  0.99834  0.64487  1.0000
  C   C356      1.0  0.14024  0.00276  0.64042  1.0000
  C   C357      1.0  0.16895  0.18977  0.69115  1.0000
  Fe  Fe66      1.0  0.22688  0.09771  0.70282  1.0000
  H   H424      1.0  0.11951  0.11393  0.69440  1.0000
  C   C358      1.0  0.20486  0.10913  0.61201  1.0000
  H   H425      1.0  0.13526  0.01338  0.63897  1.0000
  H   H426      1.0  0.12501  0.99689  0.63420  1.0000
  C   C359      1.0  0.16533  0.21287  0.67637  1.0000
  H   H427      1.0  0.17173  0.02653  0.60418  1.0000
  C   C360      1.0  0.10174  0.07477  0.66406  1.0000
  C   C361      1.0  0.09933  0.07351  0.65207  1.0000
  C   C362      1.0  0.08793  0.08202  0.64713  1.0000
  C   C363      1.0  0.07922  0.09219  0.65384  1.0000
  C   C364      1.0  0.08194  0.09380  0.66554  1.0000
  C   C365      1.0  0.09303  0.08492  0.67079  1.0000
  H   H428      1.0  0.10598  0.06570  0.64683  1.0000
  H   H429      1.0  0.08586  0.08073  0.63808  1.0000
  H   H430      1.0  0.07522  0.10158  0.67080  1.0000
  H   H431      1.0  0.09485  0.08591  0.68009  1.0000
  C   C366      1.0  0.15009  0.08178  0.59497  1.0000
  C   C367      1.0  0.16165  0.08346  0.59806  1.0000
  C   C368      1.0  0.16866  0.09347  0.58959  1.0000
  C   C369      1.0  0.16386  0.10210  0.57827  1.0000
  C   C370      1.0  0.15206  0.10066  0.57545  1.0000
  C   C371      1.0  0.14534  0.09035  0.58363  1.0000
  H   H432      1.0  0.16540  0.07684  0.60678  1.0000
  H   H433      1.0  0.17781  0.09448  0.59180  1.0000
  H   H434      1.0  0.14832  0.10725  0.56673  1.0000
  H   H435      1.0  0.13640  0.08909  0.58121  1.0000
  C   C372      1.0  0.26140  0.08989  0.72786  1.0000
  N   N23       1.0  0.15174  0.22530  0.59032  1.0000
  C   C373      1.0  0.12395  0.13540  0.51125  1.0000
  C   C374      1.0  0.03863  0.13036  0.60786  1.0000
  H   H436      1.0  0.13052  0.03124  0.60090  1.0000
  C   C375      1.0  0.14604  0.00573  0.59812  1.0000
  S   S128      1.0  0.23635  0.22850  0.59803  1.0000
  H   H437      1.0  0.12085  0.14673  0.67131  1.0000
  H   H438      1.0  0.01970  0.17418  0.62548  1.0000
  H   H439      1.0  0.01004  0.12886  0.64900  1.0000
  C   C376      1.0  0.18510  0.18831  0.58121  1.0000
  C   C377      1.0  0.17501  0.18482  0.59273  1.0000
  C   C378      1.0  0.16400  0.18028  0.59152  1.0000
  C   C379      1.0  0.16306  0.17898  0.57886  1.0000
  C   C380      1.0  0.17326  0.18223  0.56738  1.0000
  C   C381      1.0  0.18421  0.18691  0.56857  1.0000
  H   H440      1.0  0.17569  0.18562  0.60256  1.0000
  H   H441      1.0  0.15611  0.17784  0.60045  1.0000
  H   H442      1.0  0.17256  0.18143  0.55755  1.0000
  H   H443      1.0  0.19199  0.18956  0.55961  1.0000
  H   H444      1.0  0.22747  0.10412  0.72971  1.0000
  C   C382      1.0  0.07371  0.17332  0.70183  1.0000
  C   C383      1.0  0.07656  0.17265  0.68807  1.0000
  C   C384      1.0  0.07002  0.16477  0.68393  1.0000
  C   C385      1.0  0.06076  0.15748  0.69359  1.0000
  C   C386      1.0  0.05817  0.15811  0.70724  1.0000
  C   C387      1.0  0.06451  0.16598  0.71130  1.0000
  H   H445      1.0  0.08355  0.17839  0.68063  1.0000
  H   H446      1.0  0.07207  0.16440  0.67333  1.0000
  H   H447      1.0  0.05111  0.15251  0.71479  1.0000
  H   H448      1.0  0.06223  0.16639  0.72192  1.0000
  C   C388      1.0  0.14743  0.23110  0.68541  1.0000
  H   H449      1.0  0.20561  0.06687  0.72109  1.0000
  H   H450      1.0  0.18923  0.20321  0.68427  1.0000
  C   C389      1.0  0.15118  0.22521  0.63705  1.0000
  C   C390      1.0  0.02040  0.17928  0.61457  1.0000
  H   H451      1.0  0.13844  0.21255  0.65204  1.0000
  H   H452      1.0  0.16050  0.21740  0.63713  1.0000
  C   C391      1.0  0.18683  0.07386  0.68509  1.0000
  C   C392      1.0  0.19622  0.07664  0.67277  1.0000
  C   C393      1.0  0.19442  0.07427  0.66090  1.0000
  C   C394      1.0  0.18301  0.06954  0.66114  1.0000
  C   C395      1.0  0.17351  0.06690  0.67342  1.0000
  C   C396      1.0  0.17550  0.06893  0.68539  1.0000
  H   H453      1.0  0.20509  0.08025  0.67245  1.0000
  H   H454      1.0  0.20197  0.07599  0.65150  1.0000
  H   H455      1.0  0.16470  0.06320  0.67373  1.0000
  H   H456      1.0  0.16823  0.06668  0.69490  1.0000
  C   C397      1.0  0.21444  0.14118  0.65318  1.0000
  C   C398      1.0  0.21406  0.14949  0.64023  1.0000
  C   C399      1.0  0.21143  0.16371  0.63842  1.0000
  C   C400      1.0  0.20933  0.16952  0.64956  1.0000
  C   C401      1.0  0.20955  0.16121  0.66245  1.0000
  C   C402      1.0  0.21202  0.14711  0.66424  1.0000
  H   H457      1.0  0.21593  0.14495  0.63162  1.0000
  H   H458      1.0  0.21126  0.17012  0.62842  1.0000
  H   H459      1.0  0.20790  0.16563  0.67110  1.0000
  H   H460      1.0  0.21222  0.14087  0.67420  1.0000
  H   H461      1.0  0.14024  0.14458  0.69440  1.0000
  N   N24       1.0  0.25112  0.19705  0.63020  1.0000
  C   C403      1.0  0.25181  0.18327  0.63910  1.0000
  C   C404      1.0  0.23662  0.20463  0.63314  1.0000
  C   C405      1.0  0.25478  0.19580  0.61581  1.0000
  C   C406      1.0  0.26090  0.20369  0.63240  1.0000
  C   C407      1.0  0.27513  0.19755  0.63024  1.0000
  C   C408      1.0  0.25681  0.21647  0.63626  1.0000
  H   H462      1.0  0.37079  0.22849  0.63353  1.0000
  N   N25       1.0  0.22468  0.05504  0.72646  1.0000
  H   H463      1.0  0.09663  0.00676  0.67412  1.0000
  H   H464      1.0  0.24972  0.18378  0.64998  1.0000
  H   H465      1.0  0.24407  0.17829  0.63812  1.0000
  H   H466      1.0  0.26197  0.17633  0.63665  1.0000
  H   H467      1.0  0.23307  0.20580  0.64387  1.0000
  H   H468      1.0  0.22955  0.19930  0.63151  1.0000
  H   H469      1.0  0.23509  0.21482  0.62628  1.0000
  H   H470      1.0  0.26492  0.18892  0.61314  1.0000
  H   H471      1.0  0.24714  0.19176  0.61339  1.0000
  H   H472      1.0  0.25521  0.20589  0.60880  1.0000
  H   H473      1.0  0.24629  0.22211  0.63785  1.0000
  H   H474      1.0  0.34345  0.22856  0.70453  1.0000
  C   C409      1.0  0.12658  0.23261  0.64551  1.0000
  H   H475      1.0  0.23570  0.12940  0.71268  1.0000
  N   N26       1.0  0.27272  0.13390  0.72722  1.0000
  C   C410      1.0  0.20390  0.13216  0.59877  1.0000
  H   H476      1.0  0.05822  0.13180  0.59436  1.0000
  H   H477      1.0  0.21088  0.13092  0.56372  1.0000
  H   H478      1.0  0.10030  0.12967  0.70345  1.0000
  C   C411      1.0  0.15691  0.22346  0.57608  1.0000
  H   H479      1.0  0.20788  0.10116  0.62039  1.0000
  C   C412      1.0  0.13492  0.21851  0.61206  1.0000
  C   C413      1.0  0.99981  0.13501  0.64878  1.0000
  C   C414      1.0  0.38248  0.22000  0.71939  1.0000
  C   C415      1.0  0.04877  0.13726  0.59986  1.0000
  H   H480      1.0  0.16250  0.21278  0.57564  1.0000
  H   H481      1.0  0.11998  0.14992  0.52368  1.0000
  H   H482      1.0  0.24387  0.05939  0.71332  1.0000
  H   H483      1.0  0.01872  0.13192  0.62140  1.0000
  H   H484      1.0  0.04391  0.18577  0.61070  1.0000
  C   C416      1.0  0.18802  0.19873  0.67635  1.0000
  C   C417      1.0  0.04486  0.17498  0.61052  1.0000
  H   H485      1.0  0.10853  0.16017  0.67861  1.0000
  C   C418      1.0  0.02656  0.13733  0.61507  1.0000
  C   C419      1.0  0.35094  0.21685  0.67559  1.0000
  H   H486      1.0  0.12043  0.21220  0.63040  1.0000
  C   C420      1.0  0.14008  0.10724  0.69658  1.0000
  C   C421      1.0  0.16054  0.03000  0.60825  1.0000
  C   C422      1.0  0.19955  0.13464  0.56521  1.0000
  H   H487      1.0  0.09363  0.14545  0.69318  1.0000
  C   C423      1.0  0.17503  0.14518  0.70515  1.0000
  N   N27       1.0  0.34698  0.22776  0.68337  1.0000
  C   C424      1.0  0.19872  0.15272  0.57537  1.0000
  H   H488      1.0  0.11928  0.15510  0.70370  1.0000
  H   H489      1.0  0.13305  0.01633  0.68546  1.0000
  H   H490      1.0  0.00800  0.15661  0.71564  1.0000
  C   C425      1.0  0.35442  0.23029  0.72788  1.0000
  H   H491      1.0  0.01516  0.15583  0.62060  1.0000
  H   H492      1.0  0.17478  0.21928  0.65490  1.0000
  H   H493      1.0  0.35416  0.21319  0.70034  1.0000
  C   C426      1.0  0.14250  0.16385  0.48954  1.0000
  H   H494      1.0  0.09125  0.13326  0.49144  1.0000
  H   H495      1.0  0.09772  0.21180  0.72394  1.0000
  C   C427      1.0  0.26954  0.11973  0.69879  1.0000
  H   H496      1.0  0.13715  0.17434  0.48924  1.0000
  H   H497      1.0  0.13838  0.01228  0.59269  1.0000
  H   H498      1.0  0.14275  0.20538  0.58361  1.0000
  H   H499      1.0  0.01052  0.17330  0.70586  1.0000
  H   H500      1.0  0.17730  0.19730  0.65674  1.0000
  H   H501      1.0  0.02567  0.17927  0.58770  1.0000
  H   H502      1.0  0.17402  0.13536  0.58060  1.0000
  H   H503      1.0  0.04017  0.11955  0.60859  1.0000
  H   H504      1.0  0.29020  0.11677  0.72672  1.0000
  C   C428      1.0  0.19820  0.10656  0.60350  1.0000
  C   C429      1.0  0.26642  0.22263  0.63780  1.0000
  C   C430      1.0  0.16414  0.00166  0.60999  1.0000
  H   H505      1.0  0.34269  0.21116  0.67806  1.0000
  H   H506      1.0  0.24479  0.13617  0.72800  1.0000
  C   C431      1.0  0.01579  0.16784  0.68149  1.0000
  C   C432      1.0  0.19740  0.12975  0.58967  1.0000
  H   H507      1.0  0.29550  0.19907  0.62985  1.0000
  C   C433      1.0  0.12816  0.11731  0.69501  1.0000
  C   C434      1.0  0.11768  0.14776  0.51511  1.0000
  C   C435      1.0  0.13815  0.20738  0.59366  1.0000
  S   S129      1.0  0.11776  0.18467  0.70579  1.0000
  C   C436      1.0  0.17245  0.19246  0.66713  1.0000
  C   C437      1.0  0.28466  0.20383  0.63176  1.0000
  C   C438      1.0  0.25213  0.13196  0.71983  1.0000
  C   C439      1.0  0.10293  0.13704  0.69375  1.0000
  H   H508      1.0  0.05516  0.15599  0.59289  1.0000
  S   S130      1.0  0.18476  0.13367  0.71635  1.0000
  H   H509      1.0  0.17128  0.22790  0.59119  1.0000
  Fe  Fe67      1.0  0.11857  0.20659  0.70257  1.0000
  C   C440      1.0  0.37611  0.23254  0.71228  1.0000
  H   H510      1.0  0.13111  0.12801  0.51687  1.0000
  H   H511      1.0  0.19734  0.14241  0.55598  1.0000
  C   C441      1.0  0.13032  0.99499  0.67594  1.0000
  C   C442      1.0  0.04691  0.15115  0.59913  1.0000
  C   C443      1.0  0.02464  0.15121  0.61449  1.0000
  H   H512      1.0  0.17777  0.18152  0.66843  1.0000
  H   H513      1.0  0.13409  0.02720  0.61748  1.0000
  H   H514      1.0  0.14396  0.16704  0.70522  1.0000
  H   H515      1.0  0.15796  0.18949  0.69295  1.0000
  H   H516      1.0  0.17529  0.15202  0.57100  1.0000
  H   H517      1.0  0.18915  0.11426  0.58633  1.0000
  H   H518      1.0  0.19457  0.18826  0.67716  1.0000
  H   H519      1.0  0.10450  0.13221  0.68506  1.0000
  C   C444      1.0  0.20761  0.12192  0.60971  1.0000
  H   H520      1.0  0.12636  0.19221  0.59789  1.0000
  N   N28       1.0  0.11571  0.01888  0.67679  1.0000
  C   C445      1.0  0.10593  0.02110  0.68972  1.0000
  C   C446      1.0  0.12861  0.02244  0.67660  1.0000
  C   C447      1.0  0.11004  0.02848  0.66533  1.0000
  C   C448      1.0  0.11766  0.00467  0.67561  1.0000
  H   H521      1.0  0.27904  0.18794  0.62710  1.0000
  C   C449      1.0  0.10663  0.00010  0.67417  1.0000
  H   H522      1.0  0.17043  0.19306  0.69974  1.0000
  C   C450      1.0  0.15415  0.01116  0.60321  1.0000
  S   S131      1.0  0.19958  0.22572  0.59434  1.0000
  H   H523      1.0  0.09569  0.01945  0.69028  1.0000
  H   H524      1.0  0.10979  0.01403  0.69858  1.0000
  H   H525      1.0  0.10432  0.03170  0.69098  1.0000
  H   H526      1.0  0.34956  0.22573  0.62943  1.0000
  H   H527      1.0  0.12691  0.03328  0.67710  1.0000
  H   H528      1.0  0.13646  0.02090  0.66712  1.0000
  H   H529      1.0  0.09936  0.02809  0.66585  1.0000
  H   H530      1.0  0.10964  0.03925  0.66520  1.0000
  H   H531      1.0  0.12711  0.12315  0.49725  1.0000
  H   H532      1.0  0.16917  0.21071  0.59652  1.0000
  C   C451      1.0  0.25538  0.12192  0.70064  1.0000
  C   C452      1.0  0.17968  0.14600  0.69116  1.0000
  H   H533      1.0  0.23269  0.05634  0.70485  1.0000
  Fe  Fe68      1.0  0.19951  0.11777  0.70564  1.0000
  C   C453      1.0  0.13441  0.99335  0.63783  1.0000
  C   C454      1.0  0.21080  0.05611  0.72448  1.0000
  C   C455      1.0  0.15585  0.03218  0.58660  1.0000
  H   H534      1.0  0.06955  0.20481  0.72932  1.0000
  C   C456      1.0  0.34501  0.22122  0.69804  1.0000
  C   C457      1.0  0.10883  0.15751  0.50770  1.0000
  H   H535      1.0  0.36848  0.22715  0.68083  1.0000
  N   N29       1.0  0.17347  0.19869  0.67783  1.0000
  C   C458      1.0  0.99688  0.14871  0.64937  1.0000
  C   C459      1.0  0.24671  0.12809  0.71106  1.0000
  H   H536      1.0  0.13586  0.04322  0.60619  1.0000
  S   S132      1.0  0.11073  0.22967  0.65588  1.0000
  C   C460      1.0  0.13753  0.03214  0.60668  1.0000
  H   H537      1.0  0.35334  0.22107  0.66442  1.0000
  H   H538      1.0  0.27622  0.11466  0.69084  1.0000
  H   H539      1.0  0.14932  0.03048  0.58075  1.0000
  H   H540      1.0  0.25112  0.11845  0.69423  1.0000
  C   C461      1.0  0.11995  0.22679  0.72554  1.0000
  H   H541      1.0  0.15868  0.15252  0.72100  1.0000
  H   H542      1.0  0.33047  0.22994  0.66519  1.0000
  N   N30       1.0  0.17991  0.11779  0.65192  1.0000
  C   C462      1.0  0.19428  0.10990  0.64940  1.0000
  C   C463      1.0  0.18000  0.13062  0.65533  1.0000
  C   C464      1.0  0.17180  0.11001  0.66403  1.0000
  C   C465      1.0  0.17417  0.11994  0.63989  1.0000
  C   C466      1.0  0.17016  0.13302  0.63172  1.0000
  C   C467      1.0  0.17261  0.10866  0.63589  1.0000
  C   C468      1.0  0.16484  0.13462  0.62038  1.0000
  C   C469      1.0  0.16726  0.11038  0.62457  1.0000
  C   C470      1.0  0.16342  0.12333  0.61680  1.0000
  H   H543      1.0  0.20102  0.11580  0.64111  1.0000
  H   H544      1.0  0.19865  0.10719  0.65859  1.0000
  H   H545      1.0  0.19523  0.10024  0.64652  1.0000
  H   H546      1.0  0.18665  0.13664  0.64703  1.0000
  H   H547      1.0  0.18437  0.12861  0.66441  1.0000
  H   H548      1.0  0.16947  0.13704  0.65764  1.0000
  H   H549      1.0  0.17248  0.09955  0.66303  1.0000
  H   H550      1.0  0.17557  0.10864  0.67335  1.0000
  H   H551      1.0  0.16077  0.11526  0.66593  1.0000
  H   H552      1.0  0.17103  0.14220  0.63387  1.0000
  H   H553      1.0  0.17563  0.09835  0.64143  1.0000
  H   H554      1.0  0.16179  0.14471  0.61434  1.0000
  H   H555      1.0  0.16627  0.10154  0.62174  1.0000
  H   H556      1.0  0.15942  0.12460  0.60793  1.0000
  H   H557      1.0  0.11642  0.02621  0.65542  1.0000
  H   H558      1.0  0.16155  0.19314  0.66728  1.0000
  H   H559      1.0  0.13939  0.99744  0.67685  1.0000
  H   H560      1.0  0.15466  0.04340  0.58480  1.0000
  H   H561      1.0  0.17492  0.17906  0.69170  1.0000
  C   C471      1.0  0.11143  0.14950  0.70433  1.0000
  H   H562      1.0  0.15817  0.02576  0.61941  1.0000
  C   C472      1.0  0.13980  0.13426  0.69506  1.0000
  H   H563      1.0  0.28772  0.22136  0.63644  1.0000
  C   C473      1.0  0.28031  0.21637  0.63549  1.0000
  H   H564      1.0  0.11015  0.14240  0.71444  1.0000
  C   C474      1.0  0.26655  0.12995  0.71818  1.0000
  C   C475      1.0  0.12539  0.21083  0.62012  1.0000
  C   C476      1.0  0.19442  0.11672  0.59256  1.0000
  C   C477      1.0  0.10620  0.15493  0.49640  1.0000
  H   H565      1.0  0.08841  0.15100  0.48346  1.0000
  H   H566      1.0  0.21281  0.12390  0.61636  1.0000
  H   H567      1.0  0.17366  0.14830  0.58898  1.0000
  H   H568      1.0  0.10166  0.15732  0.70412  1.0000
  C   C478      1.0  0.17131  0.15402  0.68226  1.0000
  H   H569      1.0  0.27008  0.08414  0.72177  1.0000
  H   H570      1.0  0.13708  0.22556  0.61655  1.0000
  H   H571      1.0  0.04526  0.16890  0.62097  1.0000
  C   C479      1.0  0.03381  0.18084  0.59171  1.0000
  H   H572      1.0  0.04383  0.17771  0.58479  1.0000
  H   H573      1.0  0.27510  0.15298  0.71356  1.0000
  H   H574      1.0  0.01963  0.19022  0.61395  1.0000
  H   H575      1.0  0.01214  0.17899  0.68086  1.0000
  H   H576      1.0  0.16067  0.12679  0.69756  1.0000
  C   C480      1.0  0.15161  0.12414  0.69674  1.0000
  H   H577      1.0  0.16672  0.02776  0.58213  1.0000
  C   C481      1.0  0.12761  0.13117  0.69442  1.0000
  H   H578      1.0  0.17069  0.00471  0.61443  1.0000
  C   C482      1.0  0.15834  0.16149  0.68731  1.0000
  C   C483      1.0  0.14159  0.21708  0.59856  1.0000
  N   N31       1.0  0.19367  0.14017  0.57774  1.0000
  C   C484      1.0  0.12866  0.19967  0.60183  1.0000
  S   S133      1.0  0.14757  0.17038  0.67611  1.0000
  H   H579      1.0  0.28612  0.12174  0.70556  1.0000
  S   S134      1.0  0.20599  0.09601  0.71594  1.0000
  C   C485      1.0  0.16565  0.98766  0.61173  1.0000
  H   H580      1.0  0.28583  0.14718  0.72577  1.0000
  H   H581      1.0  0.23080  0.03463  0.72298  1.0000
  N   N32       1.0  0.03340  0.17314  0.60592  1.0000
  H   H582      1.0  0.20634  0.14182  0.59761  1.0000
  H   H583      1.0  0.21006  0.15048  0.57405  1.0000
  H   H584      1.0  0.19230  0.20473  0.66628  1.0000
  H   H585      1.0  0.01125  0.17866  0.61147  1.0000
  H   H586      1.0  0.19595  0.09662  0.60539  1.0000
  C   C486      1.0  0.03487  0.15853  0.60656  1.0000
  C   C487      1.0  0.14749  0.99170  0.60012  1.0000
  H   H587      1.0  0.05505  0.17182  0.60387  1.0000
  C   C488      1.0  0.11777  0.15188  0.68001  1.0000
  H   H588      1.0  0.19379  0.15823  0.58381  1.0000
  H   H589      1.0  0.02708  0.16528  0.68070  1.0000
  C   C489      1.0  0.15172  0.11063  0.69760  1.0000
  C   C490      1.0  0.34935  0.23451  0.63305  1.0000
  C   C491      1.0  0.16227  0.15306  0.71017  1.0000
  Fe  Fe69      1.0  0.12955  0.18577  0.68429  1.0000
  H   H590      1.0  0.36035  0.20928  0.67790  1.0000
  H   H591      1.0  0.11489  0.19543  0.62129  1.0000
  H   H592      1.0  0.19634  0.16005  0.56597  1.0000
  H   H593      1.0  0.02443  0.14165  0.69421  1.0000
  C   C492      1.0  0.16373  0.22143  0.59661  1.0000
  N   N33       1.0  0.11511  0.14210  0.69316  1.0000
  H   H594      1.0  0.07894  0.10127  0.59291  1.0000
  C   C493      1.0  0.12151  0.13275  0.49989  1.0000
  H   H595      1.0  0.16443  0.22986  0.57015  1.0000
  N   N34       1.0  0.15213  0.02606  0.60129  1.0000
  C   C494      1.0  0.23290  0.06086  0.71320  1.0000
  H   H596      1.0  0.21121  0.05087  0.71642  1.0000
  C   C495      1.0  0.11250  0.14248  0.49210  1.0000
  S   S135      1.0  0.24675  0.08894  0.71015  1.0000
  H   H597      1.0  0.15347  0.21170  0.69748  1.0000
  S   S136      1.0  0.13197  0.20684  0.68167  1.0000
  N   N35       1.0  0.11434  0.11305  0.61468  1.0000
  C   C496      1.0  0.12610  0.11789  0.60454  1.0000
  C   C497      1.0  0.10726  0.12373  0.62268  1.0000
  C   C498      1.0  0.11983  0.10043  0.62389  1.0000
  C   C499      1.0  0.10467  0.11014  0.60842  1.0000
  C   C500      1.0  0.09188  0.10743  0.61640  1.0000
  C   C501      1.0  0.10787  0.10918  0.59457  1.0000
  C   C502      1.0  0.08271  0.10431  0.61086  1.0000
  C   C503      1.0  0.09862  0.10609  0.58909  1.0000
  C   C504      1.0  0.08606  0.10367  0.59720  1.0000
  H   H598      1.0  0.13290  0.10985  0.59916  1.0000
  H   H599      1.0  0.12246  0.12694  0.59686  1.0000
  H   H600      1.0  0.13276  0.12086  0.60933  1.0000
  H   H601      1.0  0.09929  0.12046  0.63165  1.0000
  H   H602      1.0  0.10223  0.13306  0.61626  1.0000
  H   H603      1.0  0.11449  0.12668  0.62678  1.0000
  H   H604      1.0  0.11157  0.09672  0.63229  1.0000
  H   H605      1.0  0.12500  0.09208  0.61829  1.0000
  H   H606      1.0  0.12744  0.10193  0.62863  1.0000
  H   H607      1.0  0.08889  0.10754  0.62707  1.0000
  H   H608      1.0  0.11735  0.11103  0.58765  1.0000
  H   H609      1.0  0.07300  0.10232  0.61729  1.0000
  H   H610      1.0  0.10120  0.10578  0.57841  1.0000
  C   C505      1.0  0.27508  0.12375  0.70735  1.0000
  H   H611      1.0  0.16074  0.22244  0.60736  1.0000
  H   H612      1.0  0.09324  0.19611  0.72497  1.0000
  H   H613      1.0  0.12612  0.15693  0.67921  1.0000
  C   C506      1.0  0.24858  0.09375  0.72433  1.0000
  C   C507      1.0  0.09477  0.14079  0.48219  1.0000
  H   H614      1.0  0.07237  0.22138  0.72700  1.0000
  N   N36       1.0  0.00858  0.16009  0.69426  1.0000
  H   H615      1.0  0.09933  0.16286  0.49094  1.0000
  C   C508      1.0  0.28127  0.14381  0.71916  1.0000
  H   H616      1.0  0.14840  0.22626  0.57067  1.0000
  S   S137      1.0  0.12637  0.21236  0.71802  1.0000
  H   H617      1.0  0.22891  0.07199  0.71034  1.0000
  H   H618      1.0  0.29009  0.13943  0.71162  1.0000
  C   C509      1.0  0.16721  0.22219  0.66364  1.0000
  H   H619      1.0  0.26312  0.23251  0.64048  1.0000
  H   H620      1.0  0.02422  0.15873  0.70476  1.0000
  C   C510      1.0  0.35864  0.23452  0.67957  1.0000
  H   H621      1.0  0.01420  0.16568  0.67232  1.0000
  C   C511      1.0  0.01290  0.16232  0.70568  1.0000
  C   C512      1.0  0.10836  0.98689  0.67253  1.0000
  H   H622      1.0  0.01201  0.14299  0.68499  1.0000
  H   H623      1.0  0.10418  0.16720  0.51065  1.0000
  H   H624      1.0  0.13948  0.23439  0.69379  1.0000
  H   H625      1.0  0.14086  0.98772  0.59661  1.0000
  C   C513      1.0  0.23098  0.04039  0.73038  1.0000
  H   H626      1.0  0.99427  0.15753  0.67708  1.0000
  Fe  Fe70      1.0  0.36488  0.11307  0.92037  1.0000
  S   S138      1.0  0.34832  0.13032  0.91353  1.0000
  S   S139      1.0  0.37705  0.10028  0.90520  1.0000
  Fe  Fe71      1.0  0.36235  0.12255  0.94646  1.0000
  S   S140      1.0  0.34539  0.14055  0.94172  1.0000
  Fe  Fe72      1.0  0.33725  0.12614  0.93530  1.0000
  S   S141      1.0  0.31500  0.12535  0.94128  1.0000
  Fe  Fe73      1.0  0.35801  0.14293  0.92039  1.0000
  S   S142      1.0  0.36191  0.16291  0.90773  1.0000
  S   S143      1.0  0.35316  0.10769  0.94182  1.0000
  S   S144      1.0  0.37562  0.12610  0.92542  1.0000
  Fe  Fe74      1.0  0.37123  0.06597  0.84948  1.0000
  S   S145      1.0  0.35095  0.07467  0.86183  1.0000
  S   S146      1.0  0.38507  0.08078  0.83803  1.0000
  Fe  Fe75      1.0  0.36394  0.03807  0.85550  1.0000
  S   S147      1.0  0.34330  0.04472  0.86875  1.0000
  Fe  Fe76      1.0  0.34174  0.06371  0.85238  1.0000
  S   S148      1.0  0.32182  0.07526  0.84634  1.0000
  Fe  Fe77      1.0  0.35434  0.05512  0.87705  1.0000
  S   S149      1.0  0.34935  0.05662  0.89901  1.0000
  S   S150      1.0  0.36171  0.05660  0.83852  1.0000
  S   S151      1.0  0.37531  0.04685  0.86531  1.0000
  Fe  Fe78      1.0  0.46051  0.12344  0.85114  1.0000
  S   S152      1.0  0.44914  0.14481  0.84437  1.0000
  Fe  Fe79      1.0  0.43433  0.11228  0.85794  1.0000
  S   S153      1.0  0.42096  0.13287  0.85239  1.0000
  S   S154      1.0  0.42475  0.09392  0.86672  1.0000
  Fe  Fe80      1.0  0.43832  0.13596  0.83429  1.0000
  S   S155      1.0  0.43488  0.14452  0.81292  1.0000
  Fe  Fe81      1.0  0.43283  0.13977  0.86300  1.0000
  S   S156      1.0  0.42395  0.15486  0.87649  1.0000
  S   S157      1.0  0.45115  0.11485  0.83925  1.0000
  S   S158      1.0  0.44474  0.11890  0.87041  1.0000
  Fe  Fe82      1.0  0.29625  0.09223  0.78271  1.0000
  S   S159      1.0  0.29433  0.09935  0.76082  1.0000
  S   S160      1.0  0.31100  0.07327  0.79060  1.0000
  Fe  Fe83      1.0  0.27561  0.11635  0.79171  1.0000
  S   S161      1.0  0.27180  0.12558  0.77092  1.0000
  S   S162      1.0  0.26376  0.12778  0.80815  1.0000
  Fe  Fe84      1.0  0.27157  0.10469  0.76958  1.0000
  H   H627      1.0  0.40127  0.13559  0.92348  1.0000
  Fe  Fe85      1.0  0.29453  0.11976  0.76371  1.0000
  S   S163      1.0  0.30392  0.13633  0.74865  1.0000
  S   S164      1.0  0.27348  0.09581  0.79132  1.0000
  S   S165      1.0  0.29845  0.11224  0.78465  1.0000
  H   H628      1.0  0.36900  0.01817  0.82286  1.0000
  H   H629      1.0  0.40953  0.18175  0.79382  1.0000
  C   C514      1.0  0.41295  0.20034  0.77087  1.0000
  H   H630      1.0  0.41906  0.07381  0.91186  1.0000
  H   H631      1.0  0.19482  0.19488  0.83935  1.0000
  H   H632      1.0  0.37747  0.20689  0.79720  1.0000
  C   C515      1.0  0.21263  0.07608  0.75395  1.0000
  S   S166      1.0  0.37246  0.01688  0.85092  1.0000
  H   H633      1.0  0.32486  0.16096  0.82667  1.0000
  C   C516      1.0  0.36282  0.00520  0.85134  1.0000
  C   C517      1.0  0.32378  0.15350  0.82190  1.0000
  Fe  Fe86      1.0  0.36731  0.17051  0.78663  1.0000
  S   S167      1.0  0.37819  0.16398  0.76700  1.0000
  S   S168      1.0  0.37314  0.16460  0.80698  1.0000
  Fe  Fe87      1.0  0.34187  0.18636  0.77594  1.0000
  S   S169      1.0  0.35022  0.18129  0.75531  1.0000
  S   S170      1.0  0.32059  0.19744  0.78379  1.0000
  Fe  Fe88      1.0  0.35801  0.16036  0.76681  1.0000
  S   S171      1.0  0.35729  0.14033  0.76352  1.0000
  Fe  Fe89      1.0  0.36962  0.18550  0.75698  1.0000
  H   H634      1.0  0.13591  0.22082  0.73674  1.0000
  S   S172      1.0  0.34786  0.16506  0.78728  1.0000
  S   S173      1.0  0.36055  0.19239  0.77668  1.0000
  C   C518      1.0  0.17812  0.22605  0.86115  1.0000
  Fe  Fe90      1.0  0.26527  0.17790  0.85743  1.0000
  S   S174      1.0  0.26647  0.15675  0.87027  1.0000
  S   S175      1.0  0.24766  0.19036  0.84774  1.0000
  Fe  Fe91      1.0  0.29475  0.17750  0.85614  1.0000
  S   S176      1.0  0.29865  0.15657  0.86904  1.0000
  S   S177      1.0  0.31229  0.18791  0.84728  1.0000
  Fe  Fe92      1.0  0.28715  0.15168  0.85659  1.0000
  S   S178      1.0  0.29644  0.13301  0.84805  1.0000
  Fe  Fe93      1.0  0.27789  0.16344  0.88166  1.0000
  S   S179      1.0  0.27269  0.15836  0.90443  1.0000
  S   S180      1.0  0.28498  0.17201  0.84260  1.0000
  S   S181      1.0  0.27496  0.18511  0.86994  1.0000
  C   C519      1.0  0.32061  0.13435  0.80972  1.0000
  H   H635      1.0  0.39043  0.12086  0.78715  1.0000
  C   C520      1.0  0.22766  0.21361  0.84673  1.0000
  C   C521      1.0  0.23613  0.20385  0.85469  1.0000
  C   C522      1.0  0.23532  0.20511  0.86784  1.0000
  H   H636      1.0  0.40112  0.19822  0.79737  1.0000
  H   H637      1.0  0.47491  0.13588  0.86912  1.0000
  H   H638      1.0  0.22825  0.21271  0.83655  1.0000
  H   H639      1.0  0.24179  0.19759  0.87407  1.0000
  H   H640      1.0  0.31950  0.12640  0.80570  1.0000
  C   C523      1.0  0.31840  0.19579  0.80129  1.0000
  C   C524      1.0  0.32978  0.19186  0.80723  1.0000
  C   C525      1.0  0.32793  0.18995  0.82133  1.0000
  C   C526      1.0  0.31470  0.19155  0.82955  1.0000
  C   C527      1.0  0.30336  0.19547  0.82361  1.0000
  C   C528      1.0  0.30517  0.19776  0.80950  1.0000
  H   H641      1.0  0.34002  0.19025  0.80101  1.0000
  H   H642      1.0  0.33676  0.18686  0.82586  1.0000
  H   H643      1.0  0.29318  0.19668  0.82992  1.0000
  H   H644      1.0  0.29636  0.20068  0.80497  1.0000
  H   H645      1.0  0.27555  0.11402  0.74018  1.0000
  H   H646      1.0  0.38527  0.10206  0.81376  1.0000
  H   H647      1.0  0.20413  0.05148  0.73392  1.0000
  S   S182      1.0  0.37290  0.11717  0.96413  1.0000
  H   H648      1.0  0.48655  0.14474  0.83495  1.0000
  H   H649      1.0  0.35482  0.21208  0.74376  1.0000
  H   H650      1.0  0.35748  0.13360  0.81054  1.0000
  N   N37       1.0  0.26620  0.22638  0.83277  1.0000
  H   H651      1.0  0.38012  0.15275  0.92649  1.0000
  H   H652      1.0  0.25980  0.21270  0.85162  1.0000
  H   H653      1.0  0.36370  0.09674  0.82445  1.0000
  H   H654      1.0  0.28813  0.22291  0.82481  1.0000
  C   C529      1.0  0.22581  0.21595  0.87306  1.0000
  H   H655      1.0  0.34298  0.01846  0.85584  1.0000
  H   H656      1.0  0.37715  0.12020  0.77999  1.0000
  H   H657      1.0  0.40081  0.10959  0.90258  1.0000
  C   C530      1.0  0.40047  0.19032  0.79251  1.0000
  C   C531      1.0  0.40171  0.13524  0.93406  1.0000
  C   C532      1.0  0.07078  0.21198  0.73481  1.0000
  H   H658      1.0  0.43526  0.09773  0.92330  1.0000
  H   H659      1.0  0.40371  0.08481  0.90712  1.0000
  C   C533      1.0  0.28769  0.13208  0.83645  1.0000
  C   C534      1.0  0.27496  0.14080  0.83536  1.0000
  C   C535      1.0  0.26768  0.13942  0.82660  1.0000
  C   C536      1.0  0.27329  0.12960  0.81866  1.0000
  C   C537      1.0  0.28617  0.12110  0.81953  1.0000
  C   C538      1.0  0.29326  0.12220  0.82858  1.0000
  H   H660      1.0  0.27057  0.14840  0.84147  1.0000
  H   H661      1.0  0.25771  0.14602  0.82596  1.0000
  H   H662      1.0  0.29055  0.11348  0.81349  1.0000
  H   H663      1.0  0.30303  0.11534  0.82957  1.0000
  C   C539      1.0  0.31889  0.13747  0.75249  1.0000
  C   C540      1.0  0.32222  0.15014  0.74982  1.0000
  C   C541      1.0  0.33397  0.15116  0.75320  1.0000
  C   C542      1.0  0.34260  0.13946  0.75895  1.0000
  C   C543      1.0  0.33945  0.12677  0.76127  1.0000
  C   C544      1.0  0.32748  0.12579  0.75831  1.0000
  C   C545      1.0  0.38660  0.21411  0.76242  1.0000
  H   H664      1.0  0.33644  0.16097  0.75119  1.0000
  H   H665      1.0  0.34628  0.11767  0.76536  1.0000
  H   H666      1.0  0.32507  0.11596  0.76023  1.0000
  H   H667      1.0  0.47961  0.16184  0.82755  1.0000
  C   C546      1.0  0.35662  0.03667  0.80283  1.0000
  C   C547      1.0  0.40727  0.09774  0.94915  1.0000
  H   H668      1.0  0.26742  0.14322  0.74452  1.0000
  H   H669      1.0  0.41402  0.15653  0.92846  1.0000
  C   C548      1.0  0.39221  0.16149  0.96946  1.0000
  C   C549      1.0  0.20848  0.19071  0.87127  1.0000
  H   H670      1.0  0.34022  0.02113  0.79946  1.0000
  C   C550      1.0  0.21416  0.18141  0.86286  1.0000
  H   H671      1.0  0.41875  0.08190  0.89447  1.0000
  C   C551      1.0  0.41768  0.14969  0.81138  1.0000
  C   C552      1.0  0.41445  0.15013  0.79913  1.0000
  C   C553      1.0  0.40077  0.15447  0.79768  1.0000
  C   C554      1.0  0.39033  0.15862  0.80841  1.0000
  C   C555      1.0  0.39359  0.15832  0.82057  1.0000
  C   C556      1.0  0.40720  0.15382  0.82209  1.0000
  H   H672      1.0  0.42255  0.14697  0.79081  1.0000
  H   H673      1.0  0.39833  0.15457  0.78829  1.0000
  H   H674      1.0  0.38562  0.16189  0.82877  1.0000
  H   H675      1.0  0.40965  0.15394  0.83138  1.0000
  C   C557      1.0  0.39666  0.08377  0.84582  1.0000
  C   C558      1.0  0.40408  0.09393  0.83898  1.0000
  C   C559      1.0  0.41290  0.09700  0.84516  1.0000
  C   C560      1.0  0.41436  0.08993  0.85826  1.0000
  C   C561      1.0  0.40713  0.07962  0.86500  1.0000
  C   C562      1.0  0.39829  0.07657  0.85883  1.0000
  H   H676      1.0  0.40304  0.09944  0.82885  1.0000
  H   H677      1.0  0.41859  0.10482  0.83978  1.0000
  H   H678      1.0  0.40825  0.07404  0.87510  1.0000
  H   H679      1.0  0.39275  0.06865  0.86417  1.0000
  C   C563      1.0  0.31865  0.07396  0.83122  1.0000
  C   C564      1.0  0.32671  0.06386  0.82417  1.0000
  C   C565      1.0  0.32414  0.06352  0.81182  1.0000
  C   C566      1.0  0.31371  0.07335  0.80639  1.0000
  C   C567      1.0  0.30562  0.08334  0.81352  1.0000
  C   C568      1.0  0.30803  0.08360  0.82592  1.0000
  H   H680      1.0  0.33493  0.05641  0.82819  1.0000
  H   H681      1.0  0.33031  0.05579  0.80633  1.0000
  H   H682      1.0  0.29751  0.09085  0.80944  1.0000
  H   H683      1.0  0.30189  0.09152  0.83125  1.0000
  C   C569      1.0  0.37885  0.16070  0.89819  1.0000
  C   C570      1.0  0.38588  0.17103  0.89544  1.0000
  C   C571      1.0  0.39970  0.16911  0.88868  1.0000
  C   C572      1.0  0.40646  0.15702  0.88426  1.0000
  C   C573      1.0  0.39935  0.14677  0.88667  1.0000
  C   C574      1.0  0.38557  0.14853  0.89384  1.0000
  H   H684      1.0  0.38074  0.18042  0.89881  1.0000
  H   H685      1.0  0.40519  0.17704  0.88681  1.0000
  H   H686      1.0  0.40455  0.13745  0.88322  1.0000
  H   H687      1.0  0.38014  0.14054  0.89593  1.0000
  C   C575      1.0  0.37000  0.08734  0.90417  1.0000
  C   C576      1.0  0.37370  0.08291  0.89197  1.0000
  C   C577      1.0  0.36749  0.07337  0.89041  1.0000
  C   C578      1.0  0.35791  0.06781  0.90124  1.0000
  C   C579      1.0  0.35475  0.07169  0.91374  1.0000
  C   C580      1.0  0.36067  0.08158  0.91516  1.0000
  H   H688      1.0  0.38130  0.08695  0.88367  1.0000
  H   H689      1.0  0.37019  0.07025  0.88083  1.0000
  H   H690      1.0  0.34757  0.06718  0.92225  1.0000
  H   H691      1.0  0.35803  0.08473  0.92473  1.0000
  C   C581      1.0  0.30390  0.13477  0.93041  1.0000
  C   C582      1.0  0.30863  0.13944  0.91642  1.0000
  C   C583      1.0  0.29918  0.14629  0.90809  1.0000
  C   C584      1.0  0.28505  0.14878  0.91387  1.0000
  C   C585      1.0  0.28045  0.14406  0.92779  1.0000
  C   C586      1.0  0.28980  0.13697  0.93598  1.0000
  H   H692      1.0  0.31949  0.13776  0.91202  1.0000
  H   H693      1.0  0.30279  0.15001  0.89736  1.0000
  H   H694      1.0  0.26956  0.14597  0.93231  1.0000
  H   H695      1.0  0.28607  0.13331  0.94674  1.0000
  C   C587      1.0  0.36078  0.21770  0.73495  1.0000
  C   C588      1.0  0.19796  0.20189  0.86812  1.0000
  H   H696      1.0  0.33747  0.10681  0.78880  1.0000
  N   N38       1.0  0.26053  0.09257  0.84232  1.0000
  C   C589      1.0  0.26982  0.08999  0.82926  1.0000
  C   C590      1.0  0.25591  0.07994  0.85014  1.0000
  C   C591      1.0  0.24824  0.10303  0.83908  1.0000
  C   C592      1.0  0.26793  0.09661  0.85021  1.0000
  C   C593      1.0  0.26366  0.10935  0.85419  1.0000
  C   C594      1.0  0.27983  0.08764  0.85420  1.0000
  C   C595      1.0  0.27093  0.11276  0.86165  1.0000
  C   C596      1.0  0.28707  0.09124  0.86154  1.0000
  C   C597      1.0  0.28267  0.10379  0.86520  1.0000
  H   H697      1.0  0.27883  0.08149  0.83069  1.0000
  H   H698      1.0  0.26452  0.08731  0.82284  1.0000
  H   H699      1.0  0.27377  0.09916  0.82324  1.0000
  H   H700      1.0  0.26466  0.07117  0.85178  1.0000
  H   H701      1.0  0.24981  0.07689  0.84476  1.0000
  H   H702      1.0  0.24943  0.08127  0.86032  1.0000
  H   H703      1.0  0.25106  0.11272  0.83285  1.0000
  H   H704      1.0  0.24303  0.09982  0.83295  1.0000
  H   H705      1.0  0.24053  0.10518  0.84845  1.0000
  H   H706      1.0  0.25497  0.11702  0.85138  1.0000
  H   H707      1.0  0.28390  0.07788  0.85138  1.0000
  H   H708      1.0  0.26780  0.12269  0.86420  1.0000
  H   H709      1.0  0.29636  0.08437  0.86412  1.0000
  H   H710      1.0  0.28859  0.10674  0.87046  1.0000
  C   C598      1.0  0.40140  0.13689  0.96085  1.0000
  H   H711      1.0  0.42210  0.19224  0.77303  1.0000
  H   H712      1.0  0.36009  0.13613  0.79248  1.0000
  H   H713      1.0  0.36382  0.04049  0.81876  1.0000
  C   C599      1.0  0.40183  0.09562  0.92901  1.0000
  C   C600      1.0  0.36150  0.04445  0.80881  1.0000
  N   N39       1.0  0.39997  0.19583  0.77797  1.0000
  H   H714      1.0  0.33335  0.13635  0.83541  1.0000
  S   S183      1.0  0.38322  0.19700  0.73963  1.0000
  C   C601      1.0  0.35349  0.04292  0.78987  1.0000
  C   C602      1.0  0.40322  0.15860  0.92747  1.0000
  H   H715      1.0  0.23027  0.11011  0.74989  1.0000
  H   H716      1.0  0.27290  0.09013  0.74203  1.0000
  C   C603      1.0  0.26304  0.09334  0.73929  1.0000
  C   C604      1.0  0.37745  0.21161  0.78668  1.0000
  C   C605      1.0  0.07979  0.19346  0.75151  1.0000
  H   H717      1.0  0.35798  0.22507  0.79260  1.0000
  C   C606      1.0  0.20907  0.18302  0.85145  1.0000
  N   N40       1.0  0.18196  0.21599  0.85240  1.0000
  C   C607      1.0  0.38117  0.15265  0.93677  1.0000
  C   C608      1.0  0.35919  0.00178  0.88798  1.0000
  C   C609      1.0  0.39190  0.16115  0.95632  1.0000
  H   H718      1.0  0.33927  0.00649  0.88362  1.0000
  C   C610      1.0  0.36982  0.99234  0.84862  1.0000
  H   H719      1.0  0.41269  0.13164  0.93465  1.0000
  H   H720      1.0  0.37924  0.99425  0.89227  1.0000
  H   H721      1.0  0.27188  0.20828  0.82454  1.0000
  C   C611      1.0  0.36128  0.10947  0.80439  1.0000
  C   C612      1.0  0.22456  0.06214  0.73692  1.0000
  H   H722      1.0  0.06740  0.23244  0.74490  1.0000
  C   C613      1.0  0.36306  0.05766  0.80231  1.0000
  H   H723      1.0  0.49037  0.16967  0.83984  1.0000
  H   H724      1.0  0.38826  0.17090  0.97304  1.0000
  C   C614      1.0  0.26859  0.21753  0.84601  1.0000
  H   H725      1.0  0.27042  0.22329  0.85253  1.0000
  C   C615      1.0  0.19272  0.20401  0.85638  1.0000
  H   H726      1.0  0.37546  0.01342  0.80668  1.0000
  C   C616      1.0  0.25182  0.10064  0.74730  1.0000
  C   C617      1.0  0.34832  0.98654  0.85015  1.0000
  H   H727      1.0  0.36664  0.06345  0.80719  1.0000
  H   H728      1.0  0.37307  0.11437  0.82286  1.0000
  H   H729      1.0  0.33312  0.08929  0.80949  1.0000
  C   C618      1.0  0.32710  0.13016  0.82064  1.0000
  C   C619      1.0  0.21731  0.22571  0.86508  1.0000
  H   H730      1.0  0.37604  0.16297  0.93869  1.0000
  H   H731      1.0  0.39405  0.09490  0.92442  1.0000
  H   H732      1.0  0.41448  0.10775  0.88805  1.0000
  H   H733      1.0  0.39834  0.16928  0.92832  1.0000
  N   N41       1.0  0.31483  0.09810  0.91426  1.0000
  C   C620      1.0  0.31699  0.08311  0.91658  1.0000
  C   C621      1.0  0.32545  0.10134  0.91897  1.0000
  C   C622      1.0  0.30129  0.10306  0.92291  1.0000
  C   C623      1.0  0.31596  0.10418  0.89959  1.0000
  C   C624      1.0  0.30523  0.11422  0.89436  1.0000
  C   C625      1.0  0.32813  0.10005  0.88999  1.0000
  C   C626      1.0  0.30653  0.11937  0.88039  1.0000
  C   C627      1.0  0.32934  0.10537  0.87605  1.0000
  C   C628      1.0  0.31851  0.11492  0.87126  1.0000
  H   H734      1.0  0.32733  0.07830  0.91131  1.0000
  H   H735      1.0  0.31603  0.07817  0.92755  1.0000
  H   H736      1.0  0.30944  0.08028  0.91277  1.0000
  H   H737      1.0  0.32422  0.11249  0.91731  1.0000
  H   H738      1.0  0.33596  0.09733  0.91351  1.0000
  H   H739      1.0  0.32495  0.09708  0.93003  1.0000
  H   H740      1.0  0.29281  0.10059  0.92022  1.0000
  H   H741      1.0  0.30089  0.09844  0.93389  1.0000
  H   H742      1.0  0.29912  0.11422  0.92204  1.0000
  H   H743      1.0  0.29566  0.11822  0.90081  1.0000
  H   H744      1.0  0.33676  0.09248  0.89317  1.0000
  H   H745      1.0  0.29809  0.12676  0.87659  1.0000
  H   H746      1.0  0.33861  0.10185  0.86892  1.0000
  H   H747      1.0  0.31934  0.11878  0.86042  1.0000
  N   N42       1.0  0.41924  0.09512  0.90687  1.0000
  C   C629      1.0  0.43421  0.09343  0.90090  1.0000
  C   C630      1.0  0.41501  0.08343  0.90509  1.0000
  C   C631      1.0  0.41214  0.10788  0.89903  1.0000
  C   C632      1.0  0.21846  0.22460  0.85184  1.0000
  H   H748      1.0  0.38770  0.17057  0.95002  1.0000
  H   H749      1.0  0.43803  0.10244  0.90057  1.0000
  H   H750      1.0  0.18710  0.22998  0.86086  1.0000
  C   C633      1.0  0.07611  0.22843  0.74956  1.0000
  H   H751      1.0  0.20320  0.08180  0.75922  1.0000
  H   H752      1.0  0.41527  0.11686  0.89989  1.0000
  H   H753      1.0  0.48880  0.15023  0.81673  1.0000
  C   C634      1.0  0.18678  0.22308  0.83819  1.0000
  H   H754      1.0  0.34602  0.08467  0.82738  1.0000
  N   N43       1.0  0.37564  0.12488  0.86054  1.0000
  C   C635      1.0  0.37763  0.12598  0.87363  1.0000
  C   C636      1.0  0.37516  0.11065  0.86153  1.0000
  C   C637      1.0  0.38795  0.12785  0.84995  1.0000
  C   C638      1.0  0.36260  0.13406  0.85772  1.0000
  C   C639      1.0  0.34998  0.13286  0.86719  1.0000
  C   C640      1.0  0.36192  0.14425  0.84560  1.0000
  C   C641      1.0  0.33756  0.14154  0.86485  1.0000
  C   C642      1.0  0.34947  0.15297  0.84342  1.0000
  C   C643      1.0  0.33733  0.15169  0.85306  1.0000
  H   H755      1.0  0.37769  0.13662  0.87347  1.0000
  H   H756      1.0  0.36956  0.12265  0.88246  1.0000
  H   H757      1.0  0.38752  0.11936  0.87591  1.0000
  H   H758      1.0  0.36689  0.10715  0.87001  1.0000
  H   H759      1.0  0.38491  0.10352  0.86348  1.0000
  H   H760      1.0  0.37362  0.10926  0.85197  1.0000
  H   H761      1.0  0.38905  0.13840  0.84873  1.0000
  H   H762      1.0  0.39756  0.12099  0.85262  1.0000
  H   H763      1.0  0.38777  0.12631  0.83993  1.0000
  H   H764      1.0  0.34964  0.12512  0.87648  1.0000
  H   H765      1.0  0.37086  0.14575  0.83760  1.0000
  H   H766      1.0  0.32804  0.14036  0.87220  1.0000
  H   H767      1.0  0.34926  0.16077  0.83414  1.0000
  H   H768      1.0  0.32771  0.15850  0.85128  1.0000
  C   C644      1.0  0.34850  0.00862  0.85368  1.0000
  N   N44       1.0  0.32502  0.17624  0.89096  1.0000
  C   C645      1.0  0.33319  0.18594  0.89050  1.0000
  C   C646      1.0  0.33449  0.16310  0.88882  1.0000
  C   C647      1.0  0.31812  0.18172  0.87936  1.0000
  C   C648      1.0  0.31538  0.17420  0.90438  1.0000
  C   C649      1.0  0.32047  0.16826  0.91640  1.0000
  C   C650      1.0  0.30087  0.17794  0.90597  1.0000
  C   C651      1.0  0.31161  0.16585  0.92914  1.0000
  C   C652      1.0  0.29211  0.17560  0.91880  1.0000
  C   C653      1.0  0.29746  0.16947  0.93033  1.0000
  H   H769      1.0  0.33934  0.18220  0.89843  1.0000
  H   H770      1.0  0.34061  0.18775  0.88057  1.0000
  H   H771      1.0  0.32642  0.19591  0.89218  1.0000
  H   H772      1.0  0.34145  0.15913  0.89601  1.0000
  H   H773      1.0  0.34130  0.16406  0.87847  1.0000
  H   H774      1.0  0.32865  0.15524  0.89018  1.0000
  H   H775      1.0  0.31132  0.19195  0.87981  1.0000
  H   H776      1.0  0.32566  0.18298  0.86942  1.0000
  H   H777      1.0  0.31194  0.17480  0.87893  1.0000
  H   H778      1.0  0.33136  0.16527  0.91603  1.0000
  H   H779      1.0  0.29596  0.18234  0.89749  1.0000
  H   H780      1.0  0.31572  0.16085  0.93812  1.0000
  H   H781      1.0  0.28109  0.17803  0.91972  1.0000
  H   H782      1.0  0.29063  0.16722  0.94017  1.0000
  C   C654      1.0  0.39653  0.14884  0.95158  1.0000
  N   N45       1.0  0.35398  0.02316  0.81046  1.0000
  C   C655      1.0  0.36611  0.22210  0.78419  1.0000
  C   C656      1.0  0.36634  0.01434  0.81527  1.0000
  H   H783      1.0  0.08865  0.18782  0.75622  1.0000
  N   N46       1.0  0.30789  0.15321  0.79350  1.0000
  C   C657      1.0  0.29366  0.16038  0.79864  1.0000
  C   C658      1.0  0.31488  0.16276  0.78227  1.0000
  C   C659      1.0  0.30705  0.14213  0.78771  1.0000
  C   C660      1.0  0.31534  0.14836  0.80466  1.0000
  C   C661      1.0  0.31720  0.15779  0.81106  1.0000
  H   H784      1.0  0.29333  0.16967  0.80198  1.0000
  H   H785      1.0  0.28749  0.16365  0.79074  1.0000
  H   H786      1.0  0.28833  0.15367  0.80753  1.0000
  H   H787      1.0  0.32585  0.15796  0.77876  1.0000
  H   H788      1.0  0.31457  0.17220  0.78529  1.0000
  H   H789      1.0  0.31005  0.16605  0.77334  1.0000
  H   H790      1.0  0.30120  0.13497  0.79543  1.0000
  H   H791      1.0  0.30165  0.14609  0.77916  1.0000
  H   H792      1.0  0.31744  0.13638  0.78352  1.0000
  H   H793      1.0  0.31345  0.16859  0.80779  1.0000
  C   C662      1.0  0.34250  0.02499  0.82239  1.0000
  C   C663      1.0  0.35018  0.01577  0.80235  1.0000
  H   H794      1.0  0.33315  0.03199  0.81929  1.0000
  H   H795      1.0  0.33968  0.01517  0.82810  1.0000
  H   H796      1.0  0.34510  0.02932  0.82967  1.0000
  H   H797      1.0  0.34880  0.00543  0.80823  1.0000
  H   H798      1.0  0.35828  0.01436  0.79300  1.0000
  H   H799      1.0  0.36482  0.00391  0.82051  1.0000
  C   C664      1.0  0.22509  0.07579  0.75663  1.0000
  C   C665      1.0  0.41543  0.09583  0.92140  1.0000
  H   H800      1.0  0.43675  0.09232  0.89013  1.0000
  H   H801      1.0  0.33053  0.11940  0.82467  1.0000
  C   C666      1.0  0.35833  0.09939  0.81635  1.0000
  H   H802      1.0  0.35486  0.11958  0.78539  1.0000
  H   H803      1.0  0.17365  0.22171  0.87189  1.0000
  H   H804      1.0  0.17118  0.20463  0.84627  1.0000
  C   C667      1.0  0.32863  0.13969  0.82675  1.0000
  H   H805      1.0  0.38777  0.11892  0.81066  1.0000
  H   H806      1.0  0.38996  0.18066  0.77771  1.0000
  C   C668      1.0  0.23903  0.10452  0.74372  1.0000
  C   C669      1.0  0.42475  0.09730  0.92827  1.0000
  C   C670      1.0  0.39939  0.18455  0.77235  1.0000
  H   H807      1.0  0.35214  0.06091  0.77382  1.0000
  H   H808      1.0  0.41428  0.20291  0.75964  1.0000
  H   H809      1.0  0.26394  0.22320  0.81403  1.0000
  S   S184      1.0  0.48370  0.11795  0.84963  1.0000
  C   C671      1.0  0.19841  0.19406  0.84831  1.0000
  C   C672      1.0  0.49366  0.13837  0.87232  1.0000
  H   H810      1.0  0.20230  0.07015  0.74263  1.0000
  H   H811      1.0  0.35907  0.01230  0.88743  1.0000
  C   C673      1.0  0.16938  0.21156  0.85322  1.0000
  H   H812      1.0  0.31563  0.15919  0.74525  1.0000
  S   S185      1.0  0.25297  0.10481  0.76214  1.0000
  H   H813      1.0  0.16104  0.22042  0.85035  1.0000
  H   H814      1.0  0.18775  0.21709  0.83062  1.0000
  C   C674      1.0  0.23706  0.06207  0.73992  1.0000
  H   H815      1.0  0.38648  0.10474  0.78886  1.0000
  C   C675      1.0  0.34820  0.09227  0.81816  1.0000
  C   C676      1.0  0.36532  0.13189  0.80111  1.0000
  H   H816      1.0  0.37292  0.13815  0.79951  1.0000
  C   C677      1.0  0.38189  0.11567  0.78896  1.0000
  C   C678      1.0  0.34083  0.09488  0.80819  1.0000
  N   N47       1.0  0.37191  0.11728  0.80198  1.0000
  C   C679      1.0  0.37980  0.11295  0.81282  1.0000
  C   C680      1.0  0.35335  0.11199  0.79460  1.0000
  C   C681      1.0  0.34335  0.10475  0.79646  1.0000
  C   C682      1.0  0.39788  0.09646  0.94267  1.0000
  C   C683      1.0  0.26391  0.21788  0.82476  1.0000
  C   C684      1.0  0.36500  0.22855  0.77091  1.0000
  H   H817      1.0  0.38742  0.09620  0.94827  1.0000
  C   C685      1.0  0.37524  0.22459  0.76006  1.0000
  C   C686      1.0  0.42067  0.09819  0.94196  1.0000
  H   H818      1.0  0.22537  0.08130  0.76387  1.0000
  H   H819      1.0  0.33022  0.00207  0.85485  1.0000
  H   H820      1.0  0.39593  0.12748  0.94080  1.0000
  C   C687      1.0  0.09606  0.21142  0.75518  1.0000
  C   C688      1.0  0.38806  0.20724  0.77580  1.0000
  H   H821      1.0  0.41331  0.20948  0.77407  1.0000
  C   C689      1.0  0.34130  0.99930  0.85313  1.0000
  H   H822      1.0  0.42796  0.09916  0.94707  1.0000
  N   N48       1.0  0.08250  0.20609  0.74164  1.0000
  H   H823      1.0  0.40405  0.09845  0.95975  1.0000
  N   N49       1.0  0.39574  0.14873  0.93774  1.0000
  H   H824      1.0  0.37524  0.14540  0.94429  1.0000
  H   H825      1.0  0.40352  0.15815  0.91689  1.0000
  C   C690      1.0  0.40180  0.13739  0.97391  1.0000
  H   H826      1.0  0.19695  0.22538  0.83677  1.0000
  H   H827      1.0  0.39928  0.18770  0.76135  1.0000
  H   H828      1.0  0.19446  0.20894  0.87484  1.0000
  H   H829      1.0  0.39400  0.21116  0.75360  1.0000
  H   H830      1.0  0.07075  0.19577  0.75988  1.0000
  H   H831      1.0  0.44019  0.08415  0.90656  1.0000
  C   C691      1.0  0.09850  0.22000  0.76190  1.0000
  H   H832      1.0  0.37424  0.22943  0.74971  1.0000
  H   H833      1.0  0.48837  0.14527  0.87909  1.0000
  H   H834      1.0  0.40834  0.17586  0.77347  1.0000
  H   H835      1.0  0.10323  0.20176  0.75485  1.0000
  H   H836      1.0  0.10401  0.19663  0.73525  1.0000
  C   C692      1.0  0.36265  0.14067  0.97453  1.0000
  C   C693      1.0  0.08481  0.21538  0.74875  1.0000
  C   C694      1.0  0.35973  0.06354  0.78972  1.0000
  C   C695      1.0  0.08981  0.23271  0.76251  1.0000
  H   H837      1.0  0.27773  0.20905  0.84472  1.0000
  H   H838      1.0  0.06090  0.21433  0.74222  1.0000
  H   H839      1.0  0.21265  0.18955  0.88000  1.0000
  H   H840      1.0  0.21362  0.17581  0.84489  1.0000
  H   H841      1.0  0.36066  0.07389  0.78484  1.0000
  H   H842      1.0  0.22542  0.03577  0.74058  1.0000
  H   H843      1.0  0.28632  0.12438  0.74090  1.0000
  C   C696      1.0  0.34805  0.99848  0.88581  1.0000
  C   C697      1.0  0.26243  0.14020  0.73806  1.0000
  C   C698      1.0  0.23726  0.06876  0.74966  1.0000
  H   H844      1.0  0.40460  0.12696  0.95844  1.0000
  H   H845      1.0  0.35821  0.14524  0.96573  1.0000
  H   H846      1.0  0.25385  0.21495  0.82920  1.0000
  H   H847      1.0  0.16544  0.20612  0.86372  1.0000
  H   H848      1.0  0.39132  0.18607  0.79835  1.0000
  H   H849      1.0  0.17952  0.23286  0.83530  1.0000
  H   H850      1.0  0.24684  0.05717  0.73449  1.0000
  H   H851      1.0  0.22499  0.21676  0.88333  1.0000
  H   H852      1.0  0.34946  0.03797  0.78459  1.0000
  C   C699      1.0  0.35499  0.05618  0.78350  1.0000
  H   H853      1.0  0.25614  0.13295  0.74505  1.0000
  H   H854      1.0  0.24696  0.06892  0.75148  1.0000
  H   H855      1.0  0.22274  0.17311  0.86503  1.0000
  C   C700      1.0  0.21229  0.06933  0.74430  1.0000
  C   C701      1.0  0.36982  0.12709  0.97638  1.0000
  H   H856      1.0  0.07772  0.18634  0.74654  1.0000
  H   H857      1.0  0.38091  0.98963  0.84675  1.0000
  C   C702      1.0  0.48865  0.15324  0.82615  1.0000
  C   C703      1.0  0.48600  0.13306  0.86669  1.0000
  C   C704      1.0  0.12686  0.22836  0.73456  1.0000
  H   H858      1.0  0.10739  0.21695  0.76638  1.0000
  C   C705      1.0  0.27888  0.23140  0.82557  1.0000
  C   C706      1.0  0.23741  0.10114  0.73228  1.0000
  C   C707      1.0  0.49273  0.12419  0.85786  1.0000
  C   C708      1.0  0.39719  0.14964  0.97821  1.0000
  H   H859      1.0  0.21225  0.23216  0.84551  1.0000
  C   C709      1.0  0.28157  0.12173  0.73400  1.0000
  H   H860      1.0  0.25548  0.14958  0.73374  1.0000
  H   H861      1.0  0.24727  0.23329  0.85648  1.0000
  C   C710      1.0  0.37057  0.99159  0.89064  1.0000
  H   H862      1.0  0.34355  0.23427  0.73125  1.0000
  C   C711      1.0  0.09488  0.20248  0.73103  1.0000
  C   C712      1.0  0.37485  0.21253  0.73072  1.0000
  H   H863      1.0  0.24191  0.03862  0.73078  1.0000
  C   C713      1.0  0.34838  0.98505  0.88586  1.0000
  Fe  Fe94      1.0  0.24591  0.37364  0.21311  1.0000
  C   C714      1.0  0.14543  0.44097  0.08096  1.0000
  H   H864      1.0  0.10445  0.37513  0.08639  1.0000
  Fe  Fe95      1.0  0.24024  0.36075  0.19263  1.0000
  S   S186      1.0  0.21752  0.36791  0.19879  1.0000
  S   S187      1.0  0.25033  0.34775  0.17699  1.0000
  Fe  Fe96      1.0  0.22220  0.38756  0.19858  1.0000
  S   S188      1.0  0.21120  0.40728  0.18694  1.0000
  H   H865      1.0  0.26622  0.24807  0.15051  1.0000
  C   C715      1.0  0.39999  0.28082  0.20651  1.0000
  S   S189      1.0  0.24497  0.38078  0.19097  1.0000
  S   S190      1.0  0.24305  0.35293  0.21398  1.0000
  H   H866      1.0  0.22279  0.33904  0.19256  1.0000
  H   H867      1.0  0.21862  0.38631  0.11008  1.0000
  Fe  Fe97      1.0  0.22093  0.32561  0.13090  1.0000
  S   S191      1.0  0.20520  0.31294  0.13712  1.0000
  S   S192      1.0  0.21446  0.34505  0.13848  1.0000
  Fe  Fe98      1.0  0.24166  0.30622  0.11425  1.0000
  S   S193      1.0  0.22741  0.29226  0.11874  1.0000
  S   S194      1.0  0.26292  0.29971  0.10175  1.0000
  Fe  Fe99      1.0  0.21118  0.31129  0.11530  1.0000
  S   S195      1.0  0.19336  0.31258  0.10649  1.0000
  Fe  Fe100     1.0  0.22280  0.29518  0.13998  1.0000
  S   S196      1.0  0.22385  0.27648  0.15662  1.0000
  S   S197      1.0  0.22578  0.32524  0.10874  1.0000
  S   S198      1.0  0.23805  0.30796  0.13588  1.0000
  Fe  Fe101     1.0  0.16946  0.29977  0.21448  1.0000
  S   S199      1.0  0.16470  0.32058  0.20148  1.0000
  S   S200      1.0  0.19002  0.28569  0.21459  1.0000
  H   H868      1.0  0.42683  0.31146  0.21835  1.0000
  Fe  Fe102     1.0  0.14584  0.31468  0.20069  1.0000
  S   S201      1.0  0.14058  0.32042  0.18007  1.0000
  H   H869      1.0  0.10174  0.44988  0.11441  1.0000
  C   C716      1.0  0.99788  0.30626  0.14945  1.0000
  H   H870      1.0  0.13859  0.32902  0.03835  1.0000
  H   H871      1.0  0.33695  0.27396  0.14258  1.0000
  Fe  Fe103     1.0  0.07286  0.35824  0.15695  1.0000
  S   S202      1.0  0.05879  0.37848  0.15140  1.0000
  S   S203      1.0  0.07961  0.35189  0.17687  1.0000
  Fe  Fe104     1.0  0.07432  0.35022  0.13088  1.0000
  S   S204      1.0  0.06080  0.36988  0.12282  1.0000
  S   S205      1.0  0.08176  0.33218  0.12109  1.0000
  Fe  Fe105     1.0  0.07297  0.37935  0.13087  1.0000
  S   S206      1.0  0.08221  0.39722  0.11873  1.0000
  Fe  Fe106     1.0  0.04767  0.36723  0.14400  1.0000
  S   S207      1.0  0.02431  0.37099  0.14947  1.0000
  S   S208      1.0  0.08776  0.35987  0.13683  1.0000
  S   S209      1.0  0.06050  0.34688  0.15160  1.0000
  Fe  Fe107     1.0  0.16293  0.35967  0.04986  1.0000
  S   S210      1.0  0.15320  0.38096  0.04051  1.0000
  S   S211      1.0  0.18494  0.35440  0.05156  1.0000
  Fe  Fe108     1.0  0.13654  0.35013  0.05767  1.0000
  S   S212      1.0  0.12451  0.37054  0.04939  1.0000
  S   S213      1.0  0.12663  0.33226  0.06620  1.0000
  Fe  Fe109     1.0  0.14242  0.37088  0.03145  1.0000
  S   S214      1.0  0.13742  0.37922  0.01051  1.0000
  Fe  Fe110     1.0  0.13629  0.37863  0.05914  1.0000
  S   S215      1.0  0.12600  0.39397  0.07237  1.0000
  S   S216      1.0  0.15377  0.34977  0.03914  1.0000
  S   S217      1.0  0.14665  0.35808  0.06908  1.0000
  Fe  Fe111     1.0  0.15495  0.41614  0.14838  1.0000
  S   S218      1.0  0.13986  0.43604  0.14974  1.0000
  S   S219      1.0  0.16251  0.40085  0.16586  1.0000
  Fe  Fe112     1.0  0.15483  0.41823  0.11891  1.0000
  S   S220      1.0  0.16485  0.40667  0.10204  1.0000
  Fe  Fe113     1.0  0.12887  0.42898  0.13820  1.0000
  S   S221      1.0  0.10597  0.43093  0.14435  1.0000
  S   S222      1.0  0.16812  0.42436  0.12868  1.0000
  S   S223      1.0  0.14290  0.40843  0.13866  1.0000
  H   H872      1.0  0.20646  0.39654  0.15279  1.0000
  C   C717      1.0  0.13837  0.36848  0.99969  1.0000
  H   H873      1.0  0.16384  0.32645  0.15551  1.0000
  C   C718      1.0  0.14598  0.34658  0.99318  1.0000
  C   C719      1.0  0.14551  0.35492  0.00184  1.0000
  H   H874      1.0  0.15148  0.33609  0.99495  1.0000
  H   H875      1.0  0.15074  0.35094  0.01012  1.0000
  C   C720      1.0  0.15401  0.40245  0.09434  1.0000
  C   C721      1.0  0.15972  0.39614  0.08321  1.0000
  C   C722      1.0  0.15124  0.39296  0.07674  1.0000
  C   C723      1.0  0.13697  0.39625  0.08127  1.0000
  C   C724      1.0  0.13130  0.40229  0.09255  1.0000
  C   C725      1.0  0.13977  0.40542  0.09905  1.0000
  H   H876      1.0  0.17073  0.39385  0.07944  1.0000
  H   H877      1.0  0.15574  0.38830  0.06802  1.0000
  H   H878      1.0  0.12030  0.40472  0.09613  1.0000
  H   H879      1.0  0.13527  0.41037  0.10753  1.0000
  C   C726      1.0  0.08890  0.40465  0.12780  1.0000
  C   C727      1.0  0.08010  0.41317  0.13632  1.0000
  C   C728      1.0  0.08544  0.42103  0.14157  1.0000
  C   C729      1.0  0.09959  0.42039  0.13834  1.0000
  C   C730      1.0  0.10841  0.41140  0.13034  1.0000
  C   C731      1.0  0.10307  0.40359  0.12504  1.0000
  H   H880      1.0  0.06912  0.41414  0.13838  1.0000
  H   H881      1.0  0.07856  0.42790  0.14784  1.0000
  H   H882      1.0  0.11930  0.41077  0.12792  1.0000
  H   H883      1.0  0.10990  0.39693  0.11856  1.0000
  C   C732      1.0  0.09427  0.33286  0.10584  1.0000
  C   C733      1.0  0.09727  0.32234  0.09898  1.0000
  C   C734      1.0  0.10736  0.32221  0.08695  1.0000
  C   C735      1.0  0.11464  0.33254  0.08173  1.0000
  C   C736      1.0  0.11193  0.34297  0.08872  1.0000
  C   C737      1.0  0.10163  0.34319  0.10076  1.0000
  H   H884      1.0  0.09168  0.31429  0.10293  1.0000
  H   H885      1.0  0.10947  0.31411  0.08163  1.0000
  H   H886      1.0  0.11763  0.35091  0.08474  1.0000
  H   H887      1.0  0.09941  0.35127  0.10612  1.0000
  H   H888      1.0  0.15599  0.39357  0.98538  1.0000
  C   C738      1.0  0.01980  0.36239  0.12858  1.0000
  C   C739      1.0  0.01404  0.36769  0.14031  1.0000
  H   H889      1.0  0.12206  0.45418  0.09687  1.0000
  H   H890      1.0  0.03081  0.36037  0.12479  1.0000
  C   C740      1.0  0.12358  0.32889  0.17925  1.0000
  C   C741      1.0  0.11311  0.32898  0.19099  1.0000
  C   C742      1.0  0.09963  0.33597  0.19011  1.0000
  C   C743      1.0  0.09652  0.34278  0.17747  1.0000
  C   C744      1.0  0.10701  0.34272  0.16572  1.0000
  C   C745      1.0  0.12052  0.33582  0.16661  1.0000
  H   H891      1.0  0.11533  0.32358  0.20077  1.0000
  H   H892      1.0  0.09157  0.33602  0.19925  1.0000
  H   H893      1.0  0.10477  0.34818  0.15600  1.0000
  H   H894      1.0  0.12864  0.33595  0.15752  1.0000
  C   C746      1.0  0.19188  0.32352  0.09068  1.0000
  C   C747      1.0  0.20144  0.33149  0.08349  1.0000
  C   C748      1.0  0.19940  0.34083  0.07135  1.0000
  C   C749      1.0  0.18778  0.34224  0.06640  1.0000
  C   C750      1.0  0.17838  0.33408  0.07347  1.0000
  C   C751      1.0  0.18044  0.32475  0.08556  1.0000
  H   H895      1.0  0.21040  0.33048  0.08726  1.0000
  H   H896      1.0  0.20677  0.34702  0.06582  1.0000
  H   H897      1.0  0.16963  0.33480  0.06952  1.0000
  H   H898      1.0  0.17310  0.31850  0.09094  1.0000
  C   C752      1.0  0.19929  0.28348  0.19835  1.0000
  C   C753      1.0  0.19522  0.29213  0.18672  1.0000
  C   C754      1.0  0.20291  0.29024  0.17380  1.0000
  C   C755      1.0  0.21442  0.27949  0.17255  1.0000
  C   C756      1.0  0.21840  0.27082  0.18420  1.0000
  C   C757      1.0  0.21096  0.27294  0.19708  1.0000
  H   H899      1.0  0.18617  0.30025  0.18765  1.0000
  H   H900      1.0  0.19971  0.29685  0.16483  1.0000
  H   H901      1.0  0.22732  0.26254  0.18324  1.0000
  H   H902      1.0  0.21418  0.26631  0.20605  1.0000
  C   C758      1.0  0.28649  0.26056  0.12465  1.0000
  C   C759      1.0  0.27669  0.26989  0.13167  1.0000
  C   C760      1.0  0.26934  0.28170  0.12462  1.0000
  C   C761      1.0  0.27211  0.28465  0.11045  1.0000
  C   C762      1.0  0.28243  0.27565  0.10332  1.0000
  C   C763      1.0  0.28951  0.26348  0.11043  1.0000
  H   H903      1.0  0.27460  0.26794  0.14263  1.0000
  H   H904      1.0  0.26175  0.28869  0.13021  1.0000
  H   H905      1.0  0.28467  0.27792  0.09233  1.0000
  H   H906      1.0  0.29707  0.25630  0.10493  1.0000
  C   C764      1.0  0.19776  0.40550  0.18090  1.0000
  C   C765      1.0  0.19069  0.39518  0.18770  1.0000
  C   C766      1.0  0.17989  0.39393  0.18297  1.0000
  C   C767      1.0  0.17602  0.40301  0.17145  1.0000
  C   C768      1.0  0.18295  0.41346  0.16465  1.0000
  C   C769      1.0  0.19381  0.41472  0.16940  1.0000
  H   H907      1.0  0.19326  0.38837  0.19686  1.0000
  H   H908      1.0  0.17437  0.38603  0.18842  1.0000
  H   H909      1.0  0.17994  0.42052  0.15579  1.0000
  H   H910      1.0  0.19920  0.42278  0.16418  1.0000
  H   H911      1.0  0.18662  0.34278  0.15988  1.0000
  H   H912      1.0  0.14643  0.31322  0.03357  1.0000
  H   H913      1.0  0.22529  0.39223  0.16399  1.0000
  H   H914      1.0  0.10714  0.36794  0.03131  1.0000
  H   H915      1.0  0.42806  0.29603  0.21368  1.0000
  H   H916      1.0  0.07842  0.40669  0.08973  1.0000
  N   N50       1.0  0.25204  0.24101  0.14410  1.0000
  H   H917      1.0  0.06608  0.40312  0.08296  1.0000
  H   H918      1.0  0.16176  0.37416  0.13010  1.0000
  C   C770      1.0  0.24029  0.34704  0.16633  1.0000
  C   C771      1.0  0.24585  0.33867  0.15687  1.0000
  C   C772      1.0  0.23797  0.33797  0.14830  1.0000
  C   C773      1.0  0.22449  0.34560  0.14920  1.0000
  C   C774      1.0  0.21898  0.35396  0.15864  1.0000
  C   C775      1.0  0.22684  0.35468  0.16715  1.0000
  H   H919      1.0  0.25629  0.33280  0.15611  1.0000
  H   H920      1.0  0.24246  0.33175  0.14082  1.0000
  H   H921      1.0  0.20860  0.35989  0.15951  1.0000
  H   H922      1.0  0.22252  0.36138  0.17413  1.0000
  H   H923      1.0  0.06932  0.39402  0.09951  1.0000
  N   N51       1.0  0.30049  0.41653  0.22855  1.0000
  H   H924      1.0  0.21674  0.30936  0.18240  1.0000
  H   H925      1.0  0.41548  0.28063  0.21610  1.0000
  H   H926      1.0  0.09977  0.37398  0.00962  1.0000
  H   H927      1.0  0.30629  0.39993  0.21050  1.0000
  S   S224      1.0  0.13989  0.43844  0.11755  1.0000
  H   H928      1.0  0.17006  0.26802  0.22605  1.0000
  C   C776      1.0  0.22128  0.31615  0.18551  1.0000
  H   H929      1.0  0.38977  0.32055  0.23018  1.0000
  H   H930      1.0  0.17488  0.33066  0.13134  1.0000
  H   H931      1.0  0.01106  0.31526  0.12477  1.0000
  C   C777      1.0  0.19161  0.34528  0.19423  1.0000
  Fe  Fe114     1.0  0.15210  0.32653  0.22089  1.0000
  H   H932      1.0  0.14403  0.44900  0.08656  1.0000
  C   C778      1.0  0.10493  0.36365  0.01331  1.0000
  H   H933      1.0  0.15117  0.36922  0.15414  1.0000
  H   H934      1.0  0.20422  0.32609  0.16998  1.0000
  C   C779      1.0  0.21843  0.33092  0.20041  1.0000
  H   H935      1.0  0.23355  0.23700  0.14189  1.0000
  H   H936      1.0  0.15200  0.34545  0.16698  1.0000
  H   H937      1.0  0.10480  0.35664  0.99597  1.0000
  Fe  Fe115     1.0  0.22056  0.36177  0.22003  1.0000
  H   H938      1.0  0.22960  0.30927  0.19046  1.0000
  N   N52       1.0  0.32723  0.26859  0.12976  1.0000
  C   C780      1.0  0.33415  0.26499  0.14128  1.0000
  C   C781      1.0  0.32374  0.25614  0.12895  1.0000
  C   C782      1.0  0.33731  0.27280  0.11715  1.0000
  C   C783      1.0  0.31459  0.27948  0.13114  1.0000
  C   C784      1.0  0.30753  0.28488  0.12038  1.0000
  C   C785      1.0  0.30877  0.28482  0.14310  1.0000
  C   C786      1.0  0.29566  0.29524  0.12136  1.0000
  C   C787      1.0  0.29676  0.29505  0.14404  1.0000
  C   C788      1.0  0.29024  0.30026  0.13319  1.0000
  C   C789      1.0  0.18455  0.35965  0.22631  1.0000
  C   C790      1.0  0.17490  0.45412  0.15082  1.0000
  H   H939      1.0  0.32763  0.26061  0.15101  1.0000
  H   H940      1.0  0.19287  0.25747  0.22352  1.0000
  N   N53       1.0  0.40737  0.30604  0.22206  1.0000
  H   H941      1.0  0.18591  0.46405  0.17320  1.0000
  H   H942      1.0  0.33946  0.28269  0.11689  1.0000
  H   H943      1.0  0.18449  0.35528  0.98488  1.0000
  H   H944      1.0  0.33372  0.27389  0.10782  1.0000
  H   H945      1.0  0.31094  0.28098  0.11119  1.0000
  H   H946      1.0  0.31320  0.28120  0.15192  1.0000
  H   H947      1.0  0.29040  0.29916  0.11303  1.0000
  H   H948      1.0  0.29241  0.29893  0.15327  1.0000
  H   H949      1.0  0.28085  0.30807  0.13399  1.0000
  H   H950      1.0  0.03386  0.33719  0.15991  1.0000
  C   C791      1.0  0.29074  0.41353  0.22245  1.0000
  C   C792      1.0  0.17959  0.35388  0.17590  1.0000
  H   H951      1.0  0.42145  0.31196  0.20332  1.0000
  C   C793      1.0  0.11660  0.44737  0.09569  1.0000
  C   C794      1.0  0.27259  0.40740  0.21040  1.0000
  H   H952      1.0  0.14655  0.43104  0.08834  1.0000
  C   C795      1.0  0.12129  0.44077  0.08456  1.0000
  H   H953      1.0  0.33305  0.24785  0.12733  1.0000
  H   H954      1.0  0.24891  0.25700  0.15470  1.0000
  C   C796      1.0  0.14026  0.32354  0.03016  1.0000
  H   H955      1.0  0.16515  0.45289  0.14945  1.0000
  C   C797      1.0  0.18792  0.34343  0.16956  1.0000
  H   H956      1.0  0.29037  0.39465  0.20051  1.0000
  H   H957      1.0  0.31830  0.42536  0.22194  1.0000
  H   H958      1.0  0.14670  0.32872  0.02092  1.0000
  S   S225      1.0  0.29380  0.24502  0.13421  1.0000
  H   H959      1.0  0.12142  0.31224  0.01582  1.0000
  H   H960      1.0  0.38253  0.31691  0.21309  1.0000
  H   H961      1.0  0.30638  0.43167  0.21089  1.0000
  H   H962      1.0  0.31766  0.41516  0.21124  1.0000
  H   H963      1.0  0.24793  0.26138  0.13183  1.0000
  C   C798      1.0  0.06177  0.36402  0.08633  1.0000
  H   H964      1.0  0.22623  0.32275  0.17624  1.0000
  N   N54       1.0  0.11926  0.31640  0.13551  1.0000
  C   C799      1.0  0.11682  0.30889  0.12660  1.0000
  C   C800      1.0  0.10958  0.31367  0.14888  1.0000
  C   C801      1.0  0.11583  0.33115  0.12964  1.0000
  C   C802      1.0  0.13386  0.31244  0.13636  1.0000
  C   C803      1.0  0.13806  0.30883  0.14891  1.0000
  C   C804      1.0  0.14439  0.31275  0.12433  1.0000
  C   C805      1.0  0.15196  0.30546  0.14928  1.0000
  C   C806      1.0  0.15824  0.30919  0.12485  1.0000
  C   C807      1.0  0.16203  0.30555  0.13728  1.0000
  H   H965      1.0  0.12165  0.31219  0.11570  1.0000
  H   H966      1.0  0.12078  0.29775  0.12975  1.0000
  H   H967      1.0  0.10569  0.31061  0.12689  1.0000
  H   H968      1.0  0.11188  0.30274  0.15399  1.0000
  H   H969      1.0  0.09872  0.31635  0.14781  1.0000
  H   H970      1.0  0.10981  0.31989  0.15579  1.0000
  H   H971      1.0  0.11779  0.33715  0.13586  1.0000
  H   H972      1.0  0.12190  0.33384  0.11910  1.0000
  H   H973      1.0  0.10483  0.33465  0.12914  1.0000
  H   H974      1.0  0.13085  0.30865  0.15861  1.0000
  H   H975      1.0  0.14202  0.31581  0.11439  1.0000
  H   H976      1.0  0.15491  0.30281  0.15898  1.0000
  H   H977      1.0  0.16610  0.30923  0.11554  1.0000
  H   H978      1.0  0.17282  0.30285  0.13757  1.0000
  H   H979      1.0  0.21298  0.37120  0.12060  1.0000
  N   N55       1.0  0.10777  0.38476  0.17147  1.0000
  C   C808      1.0  0.10570  0.39976  0.16907  1.0000
  C   C809      1.0  0.10993  0.38114  0.15823  1.0000
  C   C810      1.0  0.09486  0.38109  0.18037  1.0000
  C   C811      1.0  0.11964  0.37727  0.17769  1.0000
  C   C812      1.0  0.12964  0.38368  0.17858  1.0000
  C   C813      1.0  0.12169  0.36302  0.18279  1.0000
  C   C814      1.0  0.14046  0.37631  0.18492  1.0000
  C   C815      1.0  0.13252  0.35577  0.18911  1.0000
  C   C816      1.0  0.14181  0.36242  0.19030  1.0000
  H   H980      1.0  0.11422  0.40359  0.16118  1.0000
  H   H981      1.0  0.09621  0.40517  0.16526  1.0000
  H   H982      1.0  0.10467  0.40308  0.17857  1.0000
  H   H983      1.0  0.11938  0.38392  0.15110  1.0000
  H   H984      1.0  0.10115  0.38649  0.15325  1.0000
  H   H985      1.0  0.11096  0.37006  0.15938  1.0000
  H   H986      1.0  0.09343  0.38249  0.19085  1.0000
  H   H987      1.0  0.08566  0.38734  0.17641  1.0000
  H   H988      1.0  0.09451  0.37042  0.18111  1.0000
  H   H989      1.0  0.12932  0.39439  0.17456  1.0000
  H   H990      1.0  0.11488  0.35737  0.18199  1.0000
  H   H991      1.0  0.14781  0.38144  0.18576  1.0000
  H   H992      1.0  0.13371  0.34491  0.19311  1.0000
  H   H993      1.0  0.15007  0.35678  0.19542  1.0000
  N   N56       1.0  0.17614  0.35516  0.11350  1.0000
  C   C817      1.0  0.19095  0.34853  0.11169  1.0000
  C   C818      1.0  0.16970  0.34924  0.10623  1.0000
  C   C819      1.0  0.17505  0.36975  0.10683  1.0000
  C   C820      1.0  0.16948  0.35281  0.12815  1.0000
  C   C821      1.0  0.16977  0.33935  0.13593  1.0000
  C   C822      1.0  0.16257  0.36358  0.13512  1.0000
  C   C823      1.0  0.16352  0.33681  0.14975  1.0000
  C   C824      1.0  0.15637  0.36090  0.14899  1.0000
  C   C825      1.0  0.15682  0.34755  0.15626  1.0000
  H   H994      1.0  0.19271  0.33728  0.11487  1.0000
  H   H995      1.0  0.19650  0.35068  0.10085  1.0000
  H   H996      1.0  0.19602  0.35198  0.11776  1.0000
  H   H997      1.0  0.17104  0.33804  0.10981  1.0000
  H   H998      1.0  0.17429  0.35104  0.09510  1.0000
  H   H999      1.0  0.15849  0.35373  0.10758  1.0000
  H   H1000     1.0  0.18005  0.37488  0.11142  1.0000
  H   H1001     1.0  0.18008  0.37116  0.09580  1.0000
  H   H1002     1.0  0.16414  0.37526  0.10740  1.0000
  H   H1003     1.0  0.04211  0.32068  0.14492  1.0000
  H   H1004     1.0  0.20121  0.38509  0.11291  1.0000
  N   N57       1.0  0.21089  0.32445  0.19474  1.0000
  C   C826      1.0  0.20368  0.31522  0.20604  1.0000
  C   C827      1.0  0.20054  0.33472  0.18791  1.0000
  C   C828      1.0  0.19816  0.33388  0.17549  1.0000
  C   C829      1.0  0.13076  0.31392  0.01770  1.0000
  C   C830      1.0  0.21003  0.38250  0.11788  1.0000
  H   H1005     1.0  0.12400  0.30612  0.04433  1.0000
  C   C831      1.0  0.40043  0.29999  0.21543  1.0000
  Fe  Fe116     1.0  0.15212  0.44395  0.12908  1.0000
  H   H1006     1.0  0.14582  0.42621  0.18685  1.0000
  C   C832      1.0  0.16249  0.42376  0.19618  1.0000
  C   C833      1.0  0.07418  0.39839  0.08890  1.0000
  H   H1007     1.0  0.11720  0.33382  0.00329  1.0000
  H   H1008     1.0  0.02579  0.31288  0.13769  1.0000
  C   C834      1.0  0.15452  0.43010  0.18658  1.0000
  H   H1009     1.0  0.19716  0.37204  0.14268  1.0000
  H   H1010     1.0  0.08463  0.39864  0.06190  1.0000
  H   H1011     1.0  0.09511  0.40391  0.06970  1.0000
  H   H1012     1.0  0.39953  0.32714  0.21356  1.0000
  C   C835      1.0  0.13933  0.35169  0.98229  1.0000
  C   C836      1.0  0.17386  0.42852  0.19569  1.0000
  C   C837      1.0  0.09171  0.39502  0.06899  1.0000
  H   H1013     1.0  0.05854  0.38234  0.09261  1.0000
  C   C838      1.0  0.03117  0.32434  0.14844  1.0000
  C   C839      1.0  0.21621  0.39062  0.14854  1.0000
  N   N58       1.0  0.08505  0.38795  0.08253  1.0000
  H   H1014     1.0  0.09085  0.37667  0.10128  1.0000
  H   H1015     1.0  0.10869  0.31635  0.03875  1.0000
  H   H1016     1.0  0.18555  0.38613  0.13481  1.0000
  C   C840      1.0  0.09536  0.38224  0.09105  1.0000
  H   H1017     1.0  0.10120  0.38844  0.06423  1.0000
  H   H1018     1.0  0.14843  0.43534  0.05728  1.0000
  C   C841      1.0  0.11499  0.34068  0.01004  1.0000
  H   H1019     1.0  0.14043  0.42299  0.06997  1.0000
  C   C842      1.0  0.23747  0.23998  0.14919  1.0000
  S   S226      1.0  0.22337  0.38210  0.22070  1.0000
  C   C843      1.0  0.15796  0.44117  0.17639  1.0000
  C   C844      1.0  0.17749  0.43948  0.18545  1.0000
  C   C845      1.0  0.06609  0.37522  0.08708  1.0000
  H   H1020     1.0  0.00355  0.33301  0.12343  1.0000
  C   C846      1.0  0.11306  0.43239  0.08371  1.0000
  C   C847      1.0  0.07981  0.37676  0.08118  1.0000
  H   H1021     1.0  0.09938  0.39035  0.09264  1.0000
  H   H1022     1.0  0.05136  0.36287  0.09123  1.0000
  C   C848      1.0  0.13203  0.37372  0.98857  1.0000
  C   C849      1.0  0.18133  0.35469  0.18830  1.0000
  H   H1023     1.0  0.09539  0.42350  0.09322  1.0000
  C   C850      1.0  0.02658  0.33357  0.15694  1.0000
  H   H1024     1.0  0.15144  0.44573  0.16919  1.0000
  H   H1025     1.0  0.40435  0.27051  0.20503  1.0000
  N   N59       1.0  0.20645  0.38848  0.13005  1.0000
  C   C851      1.0  0.19456  0.38331  0.13954  1.0000
  C   C852      1.0  0.22696  0.38825  0.15500  1.0000
  C   C853      1.0  0.16972  0.44604  0.17533  1.0000
  C   C854      1.0  0.08871  0.36656  0.07432  1.0000
  H   H1026     1.0  0.09936  0.36681  0.06995  1.0000
  H   H1027     1.0  0.16088  0.47266  0.17530  1.0000
  H   H1028     1.0  0.19748  0.40856  0.13426  1.0000
  C   C855      1.0  0.13860  0.43384  0.06454  1.0000
  C   C856      1.0  0.14430  0.47988  0.13942  1.0000
  H   H1029     1.0  0.11923  0.34490  0.03965  1.0000
  C   C857      1.0  0.21794  0.38531  0.13696  1.0000
  C   C858      1.0  0.08425  0.35549  0.07351  1.0000
  C   C859      1.0  0.07084  0.35415  0.07961  1.0000
  H   H1030     1.0  0.06752  0.34536  0.07930  1.0000
  H   H1031     1.0  0.19434  0.40625  0.11928  1.0000
  H   H1032     1.0  0.26561  0.40462  0.20620  1.0000
  H   H1033     1.0  0.09139  0.34767  0.06850  1.0000
  C   C860      1.0  0.25548  0.24674  0.15384  1.0000
  C   C861      1.0  0.24180  0.37494  0.13891  1.0000
  C   C862      1.0  0.20216  0.40343  0.12554  1.0000
  H   H1034     1.0  0.21106  0.40788  0.11929  1.0000
  H   H1035     1.0  0.19743  0.31065  0.20228  1.0000
  H   H1036     1.0  0.12653  0.38423  0.98681  1.0000
  H   H1037     1.0  0.01584  0.35577  0.11261  1.0000
  H   H1038     1.0  0.25162  0.36841  0.13556  1.0000
  H   H1039     1.0  0.12861  0.46473  0.07291  1.0000
  H   H1040     1.0  0.19100  0.38740  0.14896  1.0000
  H   H1041     1.0  0.17174  0.36133  0.17124  1.0000
  C   C863      1.0  0.10483  0.44518  0.10568  1.0000
  H   H1042     1.0  0.08814  0.43491  0.11252  1.0000
  N   N60       1.0  0.17341  0.45745  0.16410  1.0000
  H   H1043     1.0  0.99516  0.37423  0.15423  1.0000
  H   H1044     1.0  0.34725  0.26515  0.11628  1.0000
  H   H1045     1.0  0.17463  0.36256  0.19347  1.0000
  H   H1046     1.0  0.31658  0.25231  0.13844  1.0000
  S   S227      1.0  0.15207  0.34661  0.22458  1.0000
  H   H1047     1.0  0.16546  0.36863  0.21982  1.0000
  H   H1048     1.0  0.24793  0.37820  0.15551  1.0000
  C   C864      1.0  0.23975  0.38044  0.15018  1.0000
  H   H1049     1.0  0.17147  0.37405  0.99656  1.0000
  H   H1050     1.0  0.16005  0.41493  0.20383  1.0000
  H   H1051     1.0  0.19525  0.45173  0.16278  1.0000
  C   C865      1.0  0.11623  0.34703  0.03010  1.0000
  H   H1052     1.0  0.16482  0.47873  0.15715  1.0000
  C   C866      1.0  0.09716  0.43673  0.10466  1.0000
  C   C867      1.0  0.10124  0.43037  0.09371  1.0000
  C   C868      1.0  0.29557  0.40477  0.21311  1.0000
  H   H1053     1.0  0.13105  0.43554  0.05823  1.0000
  C   C869      1.0  0.23111  0.37728  0.13235  1.0000
  C   C870      1.0  0.27635  0.41898  0.22560  1.0000
  C   C871      1.0  0.10776  0.35387  0.00565  1.0000
  C   C872      1.0  0.16242  0.46986  0.16540  1.0000
  H   H1054     1.0  0.11655  0.32240  0.04841  1.0000
  H   H1055     1.0  0.15240  0.46854  0.16480  1.0000
  C   C873      1.0  0.01129  0.35974  0.12174  1.0000
  C   C874      1.0  0.40027  0.32014  0.22357  1.0000
  H   H1056     1.0  0.18909  0.46911  0.15513  1.0000
  S   S228      1.0  0.16043  0.46327  0.12154  1.0000
  H   H1057     1.0  0.19236  0.34624  0.20394  1.0000
  H   H1058     1.0  0.13859  0.47198  0.14414  1.0000
  S   S229      1.0  0.26495  0.37361  0.21996  1.0000
  H   H1059     1.0  0.23334  0.37237  0.12396  1.0000
  C   C875      1.0  0.38773  0.28785  0.20265  1.0000
  C   C876      1.0  0.13141  0.45723  0.06633  1.0000
  N   N61       1.0  0.13396  0.44306  0.07425  1.0000
  H   H1060     1.0  0.13684  0.30369  0.02155  1.0000
  H   H1061     1.0  0.37199  0.30613  0.20228  1.0000
  H   H1062     1.0  0.13709  0.31820  0.00775  1.0000
  H   H1063     1.0  0.12281  0.45923  0.06120  1.0000
  C   C877      1.0  0.26749  0.41598  0.21955  1.0000
  C   C878      1.0  0.11874  0.31668  0.04027  1.0000
  C   C879      1.0  0.10912  0.36022  0.02553  1.0000
  H   H1064     1.0  0.14065  0.45941  0.05838  1.0000
  C   C880      1.0  0.42153  0.30638  0.21399  1.0000
  H   H1065     1.0  0.15547  0.44099  0.07356  1.0000
  C   C881      1.0  0.11958  0.33687  0.02240  1.0000
  S   S230      1.0  0.15181  0.29315  0.21205  1.0000
  H   H1066     1.0  0.11574  0.42688  0.07568  1.0000
  C   C882      1.0  0.02174  0.32007  0.14425  1.0000
  H   H1067     1.0  0.18269  0.44455  0.14965  1.0000
  H   H1068     1.0  0.22713  0.32351  0.20439  1.0000
  H   H1069     1.0  0.18029  0.42328  0.20294  1.0000
  C   C883      1.0  0.31114  0.42244  0.21766  1.0000
  C   C884      1.0  0.38787  0.30689  0.21139  1.0000
  H   H1070     1.0  0.21093  0.30678  0.21120  1.0000
  C   C885      1.0  0.18650  0.46068  0.16385  1.0000
  C   C886      1.0  0.00738  0.32521  0.14823  1.0000
  S   S231      1.0  0.37740  0.25698  0.21919  1.0000
  H   H1071     1.0  0.31859  0.25790  0.12047  1.0000
  H   H1072     1.0  0.18669  0.44227  0.18549  1.0000
  C   C887      1.0  0.38167  0.30084  0.20510  1.0000
  S   S232      1.0  0.13277  0.32221  0.21929  1.0000
  N   N62       1.0  0.12721  0.32298  0.02743  1.0000
  C   C888      1.0  0.28659  0.40175  0.20723  1.0000
  N   N63       1.0  0.99763  0.32082  0.14333  1.0000
  C   C889      1.0  0.40622  0.28671  0.21290  1.0000
  C   C890      1.0  0.00306  0.33443  0.15711  1.0000
  H   H1073     1.0  0.26438  0.25093  0.12605  1.0000
  H   H1074     1.0  0.38272  0.28301  0.19813  1.0000
  H   H1075     1.0  0.34382  0.25707  0.13973  1.0000
  C   C891      1.0  0.99696  0.36219  0.12660  1.0000
  C   C892      1.0  0.01259  0.33846  0.16138  1.0000
  H   H1076     1.0  0.40577  0.32443  0.22852  1.0000
  H   H1077     1.0  0.17807  0.46233  0.14209  1.0000
  H   H1078     1.0  0.25406  0.24020  0.16423  1.0000
  H   H1079     1.0  0.00914  0.34594  0.16770  1.0000
  C   C893      1.0  0.25342  0.25079  0.13080  1.0000
  C   C894      1.0  0.99971  0.37015  0.14516  1.0000
  H   H1080     1.0  0.25651  0.41987  0.22241  1.0000
  H   H1081     1.0  0.19649  0.32066  0.21387  1.0000
  H   H1082     1.0  0.21194  0.33547  0.20914  1.0000
  H   H1083     1.0  0.18922  0.24111  0.22665  1.0000
  C   C895      1.0  0.17073  0.37460  0.98631  1.0000
  H   H1084     1.0  0.23064  0.24992  0.15098  1.0000
  H   H1085     1.0  0.24918  0.24829  0.12342  1.0000
  C   C896      1.0  0.00163  0.32267  0.12828  1.0000
  H   H1086     1.0  0.99503  0.30449  0.16075  1.0000
  H   H1087     1.0  0.00821  0.29971  0.14660  1.0000
  Fe  Fe117     1.0  0.38050  0.23702  0.21295  1.0000
  H   H1088     1.0  0.33146  0.23525  0.16932  1.0000
  C   C897      1.0  0.16782  0.34699  0.22735  1.0000
  C   C898      1.0  0.17193  0.35933  0.22414  1.0000
  H   H1089     1.0  0.18776  0.36917  0.22373  1.0000
  C   C899      1.0  0.15515  0.47827  0.12813  1.0000
  Fe  Fe118     1.0  0.38822  0.30699  0.29209  1.0000
  S   S233      1.0  0.37918  0.28952  0.29294  1.0000
  S   S234      1.0  0.39150  0.31218  0.31042  1.0000
  Fe  Fe119     1.0  0.38208  0.32157  0.26435  1.0000
  S   S235      1.0  0.37188  0.30594  0.26305  1.0000
  S   S236      1.0  0.38584  0.33998  0.24813  1.0000
  Fe  Fe120     1.0  0.36227  0.30561  0.28509  1.0000
  S   S237      1.0  0.34024  0.30526  0.29511  1.0000
  Fe  Fe121     1.0  0.38954  0.29092  0.27084  1.0000
  S   S238      1.0  0.40012  0.27191  0.26235  1.0000
  S   S239      1.0  0.37058  0.32289  0.28544  1.0000
  S   S240      1.0  0.40053  0.30677  0.27072  1.0000
  Fe  Fe122     1.0  0.31337  0.30365  0.37074  1.0000
  S   S241      1.0  0.30503  0.32526  0.37257  1.0000
  S   S242      1.0  0.33466  0.29872  0.35806  1.0000
  Fe  Fe123     1.0  0.28841  0.29424  0.38976  1.0000
  S   S243      1.0  0.27783  0.31529  0.39346  1.0000
  S   S244      1.0  0.28071  0.27463  0.39828  1.0000
  Fe  Fe124     1.0  0.28531  0.32199  0.37100  1.0000
  S   S245      1.0  0.27350  0.33863  0.35737  1.0000
  Fe  Fe125     1.0  0.29850  0.31708  0.39483  1.0000
  S   S246      1.0  0.30060  0.33090  0.40709  1.0000
  S   S247      1.0  0.29421  0.30097  0.36711  1.0000
  S   S248      1.0  0.30854  0.29542  0.39324  1.0000
  Fe  Fe126     1.0  0.29147  0.39494  0.27309  1.0000
  S   S249      1.0  0.30412  0.41009  0.27083  1.0000
  S   S250      1.0  0.27252  0.40043  0.26426  1.0000
  Fe  Fe127     1.0  0.30915  0.37264  0.29001  1.0000
  S   S251      1.0  0.32353  0.38541  0.28881  1.0000
  S   S252      1.0  0.31435  0.35108  0.30102  1.0000
  Fe  Fe128     1.0  0.30463  0.40159  0.29294  1.0000
  S   S253      1.0  0.30186  0.41118  0.31073  1.0000
  Fe  Fe129     1.0  0.32202  0.39259  0.26709  1.0000
  S   S254      1.0  0.34077  0.39466  0.25054  1.0000
  S   S255      1.0  0.29015  0.38820  0.29564  1.0000
  S   S256      1.0  0.30947  0.37814  0.26780  1.0000
  C   C900      1.0  0.39363  0.26756  0.25057  1.0000
  S   S257      1.0  0.12670  0.28919  0.24769  1.0000
  H   H1090     1.0  0.37723  0.28533  0.24905  1.0000
  H   H1091     1.0  0.35946  0.30348  0.31094  1.0000
  C   C901      1.0  0.26579  0.25801  0.39547  1.0000
  C   C902      1.0  0.30731  0.40381  0.23667  1.0000
  Fe  Fe130     1.0  0.43722  0.36986  0.33173  1.0000
  S   S258      1.0  0.42646  0.35265  0.33850  1.0000
  S   S259      1.0  0.42620  0.39077  0.32298  1.0000
  Fe  Fe131     1.0  0.46510  0.35185  0.33591  1.0000
  S   S260      1.0  0.45660  0.33291  0.34300  1.0000
  H   H1092     1.0  0.38108  0.24940  0.28541  1.0000
  Fe  Fe132     1.0  0.44519  0.34139  0.32613  1.0000
  S   S261      1.0  0.44480  0.33007  0.31073  1.0000
  Fe  Fe133     1.0  0.43840  0.34564  0.35488  1.0000
  S   S262      1.0  0.42737  0.33671  0.37582  1.0000
  S   S263      1.0  0.45509  0.35928  0.31801  1.0000
  S   S264      1.0  0.44771  0.36391  0.34917  1.0000
  Fe  Fe134     1.0  0.35445  0.34332  0.43664  1.0000
  S   S265      1.0  0.35278  0.36343  0.42205  1.0000
  S   S266      1.0  0.35293  0.32527  0.42965  1.0000
  Fe  Fe135     1.0  0.35864  0.35474  0.45912  1.0000
  S   S267      1.0  0.35706  0.37588  0.44605  1.0000
  H   H1093     1.0  0.38262  0.38673  0.37870  1.0000
  Fe  Fe136     1.0  0.33978  0.37172  0.44009  1.0000
  S   S268      1.0  0.31978  0.38663  0.43836  1.0000
  Fe  Fe137     1.0  0.37026  0.36576  0.42902  1.0000
  S   S269      1.0  0.38623  0.37580  0.41323  1.0000
  S   S270      1.0  0.34011  0.35136  0.45451  1.0000
  S   S271      1.0  0.37323  0.34484  0.44227  1.0000
  Fe  Fe138     1.0  0.34399  0.44188  0.33844  1.0000
  S   S272      1.0  0.35956  0.44963  0.34387  1.0000
  S   S273      1.0  0.34336  0.44245  0.31692  1.0000
  Fe  Fe139     1.0  0.32992  0.43282  0.36762  1.0000
  S   S274      1.0  0.34379  0.43984  0.37568  1.0000
  S   S275      1.0  0.31261  0.42302  0.38063  1.0000
  Fe  Fe140     1.0  0.34164  0.45867  0.35904  1.0000
  H   H1094     1.0  0.28307  0.34428  0.43911  1.0000
  Fe  Fe141     1.0  0.36057  0.43046  0.36006  1.0000
  S   S276      1.0  0.37914  0.41678  0.36732  1.0000
  S   S277      1.0  0.32601  0.45237  0.35231  1.0000
  S   S278      1.0  0.34680  0.42191  0.35329  1.0000
  H   H1095     1.0  0.29090  0.38005  0.24912  1.0000
  C   C903      1.0  0.34949  0.30965  0.38421  1.0000
  H   H1096     1.0  0.33134  0.36954  0.36988  1.0000
  C   C904      1.0  0.40005  0.25547  0.24591  1.0000
  H   H1097     1.0  0.27529  0.35582  0.46591  1.0000
  H   H1098     1.0  0.29601  0.37417  0.45936  1.0000
  C   C905      1.0  0.31828  0.39624  0.42199  1.0000
  C   C906      1.0  0.32968  0.39677  0.41104  1.0000
  C   C907      1.0  0.32813  0.40513  0.39828  1.0000
  C   C908      1.0  0.31511  0.41265  0.39640  1.0000
  C   C909      1.0  0.30371  0.41171  0.40723  1.0000
  C   C910      1.0  0.30531  0.40372  0.42001  1.0000
  H   H1099     1.0  0.33969  0.39098  0.41246  1.0000
  H   H1100     1.0  0.33692  0.40565  0.38984  1.0000
  H   H1101     1.0  0.29363  0.41747  0.40580  1.0000
  H   H1102     1.0  0.29647  0.40344  0.42841  1.0000
  C   C911      1.0  0.41319  0.39816  0.33523  1.0000
  C   C912      1.0  0.40273  0.40904  0.33120  1.0000
  C   C913      1.0  0.39221  0.41495  0.34099  1.0000
  C   C914      1.0  0.39245  0.41024  0.35476  1.0000
  C   C915      1.0  0.40308  0.39957  0.35872  1.0000
  C   C916      1.0  0.41325  0.39331  0.34901  1.0000
  H   H1103     1.0  0.40265  0.41281  0.32053  1.0000
  H   H1104     1.0  0.38399  0.42316  0.33788  1.0000
  H   H1105     1.0  0.40330  0.39597  0.36934  1.0000
  H   H1106     1.0  0.42125  0.38489  0.35218  1.0000
  C   C917      1.0  0.41649  0.34774  0.38631  1.0000
  C   C918      1.0  0.41647  0.36161  0.38313  1.0000
  C   C919      1.0  0.40740  0.37013  0.39166  1.0000
  C   C920      1.0  0.39809  0.36489  0.40312  1.0000
  C   C921      1.0  0.39806  0.35107  0.40619  1.0000
  C   C922      1.0  0.40741  0.34249  0.39797  1.0000
  H   H1107     1.0  0.42352  0.36572  0.37424  1.0000
  H   H1108     1.0  0.40757  0.38077  0.38939  1.0000
  H   H1109     1.0  0.39099  0.34692  0.41503  1.0000
  H   H1110     1.0  0.40757  0.33174  0.40068  1.0000
  S   S279      1.0  0.23560  0.26230  0.37567  1.0000
  H   H1111     1.0  0.13058  0.33284  0.24626  1.0000
  C   C923      1.0  0.34055  0.35429  0.38506  1.0000
  C   C924      1.0  0.40809  0.29768  0.23585  1.0000
  H   H1112     1.0  0.46794  0.37230  0.37292  1.0000
  H   H1113     1.0  0.26412  0.24745  0.36472  1.0000
  H   H1114     1.0  0.36868  0.27918  0.23242  1.0000
  C   C925      1.0  0.29388  0.42626  0.23769  1.0000
  C   C926      1.0  0.46093  0.37997  0.36732  1.0000
  H   H1115     1.0  0.36339  0.31604  0.39701  1.0000
  C   C927      1.0  0.30704  0.31657  0.44849  1.0000
  C   C928      1.0  0.17166  0.23981  0.34568  1.0000
  H   H1116     1.0  0.48483  0.35563  0.35762  1.0000
  H   H1117     1.0  0.40308  0.32504  0.38267  1.0000
  Fe  Fe142     1.0  0.20707  0.23953  0.36315  1.0000
  C   C929      1.0  0.14132  0.26268  0.28584  1.0000
  C   C930      1.0  0.13016  0.26062  0.28236  1.0000
  C   C931      1.0  0.12583  0.26875  0.27056  1.0000
  C   C932      1.0  0.13275  0.27880  0.26209  1.0000
  C   C933      1.0  0.14402  0.28071  0.26550  1.0000
  C   C934      1.0  0.14818  0.27278  0.27742  1.0000
  H   H1118     1.0  0.12475  0.25292  0.28884  1.0000
  H   H1119     1.0  0.11706  0.26727  0.26800  1.0000
  H   H1120     1.0  0.14928  0.28854  0.25922  1.0000
  H   H1121     1.0  0.15671  0.27452  0.28017  1.0000
  C   C935      1.0  0.31403  0.41923  0.31227  1.0000
  C   C936      1.0  0.32440  0.42315  0.30123  1.0000
  C   C937      1.0  0.33340  0.43020  0.30274  1.0000
  C   C938      1.0  0.33229  0.43313  0.31535  1.0000
  C   C939      1.0  0.32216  0.42886  0.32646  1.0000
  C   C940      1.0  0.31300  0.42208  0.32488  1.0000
  H   H1122     1.0  0.32525  0.42107  0.29145  1.0000
  H   H1123     1.0  0.34119  0.43347  0.29410  1.0000
  H   H1124     1.0  0.32115  0.43110  0.33621  1.0000
  H   H1125     1.0  0.30496  0.41918  0.33345  1.0000
  H   H1126     1.0  0.17089  0.24931  0.33825  1.0000
  C   C941      1.0  0.27017  0.39184  0.25294  1.0000
  C   C942      1.0  0.25727  0.39478  0.24971  1.0000
  H   H1127     1.0  0.24879  0.40178  0.25461  1.0000
  C   C943      1.0  0.29880  0.38985  0.36338  1.0000
  C   C944      1.0  0.14795  0.32332  0.26223  1.0000
  H   H1128     1.0  0.44375  0.37978  0.38448  1.0000
  C   C945      1.0  0.31568  0.32922  0.41254  1.0000
  C   C946      1.0  0.31735  0.34025  0.41655  1.0000
  C   C947      1.0  0.32868  0.33911  0.42186  1.0000
  C   C948      1.0  0.33848  0.32688  0.42320  1.0000
  C   C949      1.0  0.33699  0.31591  0.41894  1.0000
  C   C950      1.0  0.32562  0.31707  0.41361  1.0000
  H   H1129     1.0  0.30972  0.34966  0.41574  1.0000
  H   H1130     1.0  0.32981  0.34764  0.42502  1.0000
  H   H1131     1.0  0.34452  0.30641  0.42000  1.0000
  H   H1132     1.0  0.32431  0.30845  0.41073  1.0000
  C   C951      1.0  0.28420  0.34124  0.34118  1.0000
  C   C952      1.0  0.29753  0.33329  0.33880  1.0000
  C   C953      1.0  0.30660  0.33619  0.32629  1.0000
  C   C954      1.0  0.30242  0.34713  0.31616  1.0000
  C   C955      1.0  0.28893  0.35477  0.31828  1.0000
  C   C956      1.0  0.27980  0.35182  0.33081  1.0000
  H   H1133     1.0  0.30094  0.32494  0.34663  1.0000
  H   H1134     1.0  0.31694  0.33010  0.32458  1.0000
  H   H1135     1.0  0.28545  0.36284  0.31029  1.0000
  H   H1136     1.0  0.26940  0.35783  0.33254  1.0000
  C   C957      1.0  0.26802  0.27128  0.39215  1.0000
  C   C958      1.0  0.26012  0.28156  0.38405  1.0000
  C   C959      1.0  0.25002  0.27863  0.37945  1.0000
  H   H1137     1.0  0.26167  0.29182  0.38147  1.0000
  H   H1138     1.0  0.24390  0.28671  0.37328  1.0000
  C   C960      1.0  0.40655  0.31675  0.31047  1.0000
  C   C961      1.0  0.40667  0.32212  0.32129  1.0000
  C   C962      1.0  0.41834  0.32621  0.32153  1.0000
  C   C963      1.0  0.43006  0.32475  0.31104  1.0000
  C   C964      1.0  0.42997  0.31924  0.30029  1.0000
  C   C965      1.0  0.41822  0.31534  0.29995  1.0000
  H   H1139     1.0  0.39773  0.32310  0.32954  1.0000
  H   H1140     1.0  0.41836  0.33034  0.32990  1.0000
  H   H1141     1.0  0.43903  0.31804  0.29218  1.0000
  H   H1142     1.0  0.41827  0.31107  0.29165  1.0000
  C   C966      1.0  0.37286  0.35483  0.24894  1.0000
  C   C967      1.0  0.37289  0.24016  0.27433  1.0000
  C   C968      1.0  0.31696  0.48325  0.32668  1.0000
  C   C969      1.0  0.35298  0.37923  0.25018  1.0000
  C   C970      1.0  0.35041  0.36709  0.25911  1.0000
  C   C971      1.0  0.36033  0.35486  0.25845  1.0000
  C   C972      1.0  0.37541  0.36699  0.24013  1.0000
  C   C973      1.0  0.45138  0.41173  0.32489  1.0000
  H   H1143     1.0  0.34072  0.36708  0.26641  1.0000
  H   H1144     1.0  0.35822  0.34549  0.26520  1.0000
  C   C974      1.0  0.33841  0.30332  0.31268  1.0000
  C   C975      1.0  0.32572  0.30256  0.32169  1.0000
  C   C976      1.0  0.32439  0.30117  0.33570  1.0000
  C   C977      1.0  0.33580  0.30035  0.34070  1.0000
  C   C978      1.0  0.34846  0.30098  0.33168  1.0000
  C   C979      1.0  0.34972  0.30261  0.31773  1.0000
  H   H1145     1.0  0.31689  0.30319  0.31788  1.0000
  H   H1146     1.0  0.31458  0.30069  0.34257  1.0000
  H   H1147     1.0  0.35734  0.30033  0.33545  1.0000
  N   N64       1.0  0.30243  0.32868  0.28126  1.0000
  C   C980      1.0  0.29483  0.33233  0.29450  1.0000
  C   C981      1.0  0.30636  0.31360  0.28375  1.0000
  C   C982      1.0  0.31509  0.33403  0.27678  1.0000
  C   C983      1.0  0.29440  0.33419  0.27055  1.0000
  C   C984      1.0  0.28163  0.34380  0.27219  1.0000
  C   C985      1.0  0.29956  0.33035  0.25778  1.0000
  C   C986      1.0  0.27437  0.34882  0.26182  1.0000
  C   C987      1.0  0.29217  0.33539  0.24751  1.0000
  C   C988      1.0  0.27955  0.34452  0.24957  1.0000
  H   H1148     1.0  0.30096  0.32768  0.30246  1.0000
  H   H1149     1.0  0.29259  0.34349  0.29377  1.0000
  H   H1150     1.0  0.28504  0.32882  0.29835  1.0000
  H   H1151     1.0  0.29719  0.30920  0.28614  1.0000
  H   H1152     1.0  0.31160  0.30921  0.29242  1.0000
  H   H1153     1.0  0.31380  0.30983  0.27498  1.0000
  H   H1154     1.0  0.31261  0.34534  0.27478  1.0000
  H   H1155     1.0  0.32132  0.33030  0.28468  1.0000
  H   H1156     1.0  0.32184  0.33090  0.26738  1.0000
  H   H1157     1.0  0.27703  0.34772  0.28132  1.0000
  H   H1158     1.0  0.30943  0.32352  0.25558  1.0000
  H   H1159     1.0  0.26473  0.35628  0.26315  1.0000
  C   C989      1.0  0.19277  0.34770  0.23224  1.0000
  C   C990      1.0  0.16116  0.24251  0.26214  1.0000
  N   N65       1.0  0.46156  0.40045  0.33111  1.0000
  N   N66       1.0  0.29094  0.37592  0.35173  1.0000
  C   C991      1.0  0.29062  0.38799  0.34027  1.0000
  C   C992      1.0  0.30058  0.36423  0.34637  1.0000
  C   C993      1.0  0.27696  0.37315  0.35637  1.0000
  C   C994      1.0  0.29528  0.37770  0.36330  1.0000
  H   H1160     1.0  0.30093  0.39043  0.33592  1.0000
  H   H1161     1.0  0.28736  0.38636  0.33170  1.0000
  H   H1162     1.0  0.28323  0.39714  0.34341  1.0000
  H   H1163     1.0  0.31136  0.36530  0.34401  1.0000
  H   H1164     1.0  0.29846  0.36336  0.33687  1.0000
  H   H1165     1.0  0.29976  0.35435  0.35362  1.0000
  H   H1166     1.0  0.26945  0.38147  0.36093  1.0000
  H   H1167     1.0  0.27323  0.37204  0.34785  1.0000
  H   H1168     1.0  0.27652  0.36348  0.36408  1.0000
  H   H1169     1.0  0.29368  0.35745  0.37567  1.0000
  H   H1170     1.0  0.29351  0.37826  0.43613  1.0000
  S   S280      1.0  0.36461  0.34772  0.47982  1.0000
  C   C995      1.0  0.29576  0.32463  0.44333  1.0000
  H   H1171     1.0  0.15263  0.32543  0.26951  1.0000
  H   H1172     1.0  0.30539  0.40053  0.37442  1.0000
  H   H1173     1.0  0.11568  0.30640  0.27138  1.0000
  N   N67       1.0  0.36175  0.31021  0.37279  1.0000
  C   C996      1.0  0.25528  0.38889  0.24003  1.0000
  H   H1174     1.0  0.31749  0.47295  0.32526  1.0000
  H   H1175     1.0  0.45553  0.41563  0.31392  1.0000
  C   C997      1.0  0.37741  0.27248  0.23621  1.0000
  C   C998      1.0  0.36488  0.26355  0.27673  1.0000
  C   C999      1.0  0.38286  0.32095  0.39095  1.0000
  H   H1176     1.0  0.35410  0.33055  0.36249  1.0000
  H   H1177     1.0  0.29154  0.36506  0.42947  1.0000
  H   H1178     1.0  0.37110  0.28896  0.37815  1.0000
  C   C1000     1.0  0.38504  0.31581  0.36562  1.0000
  N   N68       1.0  0.27101  0.25584  0.34327  1.0000
  H   H1179     1.0  0.34128  0.30659  0.38157  1.0000
  H   H1180     1.0  0.34779  0.25759  0.25682  1.0000
  C   C1001     1.0  0.45654  0.39524  0.34582  1.0000
  S   S281      1.0  0.18770  0.24961  0.35558  1.0000
  H   H1181     1.0  0.36520  0.31962  0.35134  1.0000
  H   H1182     1.0  0.29822  0.35720  0.46963  1.0000
  H   H1183     1.0  0.38651  0.31368  0.35574  1.0000
  C   C1002     1.0  0.30033  0.36837  0.38600  1.0000
  H   H1184     1.0  0.42764  0.39700  0.37171  1.0000
  H   H1185     1.0  0.27738  0.23604  0.35554  1.0000
  C   C1003     1.0  0.30452  0.27058  0.34661  1.0000
  H   H1186     1.0  0.41308  0.30194  0.24131  1.0000
  H   H1187     1.0  0.47756  0.41051  0.31801  1.0000
  C   C1004     1.0  0.28100  0.38271  0.24658  1.0000
  C   C1005     1.0  0.37210  0.31704  0.38857  1.0000
  H   H1188     1.0  0.33196  0.34933  0.38883  1.0000
  C   C1006     1.0  0.46549  0.38534  0.35352  1.0000
  C   C1007     1.0  0.35120  0.37222  0.36965  1.0000
  H   H1189     1.0  0.36028  0.46768  0.38244  1.0000
  C   C1008     1.0  0.37384  0.38171  0.38135  1.0000
  H   H1190     1.0  0.35012  0.38120  0.36163  1.0000
  H   H1191     1.0  0.25632  0.27122  0.35318  1.0000
  C   C1009     1.0  0.24788  0.26535  0.38262  1.0000
  C   C1010     1.0  0.38231  0.27605  0.24561  1.0000
  H   H1192     1.0  0.28247  0.24264  0.32948  1.0000
  H   H1193     1.0  0.30673  0.38154  0.39440  1.0000
  H   H1194     1.0  0.31116  0.36213  0.45479  1.0000
  H   H1195     1.0  0.34814  0.31772  0.35890  1.0000
  C   C1011     1.0  0.25585  0.25501  0.39064  1.0000
  H   H1196     1.0  0.47236  0.41312  0.33515  1.0000
  C   C1012     1.0  0.44273  0.39936  0.35282  1.0000
  H   H1197     1.0  0.36425  0.38975  0.38250  1.0000
  C   C1013     1.0  0.29415  0.26254  0.33318  1.0000
  H   H1198     1.0  0.37405  0.37483  0.39150  1.0000
  H   H1199     1.0  0.29840  0.39859  0.35503  1.0000
  H   H1200     1.0  0.39764  0.29706  0.24214  1.0000
  N   N69       1.0  0.37458  0.37429  0.37094  1.0000
  C   C1014     1.0  0.38790  0.36422  0.36934  1.0000
  C   C1015     1.0  0.37452  0.38418  0.35772  1.0000
  C   C1016     1.0  0.36295  0.36742  0.37546  1.0000
  C   C1017     1.0  0.36271  0.35608  0.38657  1.0000
  C   C1018     1.0  0.35175  0.34958  0.39116  1.0000
  H   H1201     1.0  0.38987  0.35762  0.37917  1.0000
  H   H1202     1.0  0.39679  0.36922  0.36504  1.0000
  H   H1203     1.0  0.38842  0.35754  0.36253  1.0000
  H   H1204     1.0  0.36595  0.39329  0.35856  1.0000
  H   H1205     1.0  0.38401  0.38821  0.35390  1.0000
  H   H1206     1.0  0.37393  0.37940  0.34973  1.0000
  H   H1207     1.0  0.37085  0.35231  0.39209  1.0000
  H   H1208     1.0  0.35187  0.34101  0.39973  1.0000
  N   N70       1.0  0.13289  0.32451  0.26702  1.0000
  C   C1019     1.0  0.12748  0.32481  0.25523  1.0000
  C   C1020     1.0  0.12665  0.33767  0.27124  1.0000
  C   C1021     1.0  0.12526  0.29123  0.30105  1.0000
  H   H1209     1.0  0.12393  0.28247  0.30928  1.0000
  H   H1210     1.0  0.47280  0.38050  0.32763  1.0000
  H   H1211     1.0  0.26439  0.24712  0.33045  1.0000
  C   C1022     1.0  0.13381  0.29938  0.30093  1.0000
  H   H1212     1.0  0.18897  0.25667  0.25447  1.0000
  H   H1213     1.0  0.25429  0.24476  0.39320  1.0000
  H   H1214     1.0  0.28862  0.43617  0.23224  1.0000
  H   H1215     1.0  0.13137  0.31494  0.25193  1.0000
  H   H1216     1.0  0.11607  0.32706  0.25758  1.0000
  H   H1217     1.0  0.27389  0.34854  0.24154  1.0000
  H   H1218     1.0  0.12866  0.34640  0.26263  1.0000
  H   H1219     1.0  0.13080  0.33850  0.27957  1.0000
  H   H1220     1.0  0.26027  0.27590  0.33508  1.0000
  S   S282      1.0  0.20985  0.23755  0.38407  1.0000
  C   C1023     1.0  0.30483  0.26749  0.33441  1.0000
  C   C1024     1.0  0.27830  0.36255  0.45584  1.0000
  C   C1025     1.0  0.37287  0.31439  0.37575  1.0000
  C   C1026     1.0  0.47413  0.40556  0.32884  1.0000
  C   C1027     1.0  0.18067  0.26185  0.24885  1.0000
  H   H1221     1.0  0.44203  0.40833  0.32528  1.0000
  H   H1222     1.0  0.48301  0.39728  0.33133  1.0000
  H   H1223     1.0  0.18382  0.27088  0.24140  1.0000
  S   S283      1.0  0.15861  0.30620  0.23406  1.0000
  C   C1028     1.0  0.27324  0.25109  0.33056  1.0000
  H   H1224     1.0  0.19974  0.24432  0.23610  1.0000
  C   C1029     1.0  0.38374  0.26040  0.23159  1.0000
  H   H1225     1.0  0.39145  0.35945  0.47163  1.0000
  H   H1226     1.0  0.27471  0.37327  0.45713  1.0000
  H   H1227     1.0  0.15325  0.31295  0.26048  1.0000
  H   H1228     1.0  0.24536  0.39136  0.23752  1.0000
  H   H1229     1.0  0.36754  0.38848  0.23382  1.0000
  H   H1230     1.0  0.29077  0.32037  0.43820  1.0000
  H   H1231     1.0  0.34910  0.27569  0.26629  1.0000
  H   H1232     1.0  0.16333  0.25296  0.23088  1.0000
  C   C1030     1.0  0.17897  0.23753  0.35572  1.0000
  H   H1233     1.0  0.47602  0.38142  0.34883  1.0000
  C   C1031     1.0  0.34108  0.47873  0.32619  1.0000
  C   C1032     1.0  0.13598  0.31034  0.29004  1.0000
  H   H1234     1.0  0.31071  0.30607  0.44750  1.0000
  H   H1235     1.0  0.17675  0.24521  0.30467  1.0000
  H   H1236     1.0  0.34484  0.31973  0.38698  1.0000
  H   H1237     1.0  0.24940  0.26401  0.34384  1.0000
  H   H1238     1.0  0.29499  0.26042  0.32346  1.0000
  H   H1239     1.0  0.15059  0.33075  0.25257  1.0000
  H   H1240     1.0  0.46899  0.39263  0.31273  1.0000
  H   H1241     1.0  0.43506  0.40663  0.34784  1.0000
  C   C1033     1.0  0.35559  0.26567  0.26866  1.0000
  C   C1034     1.0  0.36356  0.24194  0.26605  1.0000
  N   N71       1.0  0.39748  0.35869  0.27520  1.0000
  C   C1035     1.0  0.40443  0.36164  0.26065  1.0000
  C   C1036     1.0  0.39906  0.34370  0.27973  1.0000
  C   C1037     1.0  0.38258  0.36480  0.27655  1.0000
  C   C1038     1.0  0.40336  0.36459  0.28298  1.0000
  C   C1039     1.0  0.41164  0.35648  0.29225  1.0000
  C   C1040     1.0  0.40127  0.37892  0.28101  1.0000
  C   C1041     1.0  0.41729  0.36237  0.29921  1.0000
  C   C1042     1.0  0.40688  0.38471  0.28811  1.0000
  C   C1043     1.0  0.41489  0.37644  0.29718  1.0000
  H   H1242     1.0  0.40044  0.35720  0.25443  1.0000
  H   H1243     1.0  0.40293  0.37274  0.25624  1.0000
  H   H1244     1.0  0.41569  0.35734  0.25920  1.0000
  H   H1245     1.0  0.41004  0.33825  0.27793  1.0000
  H   H1246     1.0  0.39416  0.33962  0.27401  1.0000
  H   H1247     1.0  0.39427  0.34072  0.29071  1.0000
  H   H1248     1.0  0.37763  0.35959  0.27199  1.0000
  H   H1249     1.0  0.37726  0.36412  0.28740  1.0000
  H   H1250     1.0  0.38043  0.37564  0.27122  1.0000
  H   H1251     1.0  0.41404  0.34555  0.29425  1.0000
  H   H1252     1.0  0.39543  0.38576  0.27384  1.0000
  H   H1253     1.0  0.42376  0.35596  0.30609  1.0000
  H   H1254     1.0  0.40519  0.39567  0.28645  1.0000
  H   H1255     1.0  0.41940  0.38093  0.30254  1.0000
  H   H1256     1.0  0.27183  0.25000  0.40177  1.0000
  C   C1044     1.0  0.35715  0.31997  0.36086  1.0000
  H   H1257     1.0  0.11533  0.33897  0.27495  1.0000
  C   C1045     1.0  0.29800  0.34438  0.45015  1.0000
  C   C1046     1.0  0.29623  0.36699  0.37495  1.0000
  H   H1258     1.0  0.14262  0.31640  0.29047  1.0000
  Fe  Fe143     1.0  0.23010  0.24352  0.37353  1.0000
  H   H1259     1.0  0.29322  0.27121  0.36713  1.0000
  H   H1260     1.0  0.38057  0.44890  0.37849  1.0000
  C   C1047     1.0  0.37172  0.44697  0.38654  1.0000
  C   C1048     1.0  0.34024  0.36564  0.37437  1.0000
  N   N72       1.0  0.35000  0.34940  0.31332  1.0000
  C   C1049     1.0  0.34970  0.35185  0.29881  1.0000
  C   C1050     1.0  0.35318  0.33445  0.31861  1.0000
  C   C1051     1.0  0.33608  0.35484  0.32103  1.0000
  C   C1052     1.0  0.36007  0.35632  0.31448  1.0000
  C   C1053     1.0  0.35748  0.37074  0.31156  1.0000
  C   C1054     1.0  0.37291  0.34914  0.31777  1.0000
  C   C1055     1.0  0.36694  0.37754  0.31231  1.0000
  C   C1056     1.0  0.38232  0.35606  0.31844  1.0000
  C   C1057     1.0  0.37932  0.37021  0.31578  1.0000
  H   H1261     1.0  0.36009  0.34864  0.29258  1.0000
  H   H1262     1.0  0.34294  0.34611  0.29726  1.0000
  H   H1263     1.0  0.34586  0.36274  0.29447  1.0000
  H   H1264     1.0  0.36291  0.32929  0.31259  1.0000
  H   H1265     1.0  0.34511  0.32970  0.31800  1.0000
  H   H1266     1.0  0.35384  0.33183  0.32944  1.0000
  H   H1267     1.0  0.33162  0.36542  0.31624  1.0000
  H   H1268     1.0  0.32861  0.34887  0.32149  1.0000
  H   H1269     1.0  0.33622  0.35453  0.33166  1.0000
  H   H1270     1.0  0.34817  0.37691  0.30848  1.0000
  H   H1271     1.0  0.37600  0.33818  0.31973  1.0000
  H   H1272     1.0  0.36468  0.38858  0.31010  1.0000
  H   H1273     1.0  0.39209  0.35041  0.32091  1.0000
  H   H1274     1.0  0.38669  0.37550  0.31627  1.0000
  H   H1275     1.0  0.30793  0.36488  0.43206  1.0000
  H   H1276     1.0  0.11211  0.28771  0.29049  1.0000
  H   H1277     1.0  0.27445  0.26295  0.36521  1.0000
  H   H1278     1.0  0.35875  0.29267  0.36793  1.0000
  C   C1058     1.0  0.29138  0.33836  0.44397  1.0000
  H   H1279     1.0  0.30080  0.36004  0.39481  1.0000
  C   C1059     1.0  0.39463  0.32227  0.38075  1.0000
  C   C1060     1.0  0.29667  0.36714  0.43641  1.0000
  C   C1061     1.0  0.11862  0.29419  0.29044  1.0000
  S   S284      1.0  0.14694  0.25306  0.30066  1.0000
  H   H1280     1.0  0.31544  0.33949  0.45989  1.0000
  H   H1281     1.0  0.37527  0.29625  0.36029  1.0000
  H   H1282     1.0  0.32298  0.31597  0.45803  1.0000
  S   S285      1.0  0.33655  0.47910  0.36536  1.0000
  H   H1283     1.0  0.35202  0.30200  0.39339  1.0000
  H   H1284     1.0  0.27428  0.25947  0.32142  1.0000
  C   C1062     1.0  0.46493  0.38928  0.32382  1.0000
  C   C1063     1.0  0.30289  0.39111  0.37450  1.0000
  C   C1064     1.0  0.12988  0.31326  0.27874  1.0000
  H   H1285     1.0  0.13893  0.29704  0.30924  1.0000
  H   H1286     1.0  0.38213  0.32276  0.40087  1.0000
  C   C1065     1.0  0.30363  0.38042  0.38580  1.0000
  C   C1066     1.0  0.43827  0.39387  0.36663  1.0000
  C   C1067     1.0  0.39572  0.31973  0.36812  1.0000
  N   N73       1.0  0.35975  0.41663  0.41203  1.0000
  C   C1068     1.0  0.37045  0.41176  0.42011  1.0000
  C   C1069     1.0  0.34639  0.41505  0.42149  1.0000
  C   C1070     1.0  0.36275  0.40767  0.40232  1.0000
  C   C1071     1.0  0.35989  0.43081  0.40448  1.0000
  C   C1072     1.0  0.37158  0.43382  0.39432  1.0000
  C   C1073     1.0  0.34855  0.44192  0.40671  1.0000
  C   C1074     1.0  0.34884  0.45506  0.39889  1.0000
  C   C1075     1.0  0.36034  0.45756  0.38876  1.0000
  H   H1287     1.0  0.36879  0.41835  0.42738  1.0000
  H   H1288     1.0  0.37057  0.40113  0.42601  1.0000
  H   H1289     1.0  0.38094  0.41160  0.41358  1.0000
  H   H1290     1.0  0.34381  0.42086  0.42962  1.0000
  H   H1291     1.0  0.34646  0.40426  0.42677  1.0000
  H   H1292     1.0  0.33790  0.41843  0.41597  1.0000
  H   H1293     1.0  0.36157  0.39717  0.40762  1.0000
  H   H1294     1.0  0.35590  0.41179  0.39502  1.0000
  H   H1295     1.0  0.37351  0.40645  0.39630  1.0000
  H   H1296     1.0  0.38056  0.42592  0.39201  1.0000
  H   H1297     1.0  0.33917  0.44072  0.41414  1.0000
  H   H1298     1.0  0.33993  0.46333  0.40034  1.0000
  H   H1299     1.0  0.40504  0.32056  0.36032  1.0000
  C   C1076     1.0  0.30948  0.33584  0.45534  1.0000
  S   S286      1.0  0.48786  0.35251  0.32985  1.0000
  C   C1077     1.0  0.12084  0.30502  0.27942  1.0000
  H   H1300     1.0  0.15761  0.26537  0.24133  1.0000
  H   H1301     1.0  0.31492  0.40562  0.24123  1.0000
  N   N74       1.0  0.29336  0.35903  0.45043  1.0000
  C   C1078     1.0  0.29995  0.36321  0.45900  1.0000
  C   C1079     1.0  0.39109  0.36393  0.47993  1.0000
  H   H1302     1.0  0.30148  0.42840  0.24202  1.0000
  H   H1303     1.0  0.37289  0.37906  0.47686  1.0000
  C   C1080     1.0  0.44733  0.38417  0.37385  1.0000
  C   C1081     1.0  0.39515  0.25190  0.23642  1.0000
  H   H1304     1.0  0.15411  0.25227  0.26174  1.0000
  C   C1082     1.0  0.36697  0.29647  0.36965  1.0000
  H   H1305     1.0  0.27236  0.36167  0.44896  1.0000
  C   C1083     1.0  0.28279  0.26055  0.34426  1.0000
  H   H1306     1.0  0.15259  0.25005  0.38072  1.0000
  H   H1307     1.0  0.28625  0.42210  0.24659  1.0000
  C   C1084     1.0  0.31391  0.32217  0.45444  1.0000
  N   N75       1.0  0.17795  0.25251  0.24211  1.0000
  H   H1308     1.0  0.31277  0.27444  0.34754  1.0000
  H   H1309     1.0  0.44826  0.42045  0.33002  1.0000
  H   H1310     1.0  0.40888  0.24887  0.24960  1.0000
  C   C1085     1.0  0.25875  0.26721  0.34381  1.0000
  C   C1086     1.0  0.37357  0.25085  0.27948  1.0000
  H   H1311     1.0  0.36560  0.27186  0.28058  1.0000
  C   C1087     1.0  0.28282  0.26390  0.35646  1.0000
  S   S287      1.0  0.20823  0.34780  0.23575  1.0000
  C   C1088     1.0  0.26806  0.24435  0.35479  1.0000
  H   H1312     1.0  0.31341  0.26899  0.32588  1.0000
  H   H1313     1.0  0.45567  0.38540  0.32500  1.0000
  S   S288      1.0  0.22626  0.24701  0.35264  1.0000
  C   C1089     1.0  0.29354  0.26876  0.35761  1.0000
  C   C1090     1.0  0.27913  0.37718  0.23662  1.0000
  C   C1091     1.0  0.36551  0.37913  0.24074  1.0000
  C   C1092     1.0  0.35495  0.25511  0.26329  1.0000
  H   H1314     1.0  0.29963  0.39931  0.24514  1.0000
  H   H1315     1.0  0.17144  0.26577  0.25629  1.0000
  C   C1093     1.0  0.16675  0.25996  0.23484  1.0000
  H   H1316     1.0  0.14387  0.25050  0.36103  1.0000
  H   H1317     1.0  0.19489  0.32618  0.24019  1.0000
  H   H1318     1.0  0.33376  0.47565  0.30491  1.0000
  C   C1094     1.0  0.17390  0.24076  0.25260  1.0000
  H   H1319     1.0  0.40033  0.24270  0.23271  1.0000
  H   H1320     1.0  0.34282  0.46810  0.32501  1.0000
  H   H1321     1.0  0.27158  0.42522  0.23303  1.0000
  H   H1322     1.0  0.17321  0.32545  0.23538  1.0000
  H   H1323     1.0  0.38507  0.36703  0.23277  1.0000
  C   C1095     1.0  0.26630  0.38024  0.23325  1.0000
  C   C1096     1.0  0.18854  0.33542  0.23561  1.0000
  H   H1324     1.0  0.25992  0.23996  0.35376  1.0000
  H   H1325     1.0  0.35512  0.24199  0.24314  1.0000
  H   H1326     1.0  0.48897  0.32281  0.35373  1.0000
  C   C1097     1.0  0.14693  0.24257  0.38134  1.0000
  C   C1098     1.0  0.14203  0.24279  0.37023  1.0000
  H   H1327     1.0  0.29626  0.33233  0.23783  1.0000
  C   C1099     1.0  0.17624  0.33501  0.23291  1.0000
  H   H1328     1.0  0.28771  0.37050  0.23144  1.0000
  H   H1329     1.0  0.31458  0.48234  0.33787  1.0000
  H   H1330     1.0  0.33877  0.47843  0.33726  1.0000
  H   H1331     1.0  0.35092  0.48210  0.32164  1.0000
  C   C1100     1.0  0.19049  0.24858  0.23170  1.0000
  C   C1101     1.0  0.18432  0.23578  0.30377  1.0000
  H   H1332     1.0  0.34212  0.23737  0.25816  1.0000
  H   H1333     1.0  0.41396  0.28706  0.23573  1.0000
  H   H1334     1.0  0.19095  0.23498  0.32142  1.0000
  Fe  Fe144     1.0  0.14045  0.30114  0.23086  1.0000
  H   H1335     1.0  0.31295  0.39599  0.23059  1.0000
  Fe  Fe145     1.0  0.46519  0.34752  0.62390  1.0000
  S   S289      1.0  0.44850  0.33858  0.63971  1.0000
  C   C1102     1.0  0.37966  0.38049  0.49397  1.0000
  Fe  Fe146     1.0  0.44573  0.36117  0.60428  1.0000
  S   S290      1.0  0.42808  0.35323  0.61863  1.0000
  S   S291      1.0  0.44202  0.37430  0.58415  1.0000
  Fe  Fe147     1.0  0.43480  0.35899  0.63426  1.0000
  S   S292      1.0  0.41834  0.36845  0.65015  1.0000
  Fe  Fe148     1.0  0.44347  0.33376  0.62239  1.0000
  S   S293      1.0  0.43891  0.31488  0.62022  1.0000
  S   S294      1.0  0.45171  0.36841  0.61966  1.0000
  S   S295      1.0  0.46100  0.34119  0.60687  1.0000
  Fe  Fe149     1.0  0.38063  0.35995  0.56385  1.0000
  S   S296      1.0  0.36972  0.35390  0.58543  1.0000
  S   S297      1.0  0.40297  0.36043  0.55541  1.0000
  Fe  Fe150     1.0  0.35525  0.36549  0.55268  1.0000
  S   S298      1.0  0.34175  0.36063  0.57362  1.0000
  S   S299      1.0  0.34682  0.37219  0.53338  1.0000
  Fe  Fe151     1.0  0.35312  0.37208  0.58033  1.0000
  S   S300      1.0  0.34332  0.38229  0.59823  1.0000
  Fe  Fe152     1.0  0.35903  0.34285  0.57756  1.0000
  S   S301      1.0  0.35586  0.32209  0.58970  1.0000
  S   S302      1.0  0.36474  0.37901  0.55904  1.0000
  S   S303      1.0  0.37183  0.34685  0.55631  1.0000
  Fe  Fe153     1.0  0.35564  0.44203  0.61964  1.0000
  S   S304      1.0  0.36493  0.42471  0.63454  1.0000
  S   S305      1.0  0.35539  0.43782  0.59968  1.0000
  Fe  Fe154     1.0  0.35233  0.46298  0.63678  1.0000
  S   S306      1.0  0.36151  0.44692  0.65292  1.0000
  Fe  Fe155     1.0  0.37680  0.43906  0.63542  1.0000
  S   S307      1.0  0.39962  0.43214  0.63250  1.0000
  Fe  Fe156     1.0  0.34864  0.43418  0.65036  1.0000
  S   S308      1.0  0.33778  0.42050  0.66816  1.0000
  S   S309      1.0  0.36867  0.45597  0.61938  1.0000
  S   S310      1.0  0.33822  0.45066  0.63543  1.0000
  C   C1103     1.0  0.31478  0.30751  0.65985  1.0000
  Fe  Fe157     1.0  0.29431  0.28734  0.61433  1.0000
  S   S311      1.0  0.27315  0.28949  0.62777  1.0000
  S   S312      1.0  0.29938  0.30558  0.59808  1.0000
  Fe  Fe158     1.0  0.30425  0.25934  0.63024  1.0000
  S   S313      1.0  0.28410  0.25907  0.64518  1.0000
  H   H1336     1.0  0.13201  0.30254  0.69489  1.0000
  Fe  Fe159     1.0  0.27449  0.26788  0.62706  1.0000
  S   S314      1.0  0.25400  0.26248  0.62970  1.0000
  Fe  Fe160     1.0  0.28400  0.28049  0.64486  1.0000
  S   S315      1.0  0.27843  0.28742  0.66457  1.0000
  S   S316      1.0  0.29485  0.26648  0.61185  1.0000
  S   S317      1.0  0.30499  0.27996  0.63157  1.0000
  Fe  Fe161     1.0  0.28498  0.38086  0.67074  1.0000
  S   S318      1.0  0.26275  0.38064  0.67446  1.0000
  S   S319      1.0  0.29359  0.39787  0.65546  1.0000
  Fe  Fe162     1.0  0.29150  0.35330  0.68925  1.0000
  S   S320      1.0  0.26986  0.35043  0.69476  1.0000
  S   S321      1.0  0.30820  0.33855  0.69877  1.0000
  Fe  Fe163     1.0  0.27046  0.35885  0.67246  1.0000
  S   S322      1.0  0.26354  0.35126  0.65798  1.0000
  Fe  Fe164     1.0  0.26390  0.37233  0.69636  1.0000
  S   S323      1.0  0.29257  0.35983  0.66685  1.0000
  S   S324      1.0  0.28558  0.37442  0.69272  1.0000
  Fe  Fe165     1.0  0.36552  0.26335  0.68749  1.0000
  S   S325      1.0  0.38518  0.25256  0.67577  1.0000
  Fe  Fe166     1.0  0.36417  0.28897  0.66490  1.0000
  S   S326      1.0  0.38355  0.28006  0.65149  1.0000
  S   S327      1.0  0.35410  0.31009  0.65566  1.0000
  Fe  Fe167     1.0  0.37510  0.26130  0.65796  1.0000
  C   C1104     1.0  0.40003  0.36378  0.49891  1.0000
  Fe  Fe168     1.0  0.39150  0.27251  0.67053  1.0000
  S   S328      1.0  0.41138  0.27608  0.67177  1.0000
  S   S329      1.0  0.35499  0.27080  0.66994  1.0000
  S   S330      1.0  0.37258  0.28272  0.68365  1.0000
  C   C1105     1.0  0.34248  0.31860  0.66789  1.0000
  C   C1106     1.0  0.33487  0.33169  0.66374  1.0000
  C   C1107     1.0  0.32483  0.33824  0.67333  1.0000
  C   C1108     1.0  0.32233  0.33167  0.68704  1.0000
  C   C1109     1.0  0.33058  0.31897  0.69127  1.0000
  C   C1110     1.0  0.34055  0.31236  0.68168  1.0000
  H   H1337     1.0  0.33651  0.33665  0.65311  1.0000
  H   H1338     1.0  0.31895  0.34828  0.67012  1.0000
  H   H1339     1.0  0.46134  0.28041  0.62208  1.0000
  C   C1111     1.0  0.34902  0.25704  0.64257  1.0000
  C   C1112     1.0  0.33701  0.25563  0.63992  1.0000
  H   H1340     1.0  0.35155  0.35189  0.65872  1.0000
  H   H1341     1.0  0.16045  0.24215  0.65187  1.0000
  H   H1342     1.0  0.37100  0.38878  0.49590  1.0000
  H   H1343     1.0  0.34884  0.26574  0.64626  1.0000
  H   H1344     1.0  0.32760  0.26306  0.64191  1.0000
  H   H1345     1.0  0.40049  0.32963  0.57153  1.0000
  H   H1346     1.0  0.42146  0.33453  0.57385  1.0000
  C   C1113     1.0  0.26744  0.33351  0.66005  1.0000
  C   C1114     1.0  0.26745  0.32784  0.64943  1.0000
  C   C1115     1.0  0.27082  0.31370  0.65076  1.0000
  C   C1116     1.0  0.27390  0.30515  0.66283  1.0000
  C   C1117     1.0  0.27356  0.31081  0.67357  1.0000
  C   C1118     1.0  0.27039  0.32498  0.67216  1.0000
  H   H1347     1.0  0.26476  0.33439  0.64019  1.0000
  H   H1348     1.0  0.27090  0.30946  0.64247  1.0000
  H   H1349     1.0  0.27595  0.30424  0.68293  1.0000
  H   H1350     1.0  0.27014  0.32927  0.68049  1.0000
  H   H1351     1.0  0.34639  0.30227  0.68495  1.0000
  C   C1119     1.0  0.34864  0.36614  0.49604  1.0000
  C   C1120     1.0  0.14408  0.25285  0.71135  1.0000
  C   C1121     1.0  0.24938  0.25324  0.62046  1.0000
  H   H1352     1.0  0.36003  0.24013  0.66882  1.0000
  C   C1122     1.0  0.37127  0.32753  0.61856  1.0000
  H   H1353     1.0  0.29437  0.32738  0.68227  1.0000
  C   C1123     1.0  0.28733  0.42935  0.69447  1.0000
  H   H1354     1.0  0.11473  0.30008  0.70070  1.0000
  H   H1355     1.0  0.27869  0.42544  0.66682  1.0000
  H   H1356     1.0  0.23581  0.36528  0.70516  1.0000
  C   C1124     1.0  0.13939  0.24808  0.62847  1.0000
  H   H1357     1.0  0.13959  0.25801  0.62189  1.0000
  H   H1358     1.0  0.11762  0.25314  0.63666  1.0000
  H   H1359     1.0  0.32027  0.28793  0.69082  1.0000
  C   C1125     1.0  0.32599  0.41376  0.66437  1.0000
  C   C1126     1.0  0.32355  0.41720  0.65129  1.0000
  C   C1127     1.0  0.31375  0.41205  0.64858  1.0000
  C   C1128     1.0  0.30653  0.40329  0.65890  1.0000
  C   C1129     1.0  0.30937  0.39942  0.67184  1.0000
  C   C1130     1.0  0.31900  0.40475  0.67460  1.0000
  H   H1360     1.0  0.32898  0.42406  0.64331  1.0000
  H   H1361     1.0  0.31163  0.41507  0.63853  1.0000
  H   H1362     1.0  0.30396  0.39259  0.67980  1.0000
  H   H1363     1.0  0.32094  0.40200  0.68472  1.0000
  C   C1131     1.0  0.35209  0.36531  0.51849  1.0000
  C   C1132     1.0  0.36294  0.35400  0.51694  1.0000
  C   C1133     1.0  0.36647  0.34872  0.50512  1.0000
  H   H1364     1.0  0.36864  0.34924  0.52481  1.0000
  H   H1365     1.0  0.37488  0.33998  0.50404  1.0000
  C   C1134     1.0  0.34720  0.39750  0.59852  1.0000
  C   C1135     1.0  0.35201  0.40627  0.58651  1.0000
  C   C1136     1.0  0.35435  0.41866  0.58702  1.0000
  C   C1137     1.0  0.35224  0.42220  0.59953  1.0000
  C   C1138     1.0  0.34769  0.41329  0.61157  1.0000
  C   C1139     1.0  0.34501  0.40104  0.61105  1.0000
  H   H1366     1.0  0.35359  0.40368  0.57681  1.0000
  H   H1367     1.0  0.35775  0.42557  0.57767  1.0000
  H   H1368     1.0  0.34590  0.41600  0.62124  1.0000
  H   H1369     1.0  0.34119  0.39435  0.62038  1.0000
  C   C1140     1.0  0.33999  0.31775  0.59225  1.0000
  C   C1141     1.0  0.32943  0.32666  0.58634  1.0000
  C   C1142     1.0  0.31702  0.32282  0.58824  1.0000
  C   C1143     1.0  0.31499  0.31012  0.59621  1.0000
  C   C1144     1.0  0.32549  0.30126  0.60227  1.0000
  C   C1145     1.0  0.33795  0.30506  0.60026  1.0000
  H   H1370     1.0  0.33081  0.33650  0.58029  1.0000
  H   H1371     1.0  0.30893  0.32971  0.58355  1.0000
  H   H1372     1.0  0.32420  0.29130  0.60812  1.0000
  H   H1373     1.0  0.34612  0.29803  0.60474  1.0000
  C   C1146     1.0  0.41301  0.38614  0.64518  1.0000
  C   C1147     1.0  0.40070  0.39300  0.65234  1.0000
  C   C1148     1.0  0.39638  0.40716  0.64837  1.0000
  C   C1149     1.0  0.40465  0.41449  0.63759  1.0000
  C   C1150     1.0  0.41698  0.40764  0.63053  1.0000
  C   C1151     1.0  0.42099  0.39347  0.63415  1.0000
  H   H1374     1.0  0.39452  0.38741  0.66096  1.0000
  H   H1375     1.0  0.38684  0.41246  0.65387  1.0000
  H   H1376     1.0  0.42329  0.41329  0.62208  1.0000
  H   H1377     1.0  0.43026  0.38830  0.62837  1.0000
  C   C1152     1.0  0.43068  0.37029  0.57683  1.0000
  C   C1153     1.0  0.43405  0.37115  0.56280  1.0000
  C   C1154     1.0  0.42539  0.36816  0.55649  1.0000
  C   C1155     1.0  0.41297  0.36471  0.56402  1.0000
  C   C1156     1.0  0.40926  0.36425  0.57805  1.0000
  C   C1157     1.0  0.41820  0.36687  0.58448  1.0000
  H   H1378     1.0  0.44357  0.37390  0.55680  1.0000
  H   H1379     1.0  0.42837  0.36852  0.54568  1.0000
  H   H1380     1.0  0.39972  0.36153  0.58397  1.0000
  H   H1381     1.0  0.41534  0.36644  0.59527  1.0000
  C   C1158     1.0  0.43040  0.30496  0.63472  1.0000
  C   C1159     1.0  0.42465  0.29511  0.63309  1.0000
  C   C1160     1.0  0.41825  0.28662  0.64447  1.0000
  C   C1161     1.0  0.41794  0.28770  0.65753  1.0000
  C   C1162     1.0  0.42367  0.29758  0.65918  1.0000
  C   C1163     1.0  0.42971  0.30637  0.64777  1.0000
  H   H1382     1.0  0.42527  0.29394  0.62299  1.0000
  H   H1383     1.0  0.41412  0.27882  0.64315  1.0000
  H   H1384     1.0  0.42350  0.29836  0.66929  1.0000
  H   H1385     1.0  0.43414  0.31394  0.64910  1.0000
  C   C1164     1.0  0.47306  0.37692  0.65641  1.0000
  S   S331      1.0  0.16674  0.24201  0.61759  1.0000
  C   C1165     1.0  0.38092  0.36211  0.65579  1.0000
  C   C1166     1.0  0.33714  0.24431  0.63519  1.0000
  S   S332      1.0  0.35373  0.25344  0.70774  1.0000
  C   C1167     1.0  0.12696  0.24533  0.63682  1.0000
  H   H1386     1.0  0.22148  0.24198  0.62060  1.0000
  C   C1168     1.0  0.41653  0.32911  0.59569  1.0000
  C   C1169     1.0  0.13279  0.28009  0.71446  1.0000
  C   C1170     1.0  0.39285  0.32346  0.59315  1.0000
  C   C1171     1.0  0.14913  0.23978  0.67265  1.0000
  C   C1172     1.0  0.31587  0.29636  0.68354  1.0000
  N   N76       1.0  0.30134  0.38172  0.62169  1.0000
  C   C1173     1.0  0.30354  0.39109  0.60818  1.0000
  C   C1174     1.0  0.28769  0.38748  0.62963  1.0000
  C   C1175     1.0  0.31186  0.38155  0.62880  1.0000
  C   C1176     1.0  0.30261  0.36785  0.61996  1.0000
  C   C1177     1.0  0.31483  0.36119  0.61209  1.0000
  C   C1178     1.0  0.29193  0.36060  0.62580  1.0000
  C   C1179     1.0  0.31610  0.34837  0.60976  1.0000
  C   C1180     1.0  0.29326  0.34783  0.62327  1.0000
  C   C1181     1.0  0.30523  0.34181  0.61513  1.0000
  H   H1387     1.0  0.29624  0.39106  0.60223  1.0000
  H   H1388     1.0  0.30220  0.40173  0.60911  1.0000
  H   H1389     1.0  0.31409  0.38836  0.60199  1.0000
  H   H1390     1.0  0.27927  0.38805  0.62477  1.0000
  H   H1391     1.0  0.28697  0.39800  0.63054  1.0000
  H   H1392     1.0  0.28562  0.38143  0.64023  1.0000
  H   H1393     1.0  0.32247  0.37803  0.62313  1.0000
  H   H1394     1.0  0.31129  0.39188  0.63013  1.0000
  H   H1395     1.0  0.31044  0.37479  0.63910  1.0000
  H   H1396     1.0  0.32348  0.36594  0.60753  1.0000
  H   H1397     1.0  0.28237  0.36457  0.63229  1.0000
  H   H1398     1.0  0.32554  0.34361  0.60364  1.0000
  H   H1399     1.0  0.28486  0.34266  0.62759  1.0000
  H   H1400     1.0  0.30608  0.33200  0.61305  1.0000
  N   N77       1.0  0.38873  0.38046  0.51416  1.0000
  C   C1182     1.0  0.38743  0.36967  0.52669  1.0000
  C   C1183     1.0  0.40149  0.38510  0.51223  1.0000
  C   C1184     1.0  0.37695  0.39211  0.51645  1.0000
  C   C1185     1.0  0.38939  0.37500  0.50234  1.0000
  S   S333      1.0  0.37657  0.24851  0.64335  1.0000
  H   H1401     1.0  0.41680  0.41397  0.58752  1.0000
  C   C1186     1.0  0.39808  0.38590  0.61504  1.0000
  C   C1187     1.0  0.39336  0.39420  0.60337  1.0000
  H   H1402     1.0  0.40965  0.32346  0.61692  1.0000
  H   H1403     1.0  0.39632  0.36083  0.52641  1.0000
  H   H1404     1.0  0.38685  0.37349  0.53576  1.0000
  H   H1405     1.0  0.37799  0.36589  0.52850  1.0000
  H   H1406     1.0  0.41072  0.37661  0.51189  1.0000
  H   H1407     1.0  0.40115  0.38967  0.52077  1.0000
  H   H1408     1.0  0.36697  0.38914  0.51848  1.0000
  H   H1409     1.0  0.37667  0.39586  0.52550  1.0000
  H   H1410     1.0  0.37746  0.40086  0.50761  1.0000
  H   H1411     1.0  0.43808  0.38531  0.66215  1.0000
  C   C1188     1.0  0.23341  0.37638  0.72044  1.0000
  C   C1189     1.0  0.31993  0.29628  0.66967  1.0000
  H   H1412     1.0  0.37270  0.33777  0.61814  1.0000
  C   C1190     1.0  0.39487  0.32165  0.60641  1.0000
  H   H1413     1.0  0.30094  0.32760  0.65804  1.0000
  N   N78       1.0  0.23577  0.28776  0.66055  1.0000
  C   C1191     1.0  0.22481  0.28202  0.67111  1.0000
  C   C1192     1.0  0.23309  0.28875  0.64709  1.0000
  C   C1193     1.0  0.24912  0.27808  0.66141  1.0000
  C   C1194     1.0  0.23608  0.30096  0.66287  1.0000
  C   C1195     1.0  0.23859  0.30166  0.67526  1.0000
  C   C1196     1.0  0.23387  0.31340  0.65316  1.0000
  C   C1197     1.0  0.23861  0.31402  0.67786  1.0000
  C   C1198     1.0  0.23390  0.32571  0.65589  1.0000
  C   C1199     1.0  0.23620  0.32603  0.66822  1.0000
  H   H1414     1.0  0.21464  0.28920  0.67107  1.0000
  H   H1415     1.0  0.22404  0.27223  0.66946  1.0000
  H   H1416     1.0  0.22668  0.27983  0.68149  1.0000
  H   H1417     1.0  0.22307  0.29569  0.64576  1.0000
  H   H1418     1.0  0.23267  0.27871  0.64576  1.0000
  H   H1419     1.0  0.24142  0.29222  0.63861  1.0000
  H   H1420     1.0  0.25127  0.27539  0.67173  1.0000
  H   H1421     1.0  0.24975  0.26839  0.65859  1.0000
  H   H1422     1.0  0.25767  0.28254  0.65441  1.0000
  H   H1423     1.0  0.24080  0.29260  0.68294  1.0000
  H   H1424     1.0  0.23227  0.31390  0.64330  1.0000
  H   H1425     1.0  0.24087  0.31428  0.68724  1.0000
  H   H1426     1.0  0.23243  0.33507  0.64829  1.0000
  H   H1427     1.0  0.23657  0.33556  0.67014  1.0000
  C   C1200     1.0  0.30537  0.31871  0.66482  1.0000
  C   C1201     1.0  0.47748  0.38855  0.65642  1.0000
  H   H1428     1.0  0.39175  0.29610  0.61766  1.0000
  C   C1202     1.0  0.45882  0.38766  0.63995  1.0000
  H   H1429     1.0  0.14341  0.24260  0.59996  1.0000
  C   C1203     1.0  0.38205  0.30406  0.61810  1.0000
  H   H1430     1.0  0.34976  0.39213  0.66891  1.0000
  C   C1204     1.0  0.38992  0.34935  0.65637  1.0000
  C   C1205     1.0  0.36125  0.24727  0.64023  1.0000
  C   C1206     1.0  0.38063  0.37503  0.48289  1.0000
  H   H1431     1.0  0.44886  0.37797  0.67423  1.0000
  H   H1432     1.0  0.35138  0.30765  0.56288  1.0000
  H   H1433     1.0  0.38517  0.37066  0.65505  1.0000
  C   C1207     1.0  0.28339  0.42856  0.67307  1.0000
  H   H1434     1.0  0.39728  0.42313  0.57852  1.0000
  H   H1435     1.0  0.47985  0.35465  0.65941  1.0000
  H   H1436     1.0  0.32439  0.28601  0.64659  1.0000
  N   N79       1.0  0.27033  0.41604  0.69520  1.0000
  H   H1437     1.0  0.32197  0.34140  0.55994  1.0000
  H   H1438     1.0  0.38036  0.31196  0.64046  1.0000
  H   H1439     1.0  0.36689  0.32837  0.60977  1.0000
  H   H1440     1.0  0.30816  0.44596  0.66782  1.0000
  H   H1441     1.0  0.35839  0.32425  0.54539  1.0000
  C   C1208     1.0  0.31033  0.25795  0.67601  1.0000
  H   H1442     1.0  0.37788  0.30473  0.60922  1.0000
  H   H1443     1.0  0.35380  0.37480  0.67790  1.0000
  H   H1444     1.0  0.32829  0.35122  0.54352  1.0000
  C   C1209     1.0  0.23185  0.24351  0.61756  1.0000
  C   C1210     1.0  0.22923  0.36853  0.71422  1.0000
  C   C1211     1.0  0.34898  0.33180  0.54880  1.0000
  C   C1212     1.0  0.39441  0.37348  0.62138  1.0000
  C   C1213     1.0  0.30020  0.44039  0.67328  1.0000
  S   S334      1.0  0.32222  0.24161  0.63248  1.0000
  C   C1214     1.0  0.10825  0.23662  0.72282  1.0000
  C   C1215     1.0  0.35705  0.38215  0.66837  1.0000
  H   H1445     1.0  0.11576  0.27768  0.70770  1.0000
  N   N80       1.0  0.39783  0.40711  0.59658  1.0000
  H   H1446     1.0  0.25027  0.41822  0.70857  1.0000
  C   C1216     1.0  0.38510  0.33784  0.65770  1.0000
  H   H1447     1.0  0.27447  0.40406  0.68023  1.0000
  H   H1448     1.0  0.39789  0.30765  0.63231  1.0000
  H   H1449     1.0  0.31756  0.32936  0.63873  1.0000
  C   C1217     1.0  0.31527  0.24743  0.66901  1.0000
  H   H1450     1.0  0.29564  0.43891  0.65513  1.0000
  C   C1218     1.0  0.33439  0.23799  0.68071  1.0000
  C   C1219     1.0  0.21640  0.36501  0.71964  1.0000
  H   H1451     1.0  0.30361  0.30767  0.69876  1.0000
  C   C1220     1.0  0.28035  0.42459  0.68750  1.0000
  N   N81       1.0  0.12645  0.29419  0.71630  1.0000
  C   C1221     1.0  0.12286  0.30300  0.70351  1.0000
  H   H1452     1.0  0.16071  0.25386  0.71906  1.0000
  H   H1453     1.0  0.34782  0.33139  0.55976  1.0000
  H   H1454     1.0  0.31605  0.34168  0.54536  1.0000
  C   C1222     1.0  0.32523  0.34139  0.54891  1.0000
  C   C1223     1.0  0.45143  0.26955  0.64059  1.0000
  C   C1224     1.0  0.48933  0.28813  0.63460  1.0000
  C   C1225     1.0  0.32908  0.24889  0.68762  1.0000
  N   N82       1.0  0.31858  0.30770  0.64510  1.0000
  H   H1455     1.0  0.33395  0.31913  0.64102  1.0000
  H   H1456     1.0  0.33842  0.29395  0.64460  1.0000
  H   H1457     1.0  0.34795  0.32044  0.52914  1.0000
  H   H1458     1.0  0.33027  0.32792  0.52890  1.0000
  H   H1459     1.0  0.45651  0.35817  0.66309  1.0000
  H   H1460     1.0  0.35095  0.34196  0.54323  1.0000
  C   C1226     1.0  0.30135  0.31863  0.67870  1.0000
  H   H1461     1.0  0.33821  0.37109  0.66587  1.0000
  C   C1227     1.0  0.32712  0.23758  0.67125  1.0000
  C   C1228     1.0  0.41419  0.33082  0.58284  1.0000
  C   C1229     1.0  0.11375  0.29419  0.72715  1.0000
  H   H1462     1.0  0.30848  0.30837  0.62946  1.0000
  C   C1230     1.0  0.45682  0.36540  0.65307  1.0000
  H   H1463     1.0  0.45936  0.39816  0.63964  1.0000
  H   H1464     1.0  0.36329  0.32489  0.62785  1.0000
  H   H1465     1.0  0.46470  0.36047  0.64518  1.0000
  H   H1466     1.0  0.48626  0.36933  0.61911  1.0000
  C   C1231     1.0  0.32476  0.31950  0.63747  1.0000
  N   N83       1.0  0.33658  0.32949  0.54624  1.0000
  H   H1467     1.0  0.34216  0.33860  0.52492  1.0000
  H   H1468     1.0  0.46698  0.30145  0.61381  1.0000
  H   H1469     1.0  0.29858  0.31869  0.64138  1.0000
  H   H1470     1.0  0.38201  0.41701  0.58528  1.0000
  H   H1471     1.0  0.44899  0.38865  0.63716  1.0000
  H   H1472     1.0  0.37250  0.38892  0.64353  1.0000
  H   H1473     1.0  0.36747  0.33002  0.65979  1.0000
  C   C1232     1.0  0.40707  0.32459  0.60734  1.0000
  H   H1474     1.0  0.33643  0.38785  0.65570  1.0000
  H   H1475     1.0  0.40883  0.34959  0.48562  1.0000
  H   H1476     1.0  0.35714  0.24191  0.68590  1.0000
  C   C1233     1.0  0.46332  0.28137  0.65382  1.0000
  C   C1234     1.0  0.30650  0.30746  0.68804  1.0000
  H   H1477     1.0  0.48377  0.30405  0.61124  1.0000
  H   H1478     1.0  0.13054  0.31106  0.72149  1.0000
  C   C1235     1.0  0.36677  0.36377  0.65639  1.0000
  C   C1236     1.0  0.12585  0.27307  0.70973  1.0000
  H   H1479     1.0  0.36720  0.38363  0.66841  1.0000
  C   C1237     1.0  0.34307  0.37744  0.65631  1.0000
  C   C1238     1.0  0.36231  0.38728  0.64387  1.0000
  C   C1239     1.0  0.37126  0.33907  0.65841  1.0000
  H   H1480     1.0  0.34259  0.37386  0.64745  1.0000
  S   S335      1.0  0.48600  0.34044  0.62978  1.0000
  H   H1481     1.0  0.39205  0.32791  0.65845  1.0000
  H   H1482     1.0  0.28666  0.39903  0.70015  1.0000
  H   H1483     1.0  0.15262  0.24649  0.58296  1.0000
  C   C1240     1.0  0.47000  0.30721  0.63588  1.0000
  H   H1484     1.0  0.12588  0.25452  0.70468  1.0000
  C   C1241     1.0  0.38826  0.31549  0.63157  1.0000
  C   C1242     1.0  0.30609  0.30895  0.64035  1.0000
  H   H1485     1.0  0.30118  0.26560  0.67417  1.0000
  H   H1486     1.0  0.33659  0.38009  0.50900  1.0000
  H   H1487     1.0  0.30074  0.30068  0.64644  1.0000
  H   H1488     1.0  0.38952  0.32518  0.63292  1.0000
  C   C1243     1.0  0.34500  0.37133  0.50795  1.0000
  H   H1489     1.0  0.25977  0.41814  0.67943  1.0000
  N   N84       1.0  0.47548  0.29397  0.63168  1.0000
  C   C1244     1.0  0.36137  0.23607  0.63539  1.0000
  N   N85       1.0  0.45956  0.37845  0.65340  1.0000
  H   H1490     1.0  0.32874  0.31390  0.70188  1.0000
  H   H1491     1.0  0.33122  0.29564  0.63048  1.0000
  H   H1492     1.0  0.44901  0.39478  0.66402  1.0000
  C   C1245     1.0  0.44843  0.38440  0.66390  1.0000
  N   N86       1.0  0.38438  0.31725  0.61850  1.0000
  C   C1246     1.0  0.46006  0.27836  0.63296  1.0000
  C   C1247     1.0  0.13552  0.30047  0.72019  1.0000
  H   H1493     1.0  0.32804  0.31969  0.62637  1.0000
  H   H1494     1.0  0.44667  0.36691  0.65065  1.0000
  H   H1495     1.0  0.46735  0.38383  0.63182  1.0000
  H   H1496     1.0  0.44644  0.26523  0.63555  1.0000
  H   H1497     1.0  0.21317  0.35899  0.71475  1.0000
  H   H1498     1.0  0.40319  0.39284  0.50260  1.0000
  C   C1248     1.0  0.46629  0.28457  0.63938  1.0000
  C   C1249     1.0  0.32009  0.31385  0.55502  1.0000
  C   C1250     1.0  0.34151  0.30654  0.56248  1.0000
  C   C1251     1.0  0.31615  0.30198  0.56316  1.0000
  C   C1252     1.0  0.33751  0.29464  0.57048  1.0000
  C   C1253     1.0  0.32481  0.29243  0.57093  1.0000
  H   H1499     1.0  0.31305  0.32084  0.54911  1.0000
  H   H1500     1.0  0.32723  0.28737  0.66692  1.0000
  H   H1501     1.0  0.30619  0.30026  0.56373  1.0000
  H   H1502     1.0  0.34412  0.28725  0.57670  1.0000
  C   C1254     1.0  0.23599  0.25099  0.62436  1.0000
  H   H1503     1.0  0.37443  0.30035  0.62726  1.0000
  H   H1504     1.0  0.47109  0.39863  0.65443  1.0000
  C   C1255     1.0  0.39200  0.41681  0.60575  1.0000
  H   H1505     1.0  0.37222  0.48246  0.63889  1.0000
  C   C1256     1.0  0.25864  0.24789  0.60968  1.0000
  C   C1257     1.0  0.38414  0.38958  0.59887  1.0000
  C   C1258     1.0  0.32859  0.29527  0.64160  1.0000
  C   C1259     1.0  0.38034  0.37721  0.60544  1.0000
  C   C1260     1.0  0.38561  0.36908  0.61656  1.0000
  C   C1261     1.0  0.33935  0.32910  0.53169  1.0000
  C   C1262     1.0  0.35939  0.35476  0.49457  1.0000
  H   H1506     1.0  0.38058  0.41916  0.60800  1.0000
  H   H1507     1.0  0.39525  0.42665  0.60122  1.0000
  H   H1508     1.0  0.39516  0.41281  0.61561  1.0000
  C   C1263     1.0  0.33276  0.31668  0.55469  1.0000
  H   H1509     1.0  0.37975  0.39528  0.59027  1.0000
  H   H1510     1.0  0.37333  0.37389  0.60175  1.0000
  H   H1511     1.0  0.38285  0.35939  0.62145  1.0000
  C   C1264     1.0  0.45454  0.27268  0.66133  1.0000
  H   H1512     1.0  0.25862  0.40328  0.69246  1.0000
  H   H1513     1.0  0.41729  0.40141  0.60272  1.0000
  C   C1265     1.0  0.36217  0.35180  0.65778  1.0000
  H   H1514     1.0  0.35521  0.39751  0.64339  1.0000
  C   C1266     1.0  0.41304  0.40465  0.59346  1.0000
  C   C1267     1.0  0.26564  0.41017  0.68640  1.0000
  H   H1515     1.0  0.41781  0.39661  0.58742  1.0000
  H   H1516     1.0  0.36307  0.38394  0.63445  1.0000
  C   C1268     1.0  0.44862  0.26678  0.65473  1.0000
  C   C1269     1.0  0.40236  0.32804  0.58157  1.0000
  N   N87       1.0  0.35740  0.37736  0.65621  1.0000
  C   C1270     1.0  0.39338  0.41371  0.58360  1.0000
  H   H1517     1.0  0.40481  0.38891  0.61928  1.0000
  C   C1271     1.0  0.15152  0.23806  0.62854  1.0000
  H   H1518     1.0  0.26987  0.39701  0.70996  1.0000
  H   H1519     1.0  0.44145  0.26040  0.66059  1.0000
  C   C1272     1.0  0.31721  0.25866  0.68532  1.0000
  C   C1273     1.0  0.27650  0.40453  0.70515  1.0000
  C   C1274     1.0  0.29315  0.43636  0.66615  1.0000
  H   H1520     1.0  0.42574  0.33136  0.59663  1.0000
  H   H1521     1.0  0.26068  0.42852  0.71006  1.0000
  H   H1522     1.0  0.39863  0.36718  0.62997  1.0000
  H   H1523     1.0  0.25313  0.43311  0.69559  1.0000
  H   H1524     1.0  0.40067  0.34837  0.65602  1.0000
  C   C1275     1.0  0.25808  0.42435  0.70269  1.0000
  H   H1525     1.0  0.45924  0.31136  0.63471  1.0000
  H   H1526     1.0  0.38378  0.32155  0.59162  1.0000
  H   H1527     1.0  0.39719  0.40679  0.57632  1.0000
  C   C1276     1.0  0.47704  0.29674  0.61672  1.0000
  H   H1528     1.0  0.33413  0.24998  0.69484  1.0000
  H   H1529     1.0  0.40775  0.35903  0.50482  1.0000
  S   S336      1.0  0.24932  0.38119  0.71382  1.0000
  H   H1530     1.0  0.45201  0.27073  0.67234  1.0000
  C   C1277     1.0  0.48216  0.36408  0.65934  1.0000
  C   C1278     1.0  0.49036  0.38743  0.65879  1.0000
  H   H1531     1.0  0.27803  0.40781  0.71370  1.0000
  H   H1532     1.0  0.14259  0.24988  0.67108  1.0000
  H   H1533     1.0  0.28533  0.42707  0.70543  1.0000
  C   C1279     1.0  0.29723  0.43697  0.68742  1.0000
  H   H1534     1.0  0.48169  0.28732  0.61268  1.0000
  H   H1535     1.0  0.14529  0.30087  0.71245  1.0000
  H   H1536     1.0  0.11883  0.31383  0.70437  1.0000
  H   H1537     1.0  0.14817  0.24233  0.71055  1.0000
  H   H1538     1.0  0.22875  0.25510  0.63267  1.0000
  C   C1280     1.0  0.13153  0.25973  0.70804  1.0000
  C   C1281     1.0  0.24107  0.23819  0.60674  1.0000
  H   H1539     1.0  0.32152  0.28343  0.57753  1.0000
  C   C1282     1.0  0.10349  0.24783  0.72916  1.0000
  C   C1283     1.0  0.15110  0.25936  0.71617  1.0000
  C   C1284     1.0  0.14565  0.27280  0.71766  1.0000
  H   H1540     1.0  0.26169  0.23636  0.59449  1.0000
  H   H1541     1.0  0.10596  0.29046  0.72465  1.0000
  H   H1542     1.0  0.31331  0.26681  0.69081  1.0000
  H   H1543     1.0  0.30283  0.44007  0.69290  1.0000
  H   H1544     1.0  0.26898  0.24950  0.60660  1.0000
  H   H1545     1.0  0.46758  0.28575  0.65943  1.0000
  C   C1285     1.0  0.25447  0.24043  0.60284  1.0000
  H   H1546     1.0  0.49366  0.27799  0.63190  1.0000
  H   H1547     1.0  0.47000  0.30646  0.64663  1.0000
  H   H1548     1.0  0.10885  0.30450  0.72930  1.0000
  H   H1549     1.0  0.34310  0.37092  0.48803  1.0000
  H   H1550     1.0  0.13579  0.24309  0.58636  1.0000
  H   H1551     1.0  0.47607  0.31492  0.62968  1.0000
  H   H1552     1.0  0.48919  0.28676  0.64552  1.0000
  C   C1286     1.0  0.40079  0.35833  0.48790  1.0000
  C   C1287     1.0  0.14558  0.23997  0.58987  1.0000
  H   H1553     1.0  0.31003  0.24700  0.66159  1.0000
  H   H1554     1.0  0.38215  0.23827  0.70370  1.0000
  C   C1288     1.0  0.36205  0.23774  0.71649  1.0000
  H   H1555     1.0  0.09437  0.25532  0.72711  1.0000
  H   H1556     1.0  0.15155  0.27710  0.72167  1.0000
  H   H1557     1.0  0.13798  0.29487  0.73017  1.0000
  C   C1289     1.0  0.15914  0.23540  0.66183  1.0000
  H   H1558     1.0  0.10285  0.23560  0.71586  1.0000
  H   H1559     1.0  0.49371  0.39646  0.65837  1.0000
  Fe  Fe169     1.0  0.13692  0.26212  0.77513  1.0000
  S   S337      1.0  0.13563  0.27169  0.75351  1.0000
  C   C1290     1.0  0.15849  0.33686  0.83124  1.0000
  Fe  Fe170     1.0  0.10893  0.27837  0.78668  1.0000
  S   S338      1.0  0.10516  0.28918  0.76596  1.0000
  S   S339      1.0  0.09549  0.28286  0.80676  1.0000
  Fe  Fe171     1.0  0.11400  0.26868  0.76021  1.0000
  S   S340      1.0  0.10377  0.26347  0.74622  1.0000
  Fe  Fe172     1.0  0.12699  0.29116  0.76095  1.0000
  S   S341      1.0  0.13432  0.31032  0.74952  1.0000
  S   S342      1.0  0.11587  0.25758  0.78158  1.0000
  S   S343      1.0  0.13014  0.28177  0.78194  1.0000
  Fe  Fe173     1.0  0.15915  0.35254  0.78230  1.0000
  S   S344      1.0  0.16091  0.36292  0.79751  1.0000
  S   S345      1.0  0.14404  0.33910  0.79058  1.0000
  Fe  Fe174     1.0  0.18060  0.36530  0.75983  1.0000
  S   S346      1.0  0.18398  0.37702  0.77316  1.0000
  H   H1560     1.0  0.07331  0.43335  0.87186  1.0000
  Fe  Fe175     1.0  0.18344  0.35767  0.78897  1.0000
  S   S347      1.0  0.19843  0.34920  0.80247  1.0000
  Fe  Fe176     1.0  0.16102  0.38122  0.78052  1.0000
  S   S348      1.0  0.14644  0.40050  0.78521  1.0000
  S   S349      1.0  0.18177  0.34554  0.77523  1.0000
  S   S350      1.0  0.15754  0.37127  0.76575  1.0000
  Fe  Fe177     1.0  0.19271  0.25570  0.85856  1.0000
  S   S351      1.0  0.16969  0.26113  0.86438  1.0000
  Fe  Fe178     1.0  0.19384  0.27711  0.83272  1.0000
  S   S352      1.0  0.17104  0.28436  0.83580  1.0000
  S   S353      1.0  0.20953  0.28536  0.81524  1.0000
  Fe  Fe179     1.0  0.17151  0.28283  0.85743  1.0000
  S   S354      1.0  0.15583  0.29920  0.86701  1.0000
  Fe  Fe180     1.0  0.17060  0.26226  0.84254  1.0000
  H   H1561     1.0  0.22989  0.33274  0.78232  1.0000
  S   S355      1.0  0.19450  0.27749  0.85378  1.0000
  S   S356      1.0  0.19345  0.25507  0.83719  1.0000
  H   H1562     1.0  0.17712  0.39187  0.93656  1.0000
  C   C1291     1.0  0.21076  0.30572  0.77666  1.0000
  Fe  Fe181     1.0  0.14909  0.33181  0.92565  1.0000
  S   S357      1.0  0.13035  0.33045  0.94257  1.0000
  S   S358      1.0  0.16478  0.31448  0.91765  1.0000
  Fe  Fe182     1.0  0.14454  0.36226  0.92238  1.0000
  S   S359      1.0  0.12523  0.36369  0.93875  1.0000
  S   S360      1.0  0.15477  0.37919  0.90955  1.0000
  Fe  Fe183     1.0  0.13695  0.34492  0.95064  1.0000
  Fe  Fe184     1.0  0.12029  0.34921  0.92928  1.0000
  S   S361      1.0  0.09915  0.35244  0.92530  1.0000
  S   S362      1.0  0.15658  0.34455  0.93472  1.0000
  S   S363      1.0  0.13867  0.34960  0.91191  1.0000
  Fe  Fe185     1.0  0.07258  0.35037  0.83302  1.0000
  S   S364      1.0  0.06995  0.33617  0.85335  1.0000
  S   S365      1.0  0.08105  0.34412  0.81280  1.0000
  Fe  Fe186     1.0  0.06109  0.37562  0.84550  1.0000
  S   S366      1.0  0.05738  0.36323  0.86676  1.0000
  S   S367      1.0  0.05360  0.39837  0.84169  1.0000
  Fe  Fe187     1.0  0.07826  0.35044  0.85984  1.0000
  S   S368      1.0  0.09730  0.34392  0.86840  1.0000
  Fe  Fe188     1.0  0.04931  0.35042  0.85799  1.0000
  S   S369      1.0  0.08233  0.36373  0.83900  1.0000
  S   S370      1.0  0.05157  0.36377  0.83722  1.0000
  Fe  Fe189     1.0  0.13212  0.43230  0.84505  1.0000
  S   S371      1.0  0.12043  0.45022  0.83243  1.0000
  S   S372      1.0  0.15096  0.41750  0.83684  1.0000
  Fe  Fe190     1.0  0.11357  0.43862  0.87134  1.0000
  S   S373      1.0  0.10017  0.45700  0.86101  1.0000
  S   S374      1.0  0.11015  0.43183  0.89398  1.0000
  Fe  Fe191     1.0  0.10178  0.44364  0.84684  1.0000
  S   S375      1.0  0.08313  0.44462  0.83936  1.0000
  Fe  Fe192     1.0  0.12001  0.46186  0.84769  1.0000
  S   S376      1.0  0.11355  0.42485  0.85835  1.0000
  S   S377      1.0  0.13320  0.44441  0.85915  1.0000
  C   C1292     1.0  0.06302  0.41039  0.84068  1.0000
  C   C1293     1.0  0.07600  0.40690  0.84384  1.0000
  C   C1294     1.0  0.08251  0.41727  0.84338  1.0000
  C   C1295     1.0  0.07612  0.43100  0.83964  1.0000
  C   C1296     1.0  0.06339  0.43429  0.83619  1.0000
  C   C1297     1.0  0.05688  0.42410  0.83678  1.0000
  H   H1563     1.0  0.08080  0.39632  0.84696  1.0000
  H   H1564     1.0  0.09221  0.41479  0.84626  1.0000
  H   H1565     1.0  0.05840  0.44485  0.83323  1.0000
  H   H1566     1.0  0.04693  0.42692  0.83424  1.0000
  C   C1298     1.0  0.14282  0.39430  0.90552  1.0000
  C   C1299     1.0  0.14442  0.40180  0.89213  1.0000
  C   C1300     1.0  0.13457  0.41355  0.88860  1.0000
  C   C1301     1.0  0.12336  0.41810  0.89856  1.0000
  C   C1302     1.0  0.12205  0.41087  0.91207  1.0000
  C   C1303     1.0  0.13165  0.39883  0.91551  1.0000
  H   H1567     1.0  0.15305  0.39829  0.88439  1.0000
  H   H1568     1.0  0.13555  0.41891  0.87813  1.0000
  H   H1569     1.0  0.11333  0.41432  0.91977  1.0000
  H   H1570     1.0  0.13041  0.39309  0.92589  1.0000
  C   C1304     1.0  0.09826  0.34871  0.91019  1.0000
  C   C1305     1.0  0.11005  0.34265  0.90180  1.0000
  C   C1306     1.0  0.10946  0.34090  0.88921  1.0000
  C   C1307     1.0  0.09710  0.34526  0.88484  1.0000
  C   C1308     1.0  0.08515  0.35096  0.89338  1.0000
  C   C1309     1.0  0.08572  0.35254  0.90610  1.0000
  H   H1571     1.0  0.11961  0.33917  0.90506  1.0000
  H   H1572     1.0  0.11866  0.33612  0.88286  1.0000
  H   H1573     1.0  0.07552  0.35416  0.89019  1.0000
  H   H1574     1.0  0.07647  0.35691  0.91270  1.0000
  C   C1310     1.0  0.08643  0.39500  0.81145  1.0000
  H   H1575     1.0  0.02508  0.35482  0.84072  1.0000
  H   H1576     1.0  0.12238  0.39025  0.78733  1.0000
  C   C1311     1.0  0.16387  0.29703  0.79175  1.0000
  H   H1577     1.0  0.18427  0.32152  0.83453  1.0000
  H   H1578     1.0  0.02163  0.37516  0.87987  1.0000
  C   C1312     1.0  0.16780  0.43636  0.85144  1.0000
  H   H1579     1.0  0.15313  0.39465  0.96282  1.0000
  C   C1313     1.0  0.15802  0.30227  0.88183  1.0000
  C   C1314     1.0  0.14749  0.31111  0.88893  1.0000
  C   C1315     1.0  0.14946  0.31488  0.89996  1.0000
  C   C1316     1.0  0.16192  0.30968  0.90405  1.0000
  C   C1317     1.0  0.17236  0.30062  0.89712  1.0000
  C   C1318     1.0  0.17044  0.29694  0.88599  1.0000
  H   H1580     1.0  0.13778  0.31506  0.88589  1.0000
  H   H1581     1.0  0.14129  0.32164  0.90543  1.0000
  H   H1582     1.0  0.18198  0.29651  0.90031  1.0000
  H   H1583     1.0  0.17860  0.29011  0.88058  1.0000
  C   C1319     1.0  0.14807  0.40524  0.79937  1.0000
  C   C1320     1.0  0.15909  0.39862  0.80565  1.0000
  C   C1321     1.0  0.16004  0.40253  0.81707  1.0000
  C   C1322     1.0  0.14990  0.41294  0.82232  1.0000
  C   C1323     1.0  0.13885  0.41941  0.81611  1.0000
  C   C1324     1.0  0.13802  0.41569  0.80458  1.0000
  H   H1584     1.0  0.16694  0.39059  0.80162  1.0000
  H   H1585     1.0  0.16862  0.39747  0.82184  1.0000
  H   H1586     1.0  0.13094  0.42737  0.82010  1.0000
  H   H1587     1.0  0.12962  0.42101  0.79965  1.0000
  C   C1325     1.0  0.20118  0.33147  0.80653  1.0000
  C   C1326     1.0  0.19138  0.32503  0.80585  1.0000
  C   C1327     1.0  0.19368  0.31082  0.80911  1.0000
  C   C1328     1.0  0.20602  0.30305  0.81251  1.0000
  C   C1329     1.0  0.21586  0.30947  0.81311  1.0000
  C   C1330     1.0  0.21332  0.32369  0.81038  1.0000
  H   H1588     1.0  0.18196  0.33097  0.80293  1.0000
  H   H1589     1.0  0.18613  0.30582  0.80860  1.0000
  H   H1590     1.0  0.22540  0.30344  0.81576  1.0000
  H   H1591     1.0  0.22090  0.32864  0.81096  1.0000
  C   C1331     1.0  0.20777  0.36917  0.73139  1.0000
  H   H1592     1.0  0.17738  0.25201  0.79188  1.0000
  H   H1593     1.0  0.24308  0.32383  0.77035  1.0000
  C   C1332     1.0  0.08455  0.40053  0.88842  1.0000
  H   H1594     1.0  0.11869  0.28431  0.81850  1.0000
  H   H1595     1.0  0.13844  0.30047  0.83934  1.0000
  H   H1596     1.0  0.20535  0.38040  0.74657  1.0000
  H   H1597     1.0  0.15572  0.47747  0.83445  1.0000
  H   H1598     1.0  0.22162  0.35850  0.76301  1.0000
  H   H1599     1.0  0.22821  0.25270  0.85775  1.0000
  H   H1600     1.0  0.12342  0.31616  0.82382  1.0000
  C   C1333     1.0  0.09221  0.29979  0.80848  1.0000
  C   C1334     1.0  0.09433  0.31029  0.79710  1.0000
  C   C1335     1.0  0.09108  0.32380  0.79861  1.0000
  C   C1336     1.0  0.08578  0.32692  0.81150  1.0000
  C   C1337     1.0  0.08410  0.31637  0.82296  1.0000
  C   C1338     1.0  0.08719  0.30286  0.82143  1.0000
  H   H1601     1.0  0.09820  0.30802  0.78708  1.0000
  H   H1602     1.0  0.09254  0.33187  0.78969  1.0000
  H   H1603     1.0  0.08037  0.31861  0.83296  1.0000
  H   H1604     1.0  0.08571  0.29474  0.83028  1.0000
  C   C1339     1.0  0.13684  0.31871  0.76073  1.0000
  C   C1340     1.0  0.12959  0.31685  0.77427  1.0000
  C   C1341     1.0  0.13185  0.32321  0.78330  1.0000
  C   C1342     1.0  0.14141  0.33145  0.77887  1.0000
  C   C1343     1.0  0.14852  0.33357  0.76527  1.0000
  C   C1344     1.0  0.14618  0.32724  0.75619  1.0000
  H   H1605     1.0  0.12210  0.31062  0.77777  1.0000
  H   H1606     1.0  0.12621  0.32169  0.79373  1.0000
  H   H1607     1.0  0.15587  0.34000  0.76177  1.0000
  H   H1608     1.0  0.15176  0.32879  0.74570  1.0000
  C   C1345     1.0  0.15660  0.24947  0.79678  1.0000
  C   C1346     1.0  0.16820  0.25122  0.79979  1.0000
  C   C1347     1.0  0.16769  0.25262  0.81288  1.0000
  C   C1348     1.0  0.15577  0.25168  0.82305  1.0000
  C   C1349     1.0  0.14469  0.24860  0.80696  1.0000
  H   H1609     1.0  0.03028  0.38434  0.85741  1.0000
  C   C1350     1.0  0.00448  0.35366  0.84166  1.0000
  H   H1610     1.0  0.17648  0.25449  0.81504  1.0000
  C   C1351     1.0  0.23964  0.25864  0.82352  1.0000
  S   S378      1.0  0.19204  0.36401  0.73825  1.0000
  H   H1611     1.0  0.00460  0.40806  0.85901  1.0000
  H   H1612     1.0  0.15820  0.45973  0.81601  1.0000
  H   H1613     1.0  0.19646  0.30014  0.76905  1.0000
  C   C1352     1.0  0.23440  0.33985  0.74805  1.0000
  H   H1614     1.0  0.11011  0.40383  0.88786  1.0000
  N   N88       1.0  0.09468  0.39191  0.89646  1.0000
  H   H1615     1.0  0.00381  0.38377  0.84149  1.0000
  C   C1353     1.0  0.12215  0.23960  0.74084  1.0000
  C   C1354     1.0  0.25082  0.24757  0.82247  1.0000
  S   S379      1.0  0.15458  0.25348  0.83949  1.0000
  C   C1355     1.0  0.00681  0.40011  0.86813  1.0000
  C   C1356     1.0  0.16150  0.45822  0.85775  1.0000
  C   C1357     1.0  0.06507  0.40275  0.87850  1.0000
  C   C1358     1.0  0.23470  0.25134  0.84790  1.0000
  H   H1616     1.0  0.17427  0.35518  0.94512  1.0000
  H   H1617     1.0  0.27857  0.23704  0.81498  1.0000
  C   C1359     1.0  0.16579  0.45074  0.84728  1.0000
  C   C1360     1.0  0.09854  0.36802  0.78402  1.0000
  H   H1618     1.0  0.18358  0.45682  0.81429  1.0000
  C   C1361     1.0  0.07867  0.23691  0.75635  1.0000
  H   H1619     1.0  0.13070  0.36886  0.78424  1.0000
  C   C1362     1.0  0.14691  0.33357  0.85497  1.0000
  C   C1363     1.0  0.15933  0.45165  0.87147  1.0000
  H   H1620     1.0  0.21098  0.29702  0.78514  1.0000
  C   C1364     1.0  0.12196  0.36929  0.77989  1.0000
  H   H1621     1.0  0.11371  0.40979  0.79762  1.0000
  H   H1622     1.0  0.02000  0.39184  0.84524  1.0000
  N   N89       1.0  0.22610  0.33731  0.76218  1.0000
  C   C1365     1.0  0.21632  0.35013  0.76470  1.0000
  C   C1366     1.0  0.23559  0.33359  0.77151  1.0000
  H   H1623     1.0  0.14644  0.33191  0.86567  1.0000
  C   C1367     1.0  0.21832  0.32682  0.76408  1.0000
  C   C1368     1.0  0.21849  0.31525  0.77503  1.0000
  C   C1369     1.0  0.20976  0.32829  0.75511  1.0000
  H   H1624     1.0  0.21014  0.34876  0.77529  1.0000
  H   H1625     1.0  0.22795  0.34437  0.74041  1.0000
  H   H1626     1.0  0.00384  0.37853  0.88769  1.0000
  H   H1627     1.0  0.13520  0.24850  0.82802  1.0000
  C   C1370     1.0  0.18151  0.45148  0.82516  1.0000
  S   S380      1.0  0.15669  0.24901  0.78019  1.0000
  H   H1628     1.0  0.14637  0.33794  0.81724  1.0000
  H   H1629     1.0  0.12787  0.47555  0.86819  1.0000
  H   H1630     1.0  0.22434  0.31338  0.78261  1.0000
  C   C1371     1.0  0.20200  0.31876  0.75691  1.0000
  H   H1631     1.0  0.17374  0.47485  0.83410  1.0000
  H   H1632     1.0  0.12697  0.36933  0.97181  1.0000
  H   H1633     1.0  0.00509  0.35799  0.83095  1.0000
  C   C1372     1.0  0.16136  0.43754  0.87519  1.0000
  C   C1373     1.0  0.15721  0.45493  0.82700  1.0000
  C   C1374     1.0  0.23165  0.26054  0.83621  1.0000
  C   C1375     1.0  0.01587  0.35184  0.84721  1.0000
  C   C1376     1.0  0.25431  0.23803  0.83419  1.0000
  H   H1634     1.0  0.11195  0.39243  0.90370  1.0000
  H   H1635     1.0  0.01631  0.40128  0.87019  1.0000
  H   H1636     1.0  0.25663  0.24648  0.81239  1.0000
  N   N90       1.0  0.16766  0.45734  0.83265  1.0000
  H   H1637     1.0  0.22297  0.26910  0.83698  1.0000
  C   C1377     1.0  0.21198  0.37700  0.73762  1.0000
  H   H1638     1.0  0.11411  0.34743  0.79750  1.0000
  C   C1378     1.0  0.13394  0.29214  0.83908  1.0000
  C   C1379     1.0  0.00310  0.34239  0.86921  1.0000
  H   H1639     1.0  0.15043  0.36429  0.95441  1.0000
  C   C1380     1.0  0.15667  0.28693  0.79431  1.0000
  H   H1640     1.0  0.09457  0.38069  0.91708  1.0000
  C   C1381     1.0  0.17559  0.36556  0.93948  1.0000
  S   S381      1.0  0.13900  0.34029  0.97269  1.0000
  H   H1641     1.0  0.10910  0.38435  0.87962  1.0000
  H   H1642     1.0  0.16685  0.41896  0.86811  1.0000
  C   C1382     1.0  0.09451  0.40442  0.80862  1.0000
  S   S382      1.0  0.02952  0.34315  0.86844  1.0000
  H   H1643     1.0  0.12094  0.37845  0.77152  1.0000
  H   H1644     1.0  0.09070  0.41332  0.81309  1.0000
  C   C1383     1.0  0.16564  0.42991  0.86519  1.0000
  C   C1384     1.0  0.16028  0.30587  0.80055  1.0000
  C   C1385     1.0  0.10743  0.40242  0.79994  1.0000
  H   H1645     1.0  0.16763  0.32522  0.86973  1.0000
  H   H1646     1.0  0.00734  0.34271  0.80239  1.0000
  S   S383      1.0  0.20520  0.23901  0.87198  1.0000
  H   H1647     1.0  0.09867  0.40751  0.90358  1.0000
  C   C1386     1.0  0.02823  0.33618  0.80480  1.0000
  H   H1648     1.0  0.09705  0.37397  0.88887  1.0000
  H   H1649     1.0  0.05688  0.42276  0.86780  1.0000
  H   H1650     1.0  0.07496  0.38409  0.88953  1.0000
  H   H1651     1.0  0.12755  0.24065  0.74778  1.0000
  H   H1652     1.0  0.15793  0.44393  0.82803  1.0000
  N   N91       1.0  0.16573  0.37623  0.94636  1.0000
  H   H1653     1.0  0.18963  0.45218  0.82977  1.0000
  C   C1387     1.0  0.06438  0.41664  0.87368  1.0000
  C   C1388     1.0  0.01123  0.37610  0.87829  1.0000
  H   H1654     1.0  0.15942  0.46918  0.85568  1.0000
  H   H1655     1.0  0.20866  0.33707  0.74685  1.0000
  C   C1389     1.0  0.10422  0.39929  0.89792  1.0000
  H   H1656     1.0  0.11067  0.37364  0.89605  1.0000
  C   C1390     1.0  0.07367  0.42259  0.87598  1.0000
  C   C1391     1.0  0.09119  0.38360  0.80559  1.0000
  H   H1657     1.0  0.18638  0.36615  0.93825  1.0000
  C   C1392     1.0  0.11149  0.35694  0.80137  1.0000
  H   H1658     1.0  0.15576  0.45759  0.87928  1.0000
  H   H1659     1.0  0.15878  0.39810  0.94038  1.0000
  C   C1393     1.0  0.12256  0.28324  0.82771  1.0000
  H   H1660     1.0  0.12524  0.29142  0.84810  1.0000
  H   H1661     1.0  0.11350  0.28321  0.83640  1.0000
  C   C1394     1.0  0.14932  0.30479  0.81182  1.0000
  H   H1662     1.0  0.14182  0.28249  0.84062  1.0000
  H   H1663     1.0  0.11568  0.30912  0.81490  1.0000
  H   H1664     1.0  0.23701  0.26578  0.81446  1.0000
  C   C1395     1.0  0.07495  0.39479  0.88582  1.0000
  C   C1396     1.0  0.16788  0.37565  0.95989  1.0000
  C   C1397     1.0  0.14570  0.28574  0.80557  1.0000
  H   H1665     1.0  0.01069  0.36586  0.87765  1.0000
  H   H1666     1.0  0.07634  0.39658  0.81816  1.0000
  H   H1667     1.0  0.17051  0.35617  0.84132  1.0000
  H   H1668     1.0  0.14949  0.37515  0.93805  1.0000
  C   C1398     1.0  0.15910  0.33524  0.84495  1.0000
  H   H1669     1.0  0.12956  0.27308  0.82965  1.0000
  H   H1670     1.0  0.17216  0.29808  0.78286  1.0000
  H   H1671     1.0  0.15946  0.28004  0.78745  1.0000
  N   N92       1.0  0.12955  0.29429  0.82622  1.0000
  H   H1672     1.0  0.11008  0.30736  0.83299  1.0000
  C   C1399     1.0  0.16051  0.38616  0.96700  1.0000
  H   H1673     1.0  0.16575  0.31388  0.79839  1.0000
  C   C1400     1.0  0.16713  0.38959  0.93715  1.0000
  H   H1674     1.0  0.08129  0.37920  0.91038  1.0000
  H   H1675     1.0  0.16741  0.33785  0.82308  1.0000
  N   N93       1.0  0.12393  0.37945  0.84150  1.0000
  C   C1401     1.0  0.11348  0.37153  0.84339  1.0000
  C   C1402     1.0  0.11683  0.39402  0.83965  1.0000
  C   C1403     1.0  0.13432  0.37728  0.82888  1.0000
  C   C1404     1.0  0.13083  0.37564  0.85300  1.0000
  C   C1405     1.0  0.13992  0.38331  0.85341  1.0000
  C   C1406     1.0  0.12886  0.36438  0.86401  1.0000
  C   C1407     1.0  0.14616  0.38032  0.86437  1.0000
  C   C1408     1.0  0.13535  0.36133  0.87484  1.0000
  C   C1409     1.0  0.14383  0.36938  0.87511  1.0000
  H   H1676     1.0  0.10537  0.37264  0.85282  1.0000
  H   H1677     1.0  0.10819  0.37493  0.83477  1.0000
  H   H1678     1.0  0.11811  0.36053  0.84396  1.0000
  H   H1679     1.0  0.10993  0.39628  0.84937  1.0000
  H   H1680     1.0  0.11055  0.39704  0.83184  1.0000
  H   H1681     1.0  0.12406  0.40095  0.83613  1.0000
  H   H1682     1.0  0.13988  0.36644  0.82980  1.0000
  H   H1683     1.0  0.12962  0.38025  0.81988  1.0000
  H   H1684     1.0  0.14216  0.38342  0.82645  1.0000
  H   H1685     1.0  0.14222  0.39180  0.84527  1.0000
  H   H1686     1.0  0.12229  0.35781  0.86456  1.0000
  H   H1687     1.0  0.15279  0.38659  0.86453  1.0000
  H   H1688     1.0  0.13371  0.35271  0.88316  1.0000
  H   H1689     1.0  0.14865  0.36715  0.88364  1.0000
  N   N94       1.0  0.04116  0.31597  0.83663  1.0000
  C   C1410     1.0  0.04903  0.32530  0.83763  1.0000
  C   C1411     1.0  0.03406  0.31046  0.85067  1.0000
  C   C1412     1.0  0.05094  0.30442  0.83112  1.0000
  C   C1413     1.0  0.03170  0.32327  0.82743  1.0000
  C   C1414     1.0  0.01724  0.32454  0.83162  1.0000
  C   C1415     1.0  0.03693  0.32927  0.81371  1.0000
  H   H1690     1.0  0.16654  0.38986  0.92662  1.0000
  S   S384      1.0  0.12530  0.48267  0.83976  1.0000
  C   C1416     1.0  0.14440  0.24936  0.82015  1.0000
  H   H1691     1.0  0.05546  0.32930  0.82770  1.0000
  H   H1692     1.0  0.04207  0.33418  0.84161  1.0000
  H   H1693     1.0  0.05607  0.32014  0.84466  1.0000
  H   H1694     1.0  0.04142  0.30517  0.85737  1.0000
  H   H1695     1.0  0.02830  0.30293  0.85082  1.0000
  H   H1696     1.0  0.02682  0.31873  0.85556  1.0000
  H   H1697     1.0  0.04541  0.29746  0.82961  1.0000
  H   H1698     1.0  0.05771  0.30781  0.82115  1.0000
  H   H1699     1.0  0.05792  0.29832  0.83800  1.0000
  H   H1700     1.0  0.01219  0.32060  0.84189  1.0000
  H   H1701     1.0  0.04781  0.32868  0.80977  1.0000
  C   C1417     1.0  0.08734  0.38640  0.91034  1.0000
  H   H1702     1.0  0.14369  0.38224  0.95284  1.0000
  C   C1418     1.0  0.08358  0.41474  0.88331  1.0000
  H   H1703     1.0  0.02256  0.37375  0.85255  1.0000
  H   H1704     1.0  0.05801  0.39813  0.87639  1.0000
  C   C1419     1.0  0.01528  0.34611  0.86102  1.0000
  H   H1705     1.0  0.28058  0.23834  0.83097  1.0000
  C   C1420     1.0  0.10420  0.38138  0.79650  1.0000
  C   C1421     1.0  0.15172  0.37444  0.94799  1.0000
  N   N95       1.0  0.17217  0.33459  0.84838  1.0000
  H   H1706     1.0  0.00252  0.33792  0.87990  1.0000
  H   H1707     1.0  0.08458  0.37651  0.80827  1.0000
  H   H1708     1.0  0.18057  0.33455  0.86507  1.0000
  H   H1709     1.0  0.10225  0.35931  0.77880  1.0000
  H   H1710     1.0  0.12011  0.35684  0.80572  1.0000
  C   C1422     1.0  0.20254  0.30747  0.76764  1.0000
  H   H1711     1.0  0.08900  0.36606  0.79149  1.0000
  N   N96       1.0  0.10903  0.36919  0.79048  1.0000
  H   H1712     1.0  0.10237  0.35631  0.80988  1.0000
  H   H1713     1.0  0.24084  0.34726  0.74647  1.0000
  C   C1423     1.0  0.02078  0.38396  0.85474  1.0000
  H   H1714     1.0  0.14682  0.31202  0.81820  1.0000
  C   C1424     1.0  0.11927  0.30731  0.82443  1.0000
  C   C1425     1.0  0.16627  0.47227  0.82996  1.0000
  C   C1426     1.0  0.10321  0.38050  0.88994  1.0000
  H   H1715     1.0  0.12508  0.36023  0.77522  1.0000
  N   N97       1.0  0.00846  0.38636  0.86586  1.0000
  H   H1716     1.0  0.19205  0.32085  0.84791  1.0000
  C   C1427     1.0  0.13503  0.33328  0.85144  1.0000
  H   H1717     1.0  0.09033  0.42009  0.88483  1.0000
  C   C1428     1.0  0.13478  0.33496  0.83789  1.0000
  C   C1429     1.0  0.11040  0.24938  0.73821  1.0000
  H   H1718     1.0  0.14060  0.27769  0.80689  1.0000
  H   H1719     1.0  0.35608  0.23649  0.76899  1.0000
  C   C1430     1.0  0.11229  0.39108  0.79398  1.0000
  H   H1720     1.0  0.16304  0.34358  0.86594  1.0000
  C   C1431     1.0  0.14647  0.33682  0.82779  1.0000
  H   H1721     1.0  0.18125  0.34634  0.82911  1.0000
  C   C1432     1.0  0.00865  0.33141  0.82260  1.0000
  H   H1722     1.0  0.12605  0.33138  0.85935  1.0000
  C   C1433     1.0  0.18205  0.32193  0.84541  1.0000
  H   H1723     1.0  0.19534  0.32031  0.75006  1.0000
  H   H1724     1.0  0.17052  0.43001  0.84412  1.0000
  H   H1725     1.0  0.22791  0.38674  0.73696  1.0000
  C   C1434     1.0  0.17071  0.33454  0.86289  1.0000
  C   C1435     1.0  0.17804  0.34644  0.84011  1.0000
  H   H1726     1.0  0.20893  0.35370  0.75798  1.0000
  H   H1727     1.0  0.18749  0.34659  0.84299  1.0000
  H   H1728     1.0  0.17795  0.31279  0.85139  1.0000
  H   H1729     1.0  0.08017  0.39468  0.91520  1.0000
  H   H1730     1.0  0.17401  0.36656  0.92913  1.0000
  H   H1731     1.0  0.24159  0.34148  0.76951  1.0000
  H   H1732     1.0  0.12553  0.33466  0.83527  1.0000
  H   H1733     1.0  0.03246  0.34074  0.79440  1.0000
  H   H1734     1.0  0.09573  0.37744  0.77638  1.0000
  C   C1436     1.0  0.14155  0.29478  0.81460  1.0000
  H   H1735     1.0  0.18231  0.35576  0.96238  1.0000
  C   C1437     1.0  0.17662  0.36445  0.96672  1.0000
  H   H1736     1.0  0.14667  0.45925  0.83232  1.0000
  H   H1737     1.0  0.24130  0.33027  0.74541  1.0000
  C   C1438     1.0  0.13240  0.36535  0.97996  1.0000
  C   C1439     1.0  0.01411  0.33726  0.80925  1.0000
  H   H1738     1.0  0.15933  0.43252  0.88583  1.0000
  H   H1739     1.0  0.18278  0.44061  0.82510  1.0000
  H   H1740     1.0  0.11599  0.28737  0.73680  1.0000
  H   H1741     1.0  0.16803  0.47691  0.81889  1.0000
  C   C1440     1.0  0.99502  0.38425  0.84991  1.0000
  C   C1441     1.0  0.17799  0.36402  0.97973  1.0000
  C   C1442     1.0  0.24580  0.24018  0.84699  1.0000
  H   H1742     1.0  0.09198  0.23951  0.76738  1.0000
  H   H1743     1.0  0.17016  0.23501  0.85782  1.0000
  C   C1443     1.0  0.99569  0.38544  0.86286  1.0000
  H   H1744     1.0  0.07219  0.24698  0.75658  1.0000
  H   H1745     1.0  0.99761  0.33249  0.82610  1.0000
  H   H1746     1.0  0.99826  0.40237  0.87689  1.0000
  C   C1444     1.0  0.22476  0.38060  0.73215  1.0000
  H   H1747     1.0  0.13571  0.24725  0.80467  1.0000
  C   C1445     1.0  0.16204  0.38566  0.97994  1.0000
  C   C1446     1.0  0.19643  0.60974  0.10820  1.0000
  Fe  Fe193     1.0  0.13414  0.63406  0.05953  1.0000
  S   S385      1.0  0.15304  0.62610  0.06779  1.0000
  S   S386      1.0  0.11548  0.62708  0.07348  1.0000
  Fe  Fe194     1.0  0.14953  0.64736  0.03209  1.0000
  S   S387      1.0  0.16978  0.64078  0.03863  1.0000
  S   S388      1.0  0.14570  0.65852  0.01100  1.0000
  Fe  Fe195     1.0  0.16351  0.62083  0.04778  1.0000
  S   S389      1.0  0.17861  0.60105  0.04569  1.0000
  Fe  Fe196     1.0  0.15764  0.64675  0.05846  1.0000
  S   S390      1.0  0.16381  0.65209  0.07522  1.0000
  S   S391      1.0  0.14424  0.62698  0.04010  1.0000
  S   S392      1.0  0.13779  0.65513  0.05130  1.0000
  Fe  Fe197     1.0  0.16853  0.55535  0.11710  1.0000
  S   S393      1.0  0.17059  0.54171  0.13757  1.0000
  S   S394      1.0  0.18650  0.55684  0.09936  1.0000
  Fe  Fe198     1.0  0.13843  0.56620  0.12611  1.0000
  S   S395      1.0  0.13783  0.55361  0.14714  1.0000
  S   S396      1.0  0.11990  0.58058  0.11943  1.0000
  Fe  Fe199     1.0  0.15713  0.56000  0.14563  1.0000
  S   S397      1.0  0.15713  0.56802  0.16358  1.0000
  Fe  Fe200     1.0  0.15114  0.53642  0.13720  1.0000
  S   S398      1.0  0.14410  0.51635  0.14622  1.0000
  S   S399      1.0  0.15667  0.57390  0.12522  1.0000
  S   S400      1.0  0.15017  0.54875  0.11612  1.0000
  Fe  Fe201     1.0  0.04107  0.64946  0.15097  1.0000
  S   S401      1.0  0.05228  0.64470  0.16785  1.0000
  S   S402      1.0  0.02069  0.64293  0.15567  1.0000
  Fe  Fe202     1.0  0.06501  0.65939  0.13004  1.0000
  S   S403      1.0  0.07797  0.65565  0.14502  1.0000
  S   S404      1.0  0.07331  0.66812  0.10803  1.0000
  Fe  Fe203     1.0  0.07095  0.63613  0.15337  1.0000
  S   S405      1.0  0.08687  0.61828  0.16093  1.0000
  Fe  Fe204     1.0  0.05859  0.66460  0.15841  1.0000
  S   S406      1.0  0.05848  0.67713  0.17296  1.0000
  S   S407      1.0  0.05946  0.63901  0.13726  1.0000
  S   S408      1.0  0.04585  0.67024  0.14264  1.0000
  S   S409      1.0  0.15675  0.61188  0.22134  1.0000
  C   C1447     1.0  0.16422  0.69965  0.10067  1.0000
  H   H1748     1.0  0.14407  0.71428  0.07794  1.0000
  H   H1749     1.0  0.36270  0.70952  0.19832  1.0000
  H   H1750     1.0  0.10612  0.70671  0.13468  1.0000
  H   H1751     1.0  0.08890  0.66404  0.19171  1.0000
  Fe  Fe205     1.0  0.19492  0.63335  0.19011  1.0000
  S   S410      1.0  0.18002  0.62380  0.18637  1.0000
  S   S411      1.0  0.19416  0.65546  0.18090  1.0000
  Fe  Fe206     1.0  0.20778  0.60769  0.20810  1.0000
  S   S412      1.0  0.23625  0.72858  0.08742  1.0000
  Fe  Fe207     1.0  0.19783  0.60622  0.18358  1.0000
  S   S413      1.0  0.20231  0.59685  0.16533  1.0000
  H   H1752     1.0  0.36486  0.73385  0.12279  1.0000
  H   H1753     1.0  0.14818  0.71628  0.14485  1.0000
  S   S414      1.0  0.21309  0.61650  0.18574  1.0000
  S   S415      1.0  0.19060  0.62545  0.21269  1.0000
  S   S416      1.0  0.22560  0.69565  0.08751  1.0000
  S   S417      1.0  0.19582  0.69787  0.06859  1.0000
  Fe  Fe208     1.0  0.21743  0.68712  0.10943  1.0000
  S   S418      1.0  0.22717  0.66665  0.12011  1.0000
  S   S419      1.0  0.19604  0.69025  0.10721  1.0000
  S   S420      1.0  0.10212  0.70262  0.21152  1.0000
  S   S421      1.0  0.10983  0.69975  0.17088  1.0000
  N   N98       1.0  0.15258  0.70966  0.09566  1.0000
  C   C1448     1.0  0.40431  0.70522  0.19322  1.0000
  S   S422      1.0  0.13129  0.68589  0.19567  1.0000
  H   H1754     1.0  0.24927  0.59620  0.22875  1.0000
  C   C1449     1.0  0.20338  0.65840  0.16400  1.0000
  C   C1450     1.0  0.21334  0.64800  0.15866  1.0000
  C   C1451     1.0  0.22071  0.65057  0.14517  1.0000
  C   C1452     1.0  0.21789  0.66348  0.13690  1.0000
  C   C1453     1.0  0.20773  0.67383  0.14213  1.0000
  C   C1454     1.0  0.20070  0.67135  0.15574  1.0000
  H   H1755     1.0  0.21560  0.63804  0.16491  1.0000
  H   H1756     1.0  0.22856  0.64254  0.14115  1.0000
  H   H1757     1.0  0.20546  0.68382  0.13582  1.0000
  H   H1758     1.0  0.19317  0.67948  0.15985  1.0000
  H   H1759     1.0  0.14654  0.71413  0.12152  1.0000
  C   C1455     1.0  0.00193  0.64515  0.10363  1.0000
  C   C1456     1.0  0.16588  0.70574  0.16996  1.0000
  H   H1760     1.0  0.18932  0.55719  0.18044  1.0000
  H   H1761     1.0  0.15793  0.63967  0.20758  1.0000
  H   H1762     1.0  0.14234  0.66155  0.21176  1.0000
  C   C1457     1.0  0.07292  0.68324  0.17224  1.0000
  C   C1458     1.0  0.08455  0.68208  0.16161  1.0000
  C   C1459     1.0  0.09584  0.68709  0.16138  1.0000
  C   C1460     1.0  0.09566  0.69313  0.17184  1.0000
  C   C1461     1.0  0.08417  0.69402  0.18261  1.0000
  C   C1462     1.0  0.07279  0.68922  0.18273  1.0000
  H   H1763     1.0  0.08474  0.67759  0.15344  1.0000
  H   H1764     1.0  0.10472  0.68628  0.15305  1.0000
  H   H1765     1.0  0.08389  0.69872  0.19069  1.0000
  H   H1766     1.0  0.06382  0.69017  0.19098  1.0000
  C   C1463     1.0  0.14826  0.50208  0.13867  1.0000
  H   H1767     1.0  0.22948  0.66749  0.16353  1.0000
  H   H1768     1.0  0.23858  0.54568  0.19267  1.0000
  C   C1464     1.0  0.20766  0.56134  0.18259  1.0000
  C   C1465     1.0  0.17768  0.65543  0.14895  1.0000
  C   C1466     1.0  0.15896  0.50054  0.12727  1.0000
  C   C1467     1.0  0.11546  0.70712  0.12685  1.0000
  H   H1769     1.0  0.17287  0.61053  0.13839  1.0000
  C   C1468     1.0  0.37209  0.72562  0.19766  1.0000
  H   H1770     1.0  0.16472  0.50840  0.12257  1.0000
  C   C1469     1.0  0.09620  0.60818  0.14910  1.0000
  C   C1470     1.0  0.10780  0.59821  0.15190  1.0000
  C   C1471     1.0  0.11519  0.58977  0.14276  1.0000
  C   C1472     1.0  0.11093  0.59122  0.13084  1.0000
  C   C1473     1.0  0.09950  0.60136  0.12790  1.0000
  C   C1474     1.0  0.09216  0.60986  0.13700  1.0000
  H   H1771     1.0  0.11099  0.59689  0.16123  1.0000
  H   H1772     1.0  0.12409  0.58209  0.14503  1.0000
  H   H1773     1.0  0.09623  0.60253  0.11865  1.0000
  H   H1774     1.0  0.08328  0.61755  0.13474  1.0000
  C   C1475     1.0  0.16943  0.57675  0.16329  1.0000
  C   C1476     1.0  0.18107  0.57746  0.15270  1.0000
  C   C1477     1.0  0.19100  0.58392  0.15324  1.0000
  C   C1478     1.0  0.18928  0.58975  0.16432  1.0000
  C   C1479     1.0  0.17743  0.58943  0.17467  1.0000
  C   C1480     1.0  0.16758  0.58289  0.17417  1.0000
  H   H1775     1.0  0.18257  0.57273  0.14428  1.0000
  H   H1776     1.0  0.20017  0.58413  0.14522  1.0000
  H   H1777     1.0  0.17605  0.59383  0.18329  1.0000
  H   H1778     1.0  0.15861  0.58232  0.18242  1.0000
  C   C1481     1.0  0.14770  0.65031  0.99759  1.0000
  C   C1482     1.0  0.41993  0.70343  0.21156  1.0000
  H   H1779     1.0  0.24448  0.56997  0.16865  1.0000
  S   S423      1.0  0.12417  0.71917  0.18955  1.0000
  H   H1780     1.0  0.07498  0.58822  0.14679  1.0000
  C   C1483     1.0  0.15670  0.63769  0.99678  1.0000
  H   H1781     1.0  0.15718  0.72579  0.10168  1.0000
  C   C1484     1.0  0.37648  0.71125  0.22338  1.0000
  C   C1485     1.0  0.19464  0.55838  0.18743  1.0000
  H   H1782     1.0  0.16242  0.63264  0.00460  1.0000
  C   C1486     1.0  0.10407  0.63863  0.08306  1.0000
  C   C1487     1.0  0.09623  0.63365  0.09576  1.0000
  C   C1488     1.0  0.08725  0.64263  0.10376  1.0000
  C   C1489     1.0  0.08556  0.65667  0.09881  1.0000
  C   C1490     1.0  0.09337  0.66166  0.08607  1.0000
  C   C1491     1.0  0.10278  0.65265  0.07829  1.0000
  H   H1783     1.0  0.09725  0.62280  0.09949  1.0000
  H   H1784     1.0  0.08143  0.63866  0.11362  1.0000
  H   H1785     1.0  0.09211  0.67251  0.08218  1.0000
  H   H1786     1.0  0.10873  0.65657  0.06845  1.0000
  C   C1492     1.0  0.17985  0.58846  0.06061  1.0000
  C   C1493     1.0  0.16944  0.58866  0.07247  1.0000
  C   C1494     1.0  0.17111  0.57870  0.08438  1.0000
  C   C1495     1.0  0.18327  0.56864  0.08444  1.0000
  C   C1496     1.0  0.19349  0.56833  0.07250  1.0000
  C   C1497     1.0  0.19173  0.57812  0.06061  1.0000
  H   H1787     1.0  0.16006  0.59638  0.07243  1.0000
  H   H1788     1.0  0.16310  0.57890  0.09354  1.0000
  H   H1789     1.0  0.20287  0.56056  0.07247  1.0000
  H   H1790     1.0  0.19977  0.57784  0.05147  1.0000
  C   C1498     1.0  0.17299  0.66469  0.07293  1.0000
  C   C1499     1.0  0.17765  0.66545  0.08397  1.0000
  C   C1500     1.0  0.18500  0.67530  0.08266  1.0000
  C   C1501     1.0  0.18744  0.68473  0.07039  1.0000
  C   C1502     1.0  0.18270  0.68401  0.05938  1.0000
  C   C1503     1.0  0.17558  0.67397  0.06060  1.0000
  H   H1791     1.0  0.17566  0.65832  0.09355  1.0000
  H   H1792     1.0  0.18874  0.67560  0.09115  1.0000
  H   H1793     1.0  0.18457  0.69124  0.04984  1.0000
  H   H1794     1.0  0.17203  0.67350  0.05204  1.0000
  C   C1504     1.0  0.00695  0.64847  0.14711  1.0000
  C   C1505     1.0  0.00528  0.66069  0.13748  1.0000
  C   C1506     1.0  0.15687  0.71323  0.14957  1.0000
  H   H1795     1.0  0.20738  0.63292  0.11734  1.0000
  H   H1796     1.0  0.34391  0.73034  0.11887  1.0000
  C   C1507     1.0  0.36981  0.70625  0.21658  1.0000
  H   H1797     1.0  0.01229  0.66727  0.13534  1.0000
  H   H1798     1.0  0.42931  0.66875  0.21600  1.0000
  H   H1799     1.0  0.10794  0.70170  0.11246  1.0000
  Fe  Fe209     1.0  0.20362  0.70040  0.08572  1.0000
  H   H1800     1.0  0.17109  0.63214  0.12108  1.0000
  H   H1801     1.0  0.18435  0.62803  0.07091  1.0000
  C   C1508     1.0  0.17053  0.66826  0.20660  1.0000
  Fe  Fe210     1.0  0.19297  0.71055  0.11190  1.0000
  S   S424      1.0  0.17213  0.71845  0.12392  1.0000
  S   S425      1.0  0.19417  0.59563  0.20559  1.0000
  H   H1802     1.0  0.39198  0.67997  0.22955  1.0000
  S   S426      1.0  0.22544  0.59811  0.21883  1.0000
  H   H1803     1.0  0.16272  0.68909  0.10297  1.0000
  H   H1804     1.0  0.16870  0.62138  0.09203  1.0000
  C   C1509     1.0  0.12840  0.61783  0.17405  1.0000
  H   H1805     1.0  0.13257  0.58513  0.07564  1.0000
  C   C1510     1.0  0.19112  0.61769  0.07224  1.0000
  H   H1806     1.0  0.13599  0.66440  0.16112  1.0000
  H   H1807     1.0  0.14667  0.60996  0.00249  1.0000
  C   C1511     1.0  0.15240  0.70691  0.08255  1.0000
  C   C1512     1.0  0.13977  0.70873  0.10619  1.0000
  C   C1513     1.0  0.41148  0.71523  0.19122  1.0000
  H   H1808     1.0  0.42486  0.72217  0.19871  1.0000
  H   H1809     1.0  0.14742  0.60901  0.18060  1.0000
  H   H1810     1.0  0.18774  0.70306  0.16677  1.0000
  Fe  Fe211     1.0  0.12038  0.68666  0.21706  1.0000
  H   H1811     1.0  0.34253  0.71623  0.15371  1.0000
  C   C1514     1.0  0.33850  0.73152  0.16523  1.0000
  C   C1515     1.0  0.15482  0.70921  0.16370  1.0000
  C   C1516     1.0  0.09359  0.56765  0.16941  1.0000
  H   H1812     1.0  0.14637  0.72574  0.19657  1.0000
  C   C1517     1.0  0.99725  0.64042  0.15033  1.0000
  H   H1813     1.0  0.18899  0.62206  0.14739  1.0000
  H   H1814     1.0  0.17801  0.68876  0.21130  1.0000
  H   H1815     1.0  0.08907  0.62703  0.20367  1.0000
  C   C1518     1.0  0.17009  0.71322  0.14155  1.0000
  N   N99       1.0  0.18954  0.61051  0.08677  1.0000
  H   H1816     1.0  0.15124  0.69637  0.08379  1.0000
  H   H1817     1.0  0.15168  0.67735  0.14094  1.0000
  H   H1818     1.0  0.23257  0.71303  0.13437  1.0000
  H   H1819     1.0  0.15953  0.67344  0.20853  1.0000
  H   H1820     1.0  0.17183  0.67308  0.16613  1.0000
  C   C1519     1.0  0.15383  0.58329  0.04463  1.0000
  C   C1520     1.0  0.38099  0.72343  0.21727  1.0000
  C   C1521     1.0  0.99443  0.66445  0.13069  1.0000
  H   H1821     1.0  0.07951  0.64377  0.20581  1.0000
  C   C1522     1.0  0.16134  0.67128  0.17074  1.0000
  C   C1523     1.0  0.15409  0.58445  0.01557  1.0000
  C   C1524     1.0  0.15865  0.63185  0.98558  1.0000
  H   H1822     1.0  0.16586  0.62223  0.98491  1.0000
  C   C1525     1.0  0.31090  0.73489  0.16528  1.0000
  C   C1526     1.0  0.18818  0.55747  0.20109  1.0000
  H   H1823     1.0  0.16527  0.62169  0.16040  1.0000
  S   S427      1.0  0.16303  0.70157  0.18774  1.0000
  H   H1824     1.0  0.39803  0.70612  0.18621  1.0000
  C   C1527     1.0  0.12846  0.70510  0.10408  1.0000
  S   S428      1.0  0.13167  0.70117  0.21888  1.0000
  H   H1825     1.0  0.13224  0.60521  0.01493  1.0000
  H   H1826     1.0  0.16219  0.66273  0.17975  1.0000
  C   C1528     1.0  0.16859  0.63123  0.15697  1.0000
  C   C1529     1.0  0.15482  0.67980  0.14913  1.0000
  H   H1827     1.0  0.16575  0.70150  0.10999  1.0000
  H   H1828     1.0  0.19700  0.64360  0.14006  1.0000
  C   C1530     1.0  0.13280  0.60015  0.04242  1.0000
  C   C1531     1.0  0.16466  0.61384  0.13295  1.0000
  H   H1829     1.0  0.15303  0.63956  0.10855  1.0000
  H   H1830     1.0  0.22026  0.58799  0.18451  1.0000
  H   H1831     1.0  0.10398  0.65683  0.19804  1.0000
  C   C1532     1.0  0.00934  0.63817  0.11357  1.0000
  C   C1533     1.0  0.16364  0.62596  0.12320  1.0000
  C   C1534     1.0  0.14580  0.62748  0.22385  1.0000
  H   H1832     1.0  0.23551  0.55564  0.20511  1.0000
  C   C1535     1.0  0.33473  0.72344  0.15902  1.0000
  C   C1536     1.0  0.23827  0.55594  0.19402  1.0000
  C   C1537     1.0  0.41229  0.69333  0.21422  1.0000
  C   C1538     1.0  0.13759  0.61614  0.18211  1.0000
  H   H1833     1.0  0.39843  0.68732  0.20562  1.0000
  H   H1834     1.0  0.10878  0.62724  0.16985  1.0000
  H   H1835     1.0  0.14966  0.64212  0.16664  1.0000
  H   H1836     1.0  0.22751  0.57569  0.16582  1.0000
  C   C1539     1.0  0.08932  0.64519  0.17972  1.0000
  Fe  Fe212     1.0  0.14069  0.70208  0.19672  1.0000
  H   H1837     1.0  0.14041  0.65952  0.17763  1.0000
  C   C1540     1.0  0.14598  0.59347  0.03602  1.0000
  C   C1541     1.0  0.23417  0.56747  0.17191  1.0000
  C   C1542     1.0  0.22189  0.70166  0.15202  1.0000
  H   H1838     1.0  0.16896  0.60396  0.00714  1.0000
  H   H1839     1.0  0.12551  0.71264  0.13912  1.0000
  Fe  Fe213     1.0  0.11393  0.70276  0.18989  1.0000
  C   C1543     1.0  0.15313  0.63014  0.11607  1.0000
  H   H1840     1.0  0.19154  0.70931  0.14157  1.0000
  H   H1841     1.0  0.14030  0.61755  0.01693  1.0000
  H   H1842     1.0  0.16196  0.57599  0.01979  1.0000
  N   N100      1.0  0.10172  0.54463  0.14417  1.0000
  C   C1544     1.0  0.09035  0.54012  0.14200  1.0000
  C   C1545     1.0  0.11078  0.54873  0.13079  1.0000
  C   C1546     1.0  0.10984  0.53268  0.15210  1.0000
  C   C1547     1.0  0.09612  0.55634  0.15093  1.0000
  C   C1548     1.0  0.09927  0.55648  0.16323  1.0000
  C   C1549     1.0  0.08728  0.56818  0.14512  1.0000
  C   C1550     1.0  0.19224  0.66362  0.21251  1.0000
  C   C1551     1.0  0.08155  0.57920  0.15149  1.0000
  H   H1843     1.0  0.17139  0.65790  0.20517  1.0000
  H   H1844     1.0  0.08469  0.54792  0.13476  1.0000
  H   H1845     1.0  0.09420  0.53083  0.13765  1.0000
  H   H1846     1.0  0.08283  0.53776  0.15175  1.0000
  H   H1847     1.0  0.11929  0.55242  0.13199  1.0000
  H   H1848     1.0  0.10530  0.55716  0.12384  1.0000
  H   H1849     1.0  0.11555  0.54013  0.12549  1.0000
  H   H1850     1.0  0.10362  0.52893  0.16227  1.0000
  H   H1851     1.0  0.11391  0.52401  0.14682  1.0000
  H   H1852     1.0  0.11904  0.53507  0.15349  1.0000
  H   H1853     1.0  0.10623  0.54819  0.16820  1.0000
  H   H1854     1.0  0.08494  0.56911  0.13547  1.0000
  N   N101      1.0  0.41266  0.68221  0.22649  1.0000
  H   H1855     1.0  0.12856  0.70284  0.09462  1.0000
  H   H1856     1.0  0.14463  0.70883  0.16968  1.0000
  N   N102      1.0  0.25362  0.69204  0.12438  1.0000
  C   C1552     1.0  0.25333  0.70604  0.11611  1.0000
  C   C1553     1.0  0.26698  0.68690  0.12846  1.0000
  C   C1554     1.0  0.25283  0.68365  0.11543  1.0000
  C   C1555     1.0  0.24229  0.69122  0.13665  1.0000
  C   C1556     1.0  0.24096  0.67845  0.14544  1.0000
  C   C1557     1.0  0.23246  0.70287  0.14037  1.0000
  H   H1857     1.0  0.13262  0.49280  0.15350  1.0000
  C   C1558     1.0  0.16406  0.65560  0.15666  1.0000
  C   C1559     1.0  0.22090  0.68896  0.16039  1.0000
  H   H1858     1.0  0.25440  0.71301  0.12188  1.0000
  H   H1859     1.0  0.26176  0.70641  0.10681  1.0000
  C   C1560     1.0  0.09911  0.65695  0.18986  1.0000
  H   H1860     1.0  0.26772  0.69270  0.13556  1.0000
  H   H1861     1.0  0.27575  0.68783  0.11952  1.0000
  H   H1862     1.0  0.26854  0.67598  0.13364  1.0000
  H   H1863     1.0  0.24282  0.68714  0.11232  1.0000
  H   H1864     1.0  0.26101  0.68424  0.10595  1.0000
  H   H1865     1.0  0.25382  0.67271  0.12041  1.0000
  H   H1866     1.0  0.24791  0.66913  0.14322  1.0000
  H   H1867     1.0  0.42628  0.70311  0.21824  1.0000
  H   H1868     1.0  0.22463  0.57989  0.20062  1.0000
  N   N103      1.0  0.15155  0.59670  0.02114  1.0000
  H   H1869     1.0  0.14734  0.68907  0.15195  1.0000
  N   N104      1.0  0.13200  0.62617  0.11128  1.0000
  C   C1561     1.0  0.13248  0.63874  0.10048  1.0000
  C   C1562     1.0  0.13243  0.61512  0.10476  1.0000
  C   C1563     1.0  0.11870  0.62859  0.12116  1.0000
  C   C1564     1.0  0.14331  0.62216  0.11854  1.0000
  C   C1565     1.0  0.14458  0.60998  0.12868  1.0000
  C   C1566     1.0  0.15511  0.60590  0.13571  1.0000
  H   H1870     1.0  0.12406  0.64123  0.09500  1.0000
  H   H1871     1.0  0.13125  0.64776  0.10468  1.0000
  H   H1872     1.0  0.12428  0.61794  0.09891  1.0000
  H   H1873     1.0  0.13072  0.60561  0.11222  1.0000
  H   H1874     1.0  0.14244  0.61261  0.09760  1.0000
  H   H1875     1.0  0.11791  0.63679  0.12635  1.0000
  H   H1876     1.0  0.10988  0.63161  0.11616  1.0000
  H   H1877     1.0  0.11717  0.61937  0.12915  1.0000
  H   H1878     1.0  0.13740  0.60347  0.13127  1.0000
  H   H1879     1.0  0.15586  0.59647  0.14333  1.0000
  C   C1567     1.0  0.19719  0.59617  0.08708  1.0000
  C   C1568     1.0  0.17480  0.61074  0.09255  1.0000
  H   H1880     1.0  0.19424  0.58919  0.09698  1.0000
  H   H1881     1.0  0.19511  0.59187  0.07949  1.0000
  H   H1882     1.0  0.20846  0.59533  0.08474  1.0000
  H   H1883     1.0  0.17287  0.60518  0.10335  1.0000
  H   H1884     1.0  0.17067  0.60591  0.08686  1.0000
  H   H1885     1.0  0.18812  0.61231  0.06610  1.0000
  N   N105      1.0  0.03976  0.65505  0.10274  1.0000
  C   C1569     1.0  0.03734  0.66098  0.11471  1.0000
  C   C1570     1.0  0.05094  0.64264  0.10367  1.0000
  C   C1571     1.0  0.04470  0.66505  0.09046  1.0000
  C   C1572     1.0  0.02697  0.65157  0.10263  1.0000
  C   C1573     1.0  0.02159  0.64139  0.11320  1.0000
  C   C1574     1.0  0.01921  0.65843  0.09257  1.0000
  H   H1886     1.0  0.17856  0.68127  0.22888  1.0000
  C   C1575     1.0  0.00685  0.65524  0.09315  1.0000
  H   H1887     1.0  0.22005  0.73488  0.11333  1.0000
  H   H1888     1.0  0.03457  0.65372  0.12446  1.0000
  H   H1889     1.0  0.04659  0.66402  0.11510  1.0000
  H   H1890     1.0  0.02888  0.67023  0.11446  1.0000
  H   H1891     1.0  0.04898  0.63525  0.11347  1.0000
  H   H1892     1.0  0.06084  0.64511  0.10300  1.0000
  H   H1893     1.0  0.05248  0.63739  0.09530  1.0000
  H   H1894     1.0  0.03731  0.67507  0.08964  1.0000
  H   H1895     1.0  0.05455  0.66712  0.09078  1.0000
  H   H1896     1.0  0.04667  0.66125  0.08103  1.0000
  H   H1897     1.0  0.02656  0.63615  0.12156  1.0000
  H   H1898     1.0  0.02231  0.66646  0.08426  1.0000
  C   C1576     1.0  0.19481  0.55929  0.21006  1.0000
  H   H1899     1.0  0.21252  0.56365  0.21269  1.0000
  H   H1900     1.0  0.14104  0.62175  0.19887  1.0000
  C   C1577     1.0  0.14091  0.49171  0.14467  1.0000
  C   C1578     1.0  0.09007  0.63744  0.20327  1.0000
  C   C1579     1.0  0.12114  0.63222  0.19470  1.0000
  H   H1901     1.0  0.38619  0.72728  0.22249  1.0000
  C   C1580     1.0  0.11150  0.63424  0.18667  1.0000
  C   C1581     1.0  0.40463  0.69442  0.20453  1.0000
  C   C1582     1.0  0.22777  0.57985  0.18959  1.0000
  C   C1583     1.0  0.20791  0.56209  0.20537  1.0000
  C   C1584     1.0  0.14060  0.65690  0.98713  1.0000
  C   C1585     1.0  0.12640  0.71052  0.12931  1.0000
  H   H1902     1.0  0.17401  0.70014  0.09296  1.0000
  H   H1903     1.0  0.20279  0.60978  0.12607  1.0000
  H   H1904     1.0  0.08685  0.63551  0.17976  1.0000
  H   H1905     1.0  0.17538  0.67409  0.19668  1.0000
  C   C1586     1.0  0.13616  0.58723  0.06468  1.0000
  H   H1906     1.0  0.00086  0.66080  0.08561  1.0000
  N   N106      1.0  0.15535  0.66817  0.16101  1.0000
  H   H1907     1.0  0.15869  0.72594  0.20533  1.0000
  H   H1908     1.0  0.11871  0.63721  0.20312  1.0000
  H   H1909     1.0  0.10520  0.66157  0.17998  1.0000
  C   C1587     1.0  0.18648  0.64350  0.14552  1.0000
  C   C1588     1.0  0.14097  0.66709  0.16780  1.0000
  H   H1910     1.0  0.24363  0.71023  0.11247  1.0000
  H   H1911     1.0  0.19591  0.67083  0.20303  1.0000
  C   C1589     1.0  0.20362  0.62852  0.11127  1.0000
  H   H1912     1.0  0.13112  0.61195  0.16626  1.0000
  N   N107      1.0  0.09775  0.64328  0.18970  1.0000
  C   C1590     1.0  0.08466  0.57892  0.16363  1.0000
  C   C1591     1.0  0.13398  0.62334  0.19239  1.0000
  N   N108      1.0  0.17715  0.66759  0.21763  1.0000
  C   C1592     1.0  0.19669  0.63025  0.09056  1.0000
  Fe  Fe214     1.0  0.22045  0.71545  0.09433  1.0000
  H   H1913     1.0  0.15518  0.68062  0.17438  1.0000
  H   H1914     1.0  0.00524  0.63063  0.12194  1.0000
  H   H1915     1.0  0.15524  0.57255  0.06507  1.0000
  H   H1916     1.0  0.19434  0.59972  0.11254  1.0000
  C   C1593     1.0  0.11651  0.70436  0.11430  1.0000
  C   C1594     1.0  0.15972  0.64310  0.16054  1.0000
  Fe  Fe215     1.0  0.17744  0.61414  0.20847  1.0000
  H   H1917     1.0  0.40499  0.66814  0.22045  1.0000
  C   C1595     1.0  0.23046  0.67739  0.15714  1.0000
  C   C1596     1.0  0.11552  0.62671  0.17625  1.0000
  H   H1918     1.0  0.16482  0.68289  0.14476  1.0000
  C   C1597     1.0  0.18198  0.63140  0.14960  1.0000
  H   H1919     1.0  0.07922  0.65238  0.18203  1.0000
  H   H1920     1.0  0.99834  0.63101  0.15786  1.0000
  H   H1921     1.0  0.13360  0.66664  0.98768  1.0000
  H   H1922     1.0  0.20193  0.61853  0.06752  1.0000
  H   H1923     1.0  0.08047  0.58767  0.16833  1.0000
  H   H1924     1.0  0.14222  0.63766  0.09264  1.0000
  C   C1598     1.0  0.13837  0.71134  0.11916  1.0000
  C   C1599     1.0  0.18130  0.70929  0.14773  1.0000
  C   C1600     1.0  0.13991  0.65214  0.21793  1.0000
  H   H1925     1.0  0.23783  0.58288  0.18587  1.0000
  H   H1926     1.0  0.21435  0.71063  0.15452  1.0000
  C   C1601     1.0  0.19444  0.61681  0.09500  1.0000
  Fe  Fe216     1.0  0.11431  0.71732  0.21181  1.0000
  H   H1927     1.0  0.18183  0.66444  0.14590  1.0000
  H   H1928     1.0  0.13451  0.67691  0.17031  1.0000
  H   H1929     1.0  0.11830  0.60283  0.06128  1.0000
  C   C1602     1.0  0.12811  0.59716  0.05655  1.0000
  H   H1930     1.0  0.15787  0.58659  0.00432  1.0000
  H   H1931     1.0  0.09518  0.63668  0.21152  1.0000
  C   C1603     1.0  0.17915  0.70577  0.16197  1.0000
  C   C1604     1.0  0.14892  0.58019  0.05871  1.0000
  H   H1932     1.0  0.14452  0.58068  0.01795  1.0000
  S   S429      1.0  0.21371  0.70647  0.11646  1.0000
  H   H1933     1.0  0.17283  0.59273  0.02244  1.0000
  H   H1934     1.0  0.12609  0.60813  0.03682  1.0000
  H   H1935     1.0  0.16401  0.57787  0.04058  1.0000
  H   H1936     1.0  0.23535  0.55770  0.16902  1.0000
  H   H1937     1.0  0.16345  0.60972  0.02279  1.0000
  H   H1938     1.0  0.20319  0.64611  0.09486  1.0000
  C   C1605     1.0  0.21471  0.56333  0.19145  1.0000
  S   S430      1.0  0.19923  0.72117  0.09023  1.0000
  C   C1606     1.0  0.20132  0.63591  0.09858  1.0000
  C   C1607     1.0  0.16474  0.60092  0.01824  1.0000
  H   H1939     1.0  0.19798  0.66346  0.22006  1.0000
  H   H1940     1.0  0.09452  0.64950  0.16922  1.0000
  N   N109      1.0  0.22848  0.56657  0.18672  1.0000
  C   C1608     1.0  0.14224  0.60782  0.01363  1.0000
  H   H1941     1.0  0.19493  0.63663  0.08093  1.0000
  C   C1609     1.0  0.20108  0.61549  0.11613  1.0000
  H   H1942     1.0  0.09630  0.56767  0.17865  1.0000
  H   H1943     1.0  0.21177  0.56238  0.17179  1.0000
  C   C1610     1.0  0.36770  0.71343  0.20370  1.0000
  H   H1944     1.0  0.19528  0.65348  0.20981  1.0000
  C   C1611     1.0  0.41936  0.71429  0.20031  1.0000
  C   C1612     1.0  0.14846  0.73128  0.20308  1.0000
  H   H1945     1.0  0.43457  0.67872  0.22420  1.0000
  C   C1613     1.0  0.14877  0.63975  0.21563  1.0000
  H   H1946     1.0  0.21259  0.68802  0.16930  1.0000
  H   H1947     1.0  0.24887  0.55774  0.19031  1.0000
  H   H1948     1.0  0.18966  0.55878  0.22066  1.0000
  C   C1614     1.0  0.16240  0.48868  0.12208  1.0000
  C   C1615     1.0  0.17399  0.68137  0.22044  1.0000
  S   S431      1.0  0.36401  0.69108  0.22373  1.0000
  H   H1949     1.0  0.17792  0.55554  0.20468  1.0000
  H   H1950     1.0  0.17080  0.48754  0.11334  1.0000
  H   H1951     1.0  0.14058  0.73006  0.21271  1.0000
  C   C1616     1.0  0.37861  0.73075  0.20446  1.0000
  H   H1952     1.0  0.16462  0.72462  0.08451  1.0000
  C   C1617     1.0  0.32097  0.72513  0.15903  1.0000
  H   H1953     1.0  0.14646  0.73142  0.08956  1.0000
  H   H1954     1.0  0.37074  0.73081  0.18758  1.0000
  C   C1618     1.0  0.15527  0.72346  0.09275  1.0000
  H   H1955     1.0  0.16223  0.70775  0.07491  1.0000
  H   H1956     1.0  0.31817  0.71929  0.15357  1.0000
  H   H1957     1.0  0.34928  0.73059  0.16469  1.0000
  H   H1958     1.0  0.16277  0.68555  0.22333  1.0000
  H   H1959     1.0  0.35274  0.73237  0.22504  1.0000
  H   H1960     1.0  0.41070  0.72389  0.18274  1.0000
  C   C1619     1.0  0.42655  0.67320  0.22516  1.0000
  C   C1620     1.0  0.40265  0.67370  0.22874  1.0000
  C   C1621     1.0  0.12826  0.65227  0.22861  1.0000
  C   C1622     1.0  0.17174  0.65807  0.23001  1.0000
  C   C1623     1.0  0.22810  0.60674  0.22991  1.0000
  C   C1624     1.0  0.33325  0.48628  0.30544  1.0000
  Fe  Fe217     1.0  0.45439  0.63473  0.34108  1.0000
  S   S432      1.0  0.43961  0.65483  0.34250  1.0000
  S   S433      1.0  0.47762  0.63246  0.33467  1.0000
  Fe  Fe218     1.0  0.43145  0.61894  0.35064  1.0000
  S   S434      1.0  0.41529  0.63766  0.35317  1.0000
  S   S435      1.0  0.42460  0.59898  0.35643  1.0000
  Fe  Fe219     1.0  0.42672  0.64759  0.33320  1.0000
  S   S436      1.0  0.41159  0.66211  0.32128  1.0000
  Fe  Fe220     1.0  0.42931  0.64329  0.36221  1.0000
  S   S437      1.0  0.41913  0.65314  0.37999  1.0000
  S   S438      1.0  0.44230  0.62835  0.32984  1.0000
  S   S439      1.0  0.44480  0.62357  0.36161  1.0000
  Fe  Fe221     1.0  0.33019  0.58223  0.34821  1.0000
  S   S440      1.0  0.34938  0.57456  0.33371  1.0000
  S   S441      1.0  0.31204  0.59821  0.34182  1.0000
  Fe  Fe222     1.0  0.34337  0.56931  0.37265  1.0000
  S   S442      1.0  0.36358  0.56053  0.35990  1.0000
  S   S443      1.0  0.34105  0.56638  0.39527  1.0000
  Fe  Fe223     1.0  0.36056  0.58092  0.34560  1.0000
  S   S444      1.0  0.37442  0.59588  0.33538  1.0000
  Fe  Fe224     1.0  0.35053  0.55470  0.34937  1.0000
  S   S445      1.0  0.35696  0.53500  0.34140  1.0000
  S   S446      1.0  0.34124  0.58987  0.35908  1.0000
  S   S447      1.0  0.33043  0.56216  0.36319  1.0000
  C   C1625     1.0  0.35156  0.51934  0.34858  1.0000
  S   S448      1.0  0.35733  0.64457  0.43841  1.0000
  Fe  Fe225     1.0  0.33466  0.62348  0.43301  1.0000
  S   S449      1.0  0.35017  0.63247  0.41605  1.0000
  S   S450      1.0  0.32086  0.61426  0.42681  1.0000
  Fe  Fe226     1.0  0.36373  0.62518  0.43079  1.0000
  S   S451      1.0  0.38510  0.61365  0.42389  1.0000
  Fe  Fe227     1.0  0.34184  0.65081  0.42526  1.0000
  S   S452      1.0  0.33576  0.67098  0.41123  1.0000
  S   S453      1.0  0.34905  0.61435  0.44718  1.0000
  S   S454      1.0  0.32568  0.64216  0.44180  1.0000
  Fe  Fe228     1.0  0.27278  0.61321  0.28699  1.0000
  S   S455      1.0  0.25016  0.62241  0.29159  1.0000
  S   S456      1.0  0.28292  0.59300  0.29839  1.0000
  Fe  Fe229     1.0  0.27897  0.63613  0.26335  1.0000
  S   S457      1.0  0.25693  0.64713  0.26562  1.0000
  S   S458      1.0  0.29509  0.64622  0.24808  1.0000
  Fe  Fe230     1.0  0.25652  0.64206  0.28785  1.0000
  S   S459      1.0  0.24632  0.65956  0.29830  1.0000
  Fe  Fe231     1.0  0.25216  0.62673  0.26892  1.0000
  S   S460      1.0  0.23348  0.62556  0.26231  1.0000
  S   S461      1.0  0.27893  0.63249  0.28538  1.0000
  S   S462      1.0  0.27448  0.61606  0.26453  1.0000
  H   H1961     1.0  0.25229  0.68785  0.41453  1.0000
  Fe  Fe232     1.0  0.29133  0.67887  0.35944  1.0000
  S   S463      1.0  0.27046  0.67759  0.37247  1.0000
  S   S464      1.0  0.30962  0.66431  0.36654  1.0000
  Fe  Fe233     1.0  0.27973  0.69650  0.33495  1.0000
  S   S465      1.0  0.25791  0.69653  0.34602  1.0000
  S   S466      1.0  0.28426  0.70519  0.31250  1.0000
  Fe  Fe234     1.0  0.26460  0.69986  0.36319  1.0000
  S   S467      1.0  0.25307  0.71554  0.37580  1.0000
  Fe  Fe235     1.0  0.26592  0.67438  0.35413  1.0000
  S   S468      1.0  0.25872  0.65592  0.35487  1.0000
  S   S469      1.0  0.28606  0.70144  0.35150  1.0000
  S   S470      1.0  0.28714  0.67418  0.34172  1.0000
  Fe  Fe236     1.0  0.35670  0.68107  0.27465  1.0000
  S   S471      1.0  0.36575  0.65898  0.28167  1.0000
  S   S472      1.0  0.34817  0.69509  0.28915  1.0000
  Fe  Fe237     1.0  0.36504  0.67977  0.24511  1.0000
  S   S473      1.0  0.37492  0.65751  0.24936  1.0000
  Fe  Fe238     1.0  0.35639  0.65574  0.26632  1.0000
  S   S474      1.0  0.34692  0.63757  0.27203  1.0000
  Fe  Fe239     1.0  0.38345  0.66262  0.26423  1.0000
  S   S475      1.0  0.40528  0.65354  0.26625  1.0000
  S   S476      1.0  0.34561  0.67759  0.26089  1.0000
  S   S477      1.0  0.37525  0.68506  0.25844  1.0000
  C   C1626     1.0  0.30196  0.70291  0.30587  1.0000
  C   C1627     1.0  0.31076  0.70237  0.31398  1.0000
  C   C1628     1.0  0.32497  0.70003  0.30872  1.0000
  C   C1629     1.0  0.33041  0.69780  0.29552  1.0000
  C   C1630     1.0  0.32159  0.69837  0.28739  1.0000
  C   C1631     1.0  0.30735  0.70125  0.29247  1.0000
  H   H1962     1.0  0.30663  0.70381  0.32428  1.0000
  H   H1963     1.0  0.33177  0.69976  0.31497  1.0000
  H   H1964     1.0  0.41081  0.62871  0.46341  1.0000
  H   H1965     1.0  0.33659  0.67084  0.35121  1.0000
  C   C1632     1.0  0.23575  0.72234  0.37501  1.0000
  C   C1633     1.0  0.22878  0.71583  0.37005  1.0000
  H   H1966     1.0  0.23393  0.70635  0.36691  1.0000
  C   C1634     1.0  0.35740  0.50846  0.34183  1.0000
  C   C1635     1.0  0.12371  0.73052  0.23754  1.0000
  H   H1967     1.0  0.11630  0.64002  0.24498  1.0000
  C   C1636     1.0  0.26002  0.69179  0.40567  1.0000
  C   C1637     1.0  0.31003  0.64326  0.25405  1.0000
  C   C1638     1.0  0.31354  0.63168  0.26395  1.0000
  C   C1639     1.0  0.32507  0.62986  0.26921  1.0000
  C   C1640     1.0  0.33303  0.63968  0.26471  1.0000
  C   C1641     1.0  0.32967  0.65114  0.25466  1.0000
  C   C1642     1.0  0.31823  0.65287  0.24927  1.0000
  H   H1968     1.0  0.30735  0.62413  0.26755  1.0000
  H   H1969     1.0  0.32770  0.62090  0.27688  1.0000
  H   H1970     1.0  0.33592  0.65861  0.25093  1.0000
  H   H1971     1.0  0.31562  0.66177  0.24152  1.0000
  C   C1643     1.0  0.25025  0.65821  0.31386  1.0000
  C   C1644     1.0  0.25544  0.64560  0.32161  1.0000
  C   C1645     1.0  0.25781  0.64485  0.33437  1.0000
  C   C1646     1.0  0.25543  0.65675  0.33912  1.0000
  C   C1647     1.0  0.25063  0.66935  0.33116  1.0000
  C   C1648     1.0  0.24781  0.67005  0.31867  1.0000
  H   H1972     1.0  0.25733  0.63643  0.31792  1.0000
  H   H1973     1.0  0.26158  0.63508  0.34047  1.0000
  H   H1974     1.0  0.24869  0.67853  0.33479  1.0000
  H   H1975     1.0  0.24370  0.67979  0.31273  1.0000
  C   C1649     1.0  0.23213  0.61874  0.24917  1.0000
  C   C1650     1.0  0.21936  0.62202  0.24563  1.0000
  C   C1651     1.0  0.38912  0.63207  0.45039  1.0000
  C   C1652     1.0  0.35321  0.49597  0.34694  1.0000
  H   H1976     1.0  0.41778  0.69251  0.23913  1.0000
  C   C1653     1.0  0.24299  0.60957  0.24286  1.0000
  H   H1977     1.0  0.21090  0.62902  0.25053  1.0000
  H   H1978     1.0  0.38733  0.64013  0.36688  1.0000
  C   C1654     1.0  0.34299  0.49424  0.35884  1.0000
  H   H1979     1.0  0.25286  0.60694  0.24549  1.0000
  C   C1655     1.0  0.32740  0.66960  0.39936  1.0000
  C   C1656     1.0  0.32512  0.65706  0.39953  1.0000
  C   C1657     1.0  0.31939  0.65566  0.38956  1.0000
  C   C1658     1.0  0.31541  0.66691  0.37959  1.0000
  C   C1659     1.0  0.31724  0.67964  0.37957  1.0000
  C   C1660     1.0  0.32334  0.68095  0.38941  1.0000
  H   H1980     1.0  0.32761  0.64837  0.40741  1.0000
  H   H1981     1.0  0.31798  0.64579  0.38967  1.0000
  H   H1982     1.0  0.31443  0.68833  0.37170  1.0000
  H   H1983     1.0  0.32512  0.69070  0.38917  1.0000
  C   C1661     1.0  0.33721  0.58009  0.40342  1.0000
  C   C1662     1.0  0.33535  0.57721  0.41758  1.0000
  C   C1663     1.0  0.33124  0.58775  0.42466  1.0000
  C   C1664     1.0  0.32909  0.60131  0.41765  1.0000
  C   C1665     1.0  0.33154  0.60426  0.40340  1.0000
  C   C1666     1.0  0.33565  0.59366  0.39628  1.0000
  H   H1984     1.0  0.33658  0.56676  0.42316  1.0000
  H   H1985     1.0  0.32915  0.58538  0.43565  1.0000
  H   H1986     1.0  0.32958  0.61473  0.39793  1.0000
  H   H1987     1.0  0.33699  0.59601  0.38539  1.0000
  C   C1667     1.0  0.30400  0.59624  0.32996  1.0000
  C   C1668     1.0  0.29243  0.60612  0.32682  1.0000
  C   C1669     1.0  0.28617  0.60535  0.31692  1.0000
  C   C1670     1.0  0.29109  0.59438  0.31043  1.0000
  C   C1671     1.0  0.30243  0.58426  0.31384  1.0000
  C   C1672     1.0  0.30900  0.58527  0.32346  1.0000
  H   H1988     1.0  0.28814  0.61434  0.33216  1.0000
  H   H1989     1.0  0.27728  0.61306  0.31457  1.0000
  H   H1990     1.0  0.30624  0.57571  0.30891  1.0000
  H   H1991     1.0  0.31785  0.57754  0.32588  1.0000
  C   C1673     1.0  0.41025  0.64211  0.39277  1.0000
  C   C1674     1.0  0.41460  0.62807  0.39378  1.0000
  C   C1675     1.0  0.40712  0.61930  0.40373  1.0000
  C   C1676     1.0  0.39492  0.62461  0.41219  1.0000
  C   C1677     1.0  0.39049  0.63867  0.41107  1.0000
  C   C1678     1.0  0.39834  0.64740  0.40159  1.0000
  H   H1992     1.0  0.42385  0.62395  0.38703  1.0000
  H   H1993     1.0  0.41070  0.60843  0.40467  1.0000
  H   H1994     1.0  0.38108  0.64287  0.41750  1.0000
  H   H1995     1.0  0.39499  0.65828  0.40082  1.0000
  C   C1679     1.0  0.40995  0.59844  0.35144  1.0000
  C   C1680     1.0  0.40186  0.61021  0.34510  1.0000
  C   C1681     1.0  0.39043  0.60940  0.34100  1.0000
  C   C1682     1.0  0.38701  0.59683  0.34315  1.0000
  C   C1683     1.0  0.39482  0.58512  0.34985  1.0000
  C   C1684     1.0  0.40632  0.58593  0.35387  1.0000
  H   H1996     1.0  0.40456  0.61990  0.34313  1.0000
  H   H1997     1.0  0.38434  0.61853  0.33597  1.0000
  H   H1998     1.0  0.39240  0.57535  0.35140  1.0000
  H   H1999     1.0  0.41265  0.57676  0.35856  1.0000
  C   C1685     1.0  0.41040  0.65958  0.30585  1.0000
  C   C1686     1.0  0.39885  0.66690  0.30059  1.0000
  C   C1687     1.0  0.39734  0.66511  0.28840  1.0000
  C   C1688     1.0  0.40756  0.65625  0.28118  1.0000
  C   C1689     1.0  0.41933  0.64916  0.28621  1.0000
  C   C1690     1.0  0.42065  0.65065  0.29867  1.0000
  H   H2000     1.0  0.39103  0.67401  0.30597  1.0000
  H   H2001     1.0  0.38831  0.67074  0.28455  1.0000
  H   H2002     1.0  0.42738  0.64247  0.28054  1.0000
  H   H2003     1.0  0.42968  0.64514  0.30260  1.0000
  C   C1691     1.0  0.34151  0.51751  0.36060  1.0000
  C   C1692     1.0  0.33726  0.50506  0.36565  1.0000
  H   H2004     1.0  0.33693  0.52574  0.36593  1.0000
  H   H2005     1.0  0.32936  0.50387  0.37486  1.0000
  H   H2006     1.0  0.36519  0.50974  0.33255  1.0000
  C   C1693     1.0  0.28372  0.69236  0.39588  1.0000
  H   H2007     1.0  0.38078  0.64007  0.45467  1.0000
  N   N110      1.0  0.27408  0.68702  0.40830  1.0000
  H   H2008     1.0  0.33436  0.72189  0.27389  1.0000
  C   C1694     1.0  0.47964  0.64809  0.35130  1.0000
  C   C1695     1.0  0.21474  0.71562  0.32037  1.0000
  H   H2009     1.0  0.39820  0.54339  0.38443  1.0000
  H   H2010     1.0  0.46857  0.64997  0.35447  1.0000
  H   H2011     1.0  0.16832  0.72485  0.34785  1.0000
  H   H2012     1.0  0.30830  0.62821  0.30100  1.0000
  H   H2013     1.0  0.33004  0.71596  0.24832  1.0000
  C   C1696     1.0  0.48649  0.64015  0.34162  1.0000
  H   H2014     1.0  0.20743  0.61858  0.23358  1.0000
  N   N111      1.0  0.37425  0.65888  0.37178  1.0000
  C   C1697     1.0  0.32858  0.50192  0.32101  1.0000
  C   C1698     1.0  0.33224  0.51240  0.30970  1.0000
  C   C1699     1.0  0.32423  0.50527  0.33401  1.0000
  C   C1700     1.0  0.33163  0.52534  0.31143  1.0000
  C   C1701     1.0  0.32355  0.51826  0.33558  1.0000
  C   C1702     1.0  0.32737  0.52824  0.32435  1.0000
  C   C1703     1.0  0.18027  0.64641  0.23653  1.0000
  C   C1704     1.0  0.40363  0.62596  0.47282  1.0000
  H   H2015     1.0  0.40346  0.59897  0.46185  1.0000
  H   H2016     1.0  0.32533  0.49308  0.29990  1.0000
  H   H2017     1.0  0.40277  0.66576  0.23828  1.0000
  H   H2018     1.0  0.30051  0.70204  0.28610  1.0000
  H   H2019     1.0  0.32178  0.49775  0.34317  1.0000
  H   H2020     1.0  0.10621  0.71582  0.26496  1.0000
  H   H2021     1.0  0.13696  0.72584  0.25148  1.0000
  H   H2022     1.0  0.33583  0.51083  0.29945  1.0000
  H   H2023     1.0  0.22007  0.71453  0.33905  1.0000
  C   C1705     1.0  0.33104  0.73047  0.26564  1.0000
  H   H2024     1.0  0.32049  0.52047  0.34565  1.0000
  H   H2025     1.0  0.38551  0.64163  0.38387  1.0000
  H   H2026     1.0  0.38195  0.67722  0.36388  1.0000
  H   H2027     1.0  0.26146  0.66675  0.40753  1.0000
  C   C1706     1.0  0.18978  0.73325  0.33020  1.0000
  H   H2028     1.0  0.30517  0.67964  0.28159  1.0000
  C   C1707     1.0  0.34028  0.71603  0.24959  1.0000
  H   H2029     1.0  0.23873  0.56794  0.30069  1.0000
  C   C1708     1.0  0.21495  0.72137  0.36952  1.0000
  H   H2030     1.0  0.30811  0.49040  0.32276  1.0000
  C   C1709     1.0  0.28971  0.65149  0.31991  1.0000
  N   N112      1.0  0.37996  0.59502  0.39167  1.0000
  C   C1710     1.0  0.39091  0.60196  0.39075  1.0000
  C   C1711     1.0  0.37222  0.60313  0.38110  1.0000
  C   C1712     1.0  0.37061  0.59511  0.40527  1.0000
  C   C1713     1.0  0.38526  0.58086  0.38975  1.0000
  C   C1714     1.0  0.39946  0.57451  0.38741  1.0000
  C   C1715     1.0  0.40401  0.56111  0.38557  1.0000
  H   H2031     1.0  0.39814  0.60267  0.38059  1.0000
  H   H2032     1.0  0.38663  0.61252  0.39236  1.0000
  H   H2033     1.0  0.39685  0.59661  0.39873  1.0000
  H   H2034     1.0  0.37883  0.60290  0.37074  1.0000
  H   H2035     1.0  0.36833  0.61392  0.38202  1.0000
  H   H2036     1.0  0.36310  0.59926  0.38177  1.0000
  H   H2037     1.0  0.37596  0.58877  0.41347  1.0000
  H   H2038     1.0  0.36676  0.60554  0.40731  1.0000
  H   H2039     1.0  0.36141  0.59114  0.40644  1.0000
  H   H2040     1.0  0.40733  0.57974  0.38661  1.0000
  H   H2041     1.0  0.41490  0.55655  0.38359  1.0000
  N   N113      1.0  0.29326  0.62675  0.36954  1.0000
  C   C1716     1.0  0.30621  0.62836  0.35944  1.0000
  C   C1717     1.0  0.28404  0.62341  0.36300  1.0000
  C   C1718     1.0  0.28645  0.64013  0.37322  1.0000
  C   C1719     1.0  0.29638  0.61569  0.38128  1.0000
  C   C1720     1.0  0.29475  0.61808  0.39441  1.0000
  C   C1721     1.0  0.30179  0.60207  0.37964  1.0000
  C   C1722     1.0  0.29802  0.60739  0.40520  1.0000
  C   C1723     1.0  0.30502  0.59149  0.39049  1.0000
  C   C1724     1.0  0.30302  0.59413  0.40327  1.0000
  H   H2042     1.0  0.31157  0.61891  0.35564  1.0000
  H   H2043     1.0  0.30429  0.63660  0.35043  1.0000
  H   H2044     1.0  0.31337  0.63097  0.36396  1.0000
  H   H2045     1.0  0.28887  0.61430  0.35849  1.0000
  H   H2046     1.0  0.28105  0.63181  0.35449  1.0000
  H   H2047     1.0  0.27440  0.62154  0.37042  1.0000
  H   H2048     1.0  0.29314  0.64388  0.37731  1.0000
  H   H2049     1.0  0.28406  0.64812  0.36421  1.0000
  H   H2050     1.0  0.27652  0.63969  0.38072  1.0000
  H   H2051     1.0  0.29119  0.62811  0.39657  1.0000
  H   H2052     1.0  0.30377  0.59948  0.36989  1.0000
  H   H2053     1.0  0.29710  0.60940  0.41507  1.0000
  H   H2054     1.0  0.30942  0.58120  0.38892  1.0000
  H   H2055     1.0  0.30586  0.58593  0.41158  1.0000
  H   H2056     1.0  0.38712  0.65676  0.34534  1.0000
  H   H2057     1.0  0.40842  0.67988  0.24834  1.0000
  C   C1725     1.0  0.30239  0.63787  0.30341  1.0000
  C   C1726     1.0  0.24767  0.57262  0.29520  1.0000
  H   H2058     1.0  0.28587  0.65237  0.33041  1.0000
  H   H2059     1.0  0.25556  0.56517  0.28977  1.0000
  C   C1727     1.0  0.21738  0.61616  0.23598  1.0000
  H   H2060     1.0  0.25300  0.60079  0.27096  1.0000
  H   H2061     1.0  0.29782  0.67193  0.41649  1.0000
  C   C1728     1.0  0.36452  0.66317  0.38403  1.0000
  H   H2062     1.0  0.39875  0.63583  0.44705  1.0000
  C   C1729     1.0  0.16052  0.63944  0.25285  1.0000
  H   H2063     1.0  0.22493  0.59207  0.30047  1.0000
  H   H2064     1.0  0.36759  0.60495  0.27579  1.0000
  H   H2065     1.0  0.35943  0.67415  0.38177  1.0000
  C   C1730     1.0  0.37604  0.57296  0.39019  1.0000
  C   C1731     1.0  0.48593  0.61360  0.36817  1.0000
  H   H2066     1.0  0.37165  0.63833  0.37907  1.0000
  C   C1732     1.0  0.23452  0.59543  0.29451  1.0000
  H   H2067     1.0  0.17595  0.73187  0.35694  1.0000
  N   N114      1.0  0.28688  0.67267  0.28429  1.0000
  H   H2068     1.0  0.20957  0.71609  0.36597  1.0000
  H   H2069     1.0  0.38985  0.66532  0.37693  1.0000
  N   N115      1.0  0.24341  0.58574  0.28592  1.0000
  H   H2070     1.0  0.48175  0.65941  0.36466  1.0000
  C   C1733     1.0  0.37023  0.66242  0.33591  1.0000
  C   C1734     1.0  0.12528  0.63998  0.23670  1.0000
  C   C1735     1.0  0.36782  0.66158  0.36010  1.0000
  C   C1736     1.0  0.09944  0.72566  0.26578  1.0000
  C   C1737     1.0  0.37606  0.65993  0.34707  1.0000
  H   H2071     1.0  0.25239  0.57397  0.30293  1.0000
  H   H2072     1.0  0.19129  0.64398  0.23303  1.0000
  H   H2073     1.0  0.25388  0.56852  0.26814  1.0000
  C   C1738     1.0  0.29897  0.64883  0.29297  1.0000
  C   C1739     1.0  0.29795  0.63928  0.31686  1.0000
  H   H2074     1.0  0.27661  0.67661  0.26783  1.0000
  H   H2075     1.0  0.28164  0.68917  0.29471  1.0000
  C   C1740     1.0  0.24093  0.60351  0.23336  1.0000
  H   H2076     1.0  0.37629  0.61283  0.45260  1.0000
  H   H2077     1.0  0.32726  0.53815  0.32572  1.0000
  H   H2078     1.0  0.35783  0.48775  0.34162  1.0000
  C   C1741     1.0  0.17466  0.63724  0.24774  1.0000
  C   C1742     1.0  0.29955  0.67686  0.27556  1.0000
  C   C1743     1.0  0.21241  0.71889  0.33294  1.0000
  C   C1744     1.0  0.27854  0.67202  0.41192  1.0000
  H   H2079     1.0  0.29727  0.68570  0.26716  1.0000
  H   H2080     1.0  0.18538  0.73373  0.31074  1.0000
  H   H2081     1.0  0.29091  0.63239  0.42235  1.0000
  H   H2082     1.0  0.42718  0.66463  0.23421  1.0000
  C   C1745     1.0  0.27414  0.69309  0.41950  1.0000
  N   N116      1.0  0.32992  0.48787  0.31973  1.0000
  H   H2083     1.0  0.28744  0.66021  0.27061  1.0000
  C   C1746     1.0  0.27089  0.66309  0.41108  1.0000
  H   H2084     1.0  0.35758  0.72067  0.26179  1.0000
  C   C1747     1.0  0.29048  0.66138  0.29567  1.0000
  H   H2085     1.0  0.30674  0.66859  0.27069  1.0000
  H   H2086     1.0  0.30277  0.64734  0.28271  1.0000
  H   H2087     1.0  0.29412  0.69076  0.39768  1.0000
  H   H2088     1.0  0.26769  0.68865  0.42925  1.0000
  H   H2089     1.0  0.21753  0.59923  0.27987  1.0000
  C   C1748     1.0  0.37994  0.64409  0.37557  1.0000
  C   C1749     1.0  0.15193  0.65094  0.24692  1.0000
  H   H2090     1.0  0.13162  0.61814  0.24058  1.0000
  H   H2091     1.0  0.27140  0.66389  0.28232  1.0000
  C   C1750     1.0  0.27532  0.64896  0.41481  1.0000
  H   H2092     1.0  0.37332  0.55389  0.38867  1.0000
  H   H2093     1.0  0.25938  0.68884  0.39652  1.0000
  H   H2094     1.0  0.34792  0.71357  0.24031  1.0000
  H   H2095     1.0  0.37627  0.62601  0.26732  1.0000
  H   H2096     1.0  0.28489  0.68723  0.38752  1.0000
  C   C1751     1.0  0.40955  0.68787  0.23881  1.0000
  C   C1752     1.0  0.39464  0.55370  0.38599  1.0000
  H   H2097     1.0  0.30079  0.63086  0.32495  1.0000
  C   C1753     1.0  0.29529  0.65177  0.42007  1.0000
  H   H2098     1.0  0.36513  0.57706  0.39193  1.0000
  H   H2099     1.0  0.18133  0.62827  0.25238  1.0000
  H   H2100     1.0  0.26738  0.68220  0.29531  1.0000
  H   H2101     1.0  0.27451  0.69305  0.28015  1.0000
  H   H2102     1.0  0.36975  0.66163  0.39242  1.0000
  H   H2103     1.0  0.26928  0.64233  0.41420  1.0000
  C   C1754     1.0  0.28745  0.64333  0.41938  1.0000
  C   C1755     1.0  0.22460  0.58013  0.25664  1.0000
  H   H2104     1.0  0.26358  0.58398  0.27243  1.0000
  C   C1756     1.0  0.21749  0.58946  0.26480  1.0000
  H   H2105     1.0  0.20757  0.59569  0.26327  1.0000
  H   H2106     1.0  0.23979  0.59647  0.30194  1.0000
  H   H2107     1.0  0.14090  0.65259  0.25081  1.0000
  H   H2108     1.0  0.22019  0.57914  0.24885  1.0000
  H   H2109     1.0  0.22418  0.70872  0.31672  1.0000
  C   C1757     1.0  0.24360  0.57433  0.26767  1.0000
  H   H2110     1.0  0.23175  0.60585  0.28827  1.0000
  Fe  Fe240     1.0  0.34188  0.63415  0.45428  1.0000
  H   H2111     1.0  0.39986  0.69579  0.23943  1.0000
  C   C1758     1.0  0.37761  0.61399  0.46234  1.0000
  C   C1759     1.0  0.48715  0.65343  0.35707  1.0000
  C   C1760     1.0  0.20488  0.72114  0.31256  1.0000
  C   C1761     1.0  0.23763  0.57258  0.25807  1.0000
  H   H2112     1.0  0.39448  0.66215  0.36044  1.0000
  H   H2113     1.0  0.30483  0.64728  0.42345  1.0000
  H   H2114     1.0  0.32571  0.69690  0.27712  1.0000
  C   C1762     1.0  0.35605  0.66643  0.33737  1.0000
  C   C1763     1.0  0.28597  0.66244  0.30953  1.0000
  N   N117      1.0  0.39023  0.61892  0.46039  1.0000
  H   H2115     1.0  0.47638  0.61310  0.36628  1.0000
  C   C1764     1.0  0.34764  0.66779  0.35007  1.0000
  H   H2116     1.0  0.27012  0.70431  0.41736  1.0000
  H   H2117     1.0  0.10862  0.72816  0.28022  1.0000
  C   C1765     1.0  0.22338  0.59136  0.27438  1.0000
  C   C1766     1.0  0.27720  0.68479  0.28886  1.0000
  H   H2118     1.0  0.35772  0.65095  0.46686  1.0000
  C   C1767     1.0  0.28034  0.66816  0.27593  1.0000
  C   C1768     1.0  0.15742  0.66017  0.23571  1.0000
  H   H2119     1.0  0.24328  0.56562  0.25142  1.0000
  H   H2120     1.0  0.27939  0.67153  0.31268  1.0000
  C   C1769     1.0  0.25578  0.59112  0.27832  1.0000
  H   H2121     1.0  0.15619  0.63218  0.26137  1.0000
  H   H2122     1.0  0.34290  0.70744  0.25811  1.0000
  H   H2123     1.0  0.33469  0.53316  0.30275  1.0000
  H   H2124     1.0  0.40065  0.60710  0.44507  1.0000
  C   C1770     1.0  0.40206  0.60892  0.45452  1.0000
  H   H2125     1.0  0.38686  0.63121  0.44095  1.0000
  H   H2126     1.0  0.35643  0.65716  0.38836  1.0000
  H   H2127     1.0  0.26100  0.59317  0.28523  1.0000
  C   C1771     1.0  0.38554  0.66621  0.36807  1.0000
  H   H2128     1.0  0.35158  0.66854  0.32864  1.0000
  C   C1772     1.0  0.35337  0.66535  0.36132  1.0000
  C   C1773     1.0  0.08997  0.73126  0.25756  1.0000
  H   H2129     1.0  0.28014  0.70348  0.39203  1.0000
  H   H2130     1.0  0.34624  0.66654  0.37083  1.0000
  H   H2131     1.0  0.28461  0.69150  0.42114  1.0000
  C   C1774     1.0  0.29107  0.66589  0.41621  1.0000
  H   H2132     1.0  0.25672  0.70310  0.40352  1.0000
  C   C1775     1.0  0.38067  0.55961  0.38833  1.0000
  C   C1776     1.0  0.23665  0.58376  0.27617  1.0000
  C   C1777     1.0  0.19257  0.72987  0.31731  1.0000
  H   H2133     1.0  0.37682  0.66135  0.32604  1.0000
  N   N118      1.0  0.34182  0.62393  0.31636  1.0000
  C   C1778     1.0  0.34309  0.61462  0.32965  1.0000
  C   C1779     1.0  0.33519  0.61767  0.30957  1.0000
  C   C1780     1.0  0.35584  0.62465  0.30817  1.0000
  C   C1781     1.0  0.33391  0.63783  0.31761  1.0000
  C   C1782     1.0  0.33015  0.64233  0.33004  1.0000
  C   C1783     1.0  0.33049  0.64762  0.30602  1.0000
  C   C1784     1.0  0.32298  0.65564  0.33078  1.0000
  C   C1785     1.0  0.32335  0.66089  0.30687  1.0000
  C   C1786     1.0  0.31950  0.66484  0.31925  1.0000
  H   H2134     1.0  0.33285  0.61402  0.33646  1.0000
  H   H2135     1.0  0.34832  0.60408  0.32843  1.0000
  H   H2136     1.0  0.34939  0.61763  0.33483  1.0000
  H   H2137     1.0  0.33471  0.62328  0.29901  1.0000
  H   H2138     1.0  0.32461  0.61698  0.31544  1.0000
  H   H2139     1.0  0.34092  0.60713  0.30872  1.0000
  H   H2140     1.0  0.36093  0.62985  0.31260  1.0000
  H   H2141     1.0  0.36242  0.61433  0.30770  1.0000
  H   H2142     1.0  0.35576  0.63029  0.29752  1.0000
  H   H2143     1.0  0.33270  0.63583  0.33932  1.0000
  H   H2144     1.0  0.33340  0.64515  0.29616  1.0000
  H   H2145     1.0  0.32017  0.65890  0.34031  1.0000
  H   H2146     1.0  0.32088  0.66819  0.29787  1.0000
  H   H2147     1.0  0.31389  0.67509  0.31991  1.0000
  N   N119      1.0  0.40484  0.61298  0.29804  1.0000
  C   C1787     1.0  0.41706  0.61593  0.28732  1.0000
  C   C1788     1.0  0.39838  0.62489  0.30443  1.0000
  C   C1789     1.0  0.40982  0.60135  0.30858  1.0000
  C   C1790     1.0  0.39480  0.61041  0.29200  1.0000
  C   C1791     1.0  0.38957  0.59837  0.29666  1.0000
  C   C1792     1.0  0.38962  0.62034  0.28131  1.0000
  C   C1793     1.0  0.37993  0.59644  0.29080  1.0000
  C   C1794     1.0  0.38005  0.61827  0.27549  1.0000
  C   C1795     1.0  0.37517  0.60637  0.28025  1.0000
  H   H2148     1.0  0.41454  0.62531  0.27958  1.0000
  H   H2149     1.0  0.42496  0.61754  0.29163  1.0000
  H   H2150     1.0  0.42187  0.60744  0.28188  1.0000
  H   H2151     1.0  0.39551  0.63437  0.29690  1.0000
  H   H2152     1.0  0.40537  0.62696  0.30957  1.0000
  H   H2153     1.0  0.38885  0.62324  0.31213  1.0000
  H   H2154     1.0  0.41509  0.59211  0.30437  1.0000
  H   H2155     1.0  0.41723  0.60365  0.31305  1.0000
  H   H2156     1.0  0.40129  0.59882  0.31722  1.0000
  H   H2157     1.0  0.39260  0.59035  0.30496  1.0000
  H   H2158     1.0  0.39287  0.62987  0.27739  1.0000
  H   H2159     1.0  0.37602  0.58722  0.29457  1.0000
  H   H2160     1.0  0.41183  0.61241  0.45165  1.0000
  H   H2161     1.0  0.36822  0.62123  0.46640  1.0000
  H   H2162     1.0  0.37793  0.60381  0.46927  1.0000
  H   H2163     1.0  0.37814  0.70578  0.23330  1.0000
  H   H2164     1.0  0.47595  0.62734  0.38166  1.0000
  H   H2165     1.0  0.12605  0.72020  0.23624  1.0000
  C   C1796     1.0  0.20015  0.72758  0.33778  1.0000
  H   H2166     1.0  0.20673  0.71854  0.30278  1.0000
  C   C1797     1.0  0.13394  0.62761  0.23423  1.0000
  N   N120      1.0  0.34032  0.72923  0.25217  1.0000
  H   H2167     1.0  0.36217  0.72689  0.24386  1.0000
  C   C1798     1.0  0.35435  0.72886  0.25320  1.0000
  H   H2168     1.0  0.19876  0.72975  0.34762  1.0000
  C   C1799     1.0  0.48567  0.62168  0.37680  1.0000
  H   H2169     1.0  0.34350  0.48836  0.29987  1.0000
  S   S478      1.0  0.33835  0.63300  0.47703  1.0000
  H   H2170     1.0  0.08942  0.72581  0.25037  1.0000
  C   C1800     1.0  0.35684  0.64733  0.47769  1.0000
  C   C1801     1.0  0.12983  0.73373  0.24625  1.0000
  C   C1802     1.0  0.10069  0.73292  0.27456  1.0000
  S   S479      1.0  0.11765  0.66756  0.23263  1.0000
  H   H2171     1.0  0.32035  0.73031  0.26582  1.0000
  C   C1803     1.0  0.20808  0.73360  0.37369  1.0000
  H   H2172     1.0  0.37048  0.65896  0.47878  1.0000
  H   H2173     1.0  0.15025  0.66879  0.23134  1.0000
  C   C1804     1.0  0.39237  0.62068  0.47312  1.0000
  C   C1805     1.0  0.16990  0.73450  0.34900  1.0000
  C   C1806     1.0  0.22880  0.73443  0.37945  1.0000
  H   H2174     1.0  0.38418  0.49886  0.64126  1.0000
  Fe  Fe241     1.0  0.37071  0.57233  0.65609  1.0000
  S   S480      1.0  0.34873  0.58337  0.65728  1.0000
  S   S481      1.0  0.38216  0.58416  0.66236  1.0000
  Fe  Fe242     1.0  0.36542  0.54734  0.64995  1.0000
  S   S482      1.0  0.34310  0.55672  0.65098  1.0000
  S   S483      1.0  0.37494  0.52612  0.64568  1.0000
  Fe  Fe243     1.0  0.35049  0.57556  0.63894  1.0000
  S   S484      1.0  0.34052  0.58946  0.62225  1.0000
  Fe  Fe244     1.0  0.34371  0.56354  0.66923  1.0000
  S   S485      1.0  0.32784  0.56039  0.68873  1.0000
  S   S486      1.0  0.37295  0.56596  0.63666  1.0000
  S   S487      1.0  0.36555  0.55274  0.66925  1.0000
  Fe  Fe245     1.0  0.35455  0.65769  0.55598  1.0000
  S   S488      1.0  0.36873  0.66780  0.53829  1.0000
  S   S489      1.0  0.33479  0.67091  0.56487  1.0000
  Fe  Fe246     1.0  0.37364  0.63006  0.55629  1.0000
  S   S490      1.0  0.38909  0.63806  0.53838  1.0000
  S   S491      1.0  0.38014  0.60834  0.56657  1.0000
  Fe  Fe247     1.0  0.38525  0.65492  0.54918  1.0000
  S   S492      1.0  0.40338  0.66119  0.55150  1.0000
  Fe  Fe248     1.0  0.37091  0.64986  0.52938  1.0000
  S   S493      1.0  0.37114  0.65450  0.50680  1.0000
  S   S494      1.0  0.37084  0.64623  0.56759  1.0000
  S   S495      1.0  0.35563  0.64042  0.54658  1.0000
  Fe  Fe249     1.0  0.45115  0.64864  0.62601  1.0000
  S   S496      1.0  0.44523  0.63174  0.64350  1.0000
  Fe  Fe250     1.0  0.42276  0.65697  0.61878  1.0000
  S   S497      1.0  0.41489  0.64105  0.63589  1.0000
  S   S498      1.0  0.40594  0.66996  0.60804  1.0000
  Fe  Fe251     1.0  0.42550  0.64707  0.64833  1.0000
  S   S499      1.0  0.41347  0.64897  0.66951  1.0000
  Fe  Fe252     1.0  0.43497  0.62728  0.62943  1.0000
  S   S500      1.0  0.43413  0.60713  0.62620  1.0000
  S   S501      1.0  0.43184  0.66428  0.63175  1.0000
  S   S502      1.0  0.44246  0.64290  0.61138  1.0000
  H   H2175     1.0  0.41425  0.63226  0.48414  1.0000
  Fe  Fe253     1.0  0.39629  0.70833  0.70255  1.0000
  S   S503      1.0  0.41628  0.69977  0.68929  1.0000
  C   C1807     1.0  0.37856  0.52541  0.69669  1.0000
  C   C1808     1.0  0.41420  0.60699  0.59296  1.0000
  C   C1809     1.0  0.44314  0.65910  0.69128  1.0000
  H   H2176     1.0  0.39508  0.69925  0.52245  1.0000
  H   H2177     1.0  0.47852  0.63542  0.64362  1.0000
  S   S504      1.0  0.37796  0.70177  0.70179  1.0000
  C   C1810     1.0  0.27010  0.62357  0.70905  1.0000
  C   C1811     1.0  0.24986  0.71979  0.66730  1.0000
  H   H2178     1.0  0.38774  0.69674  0.61037  1.0000
  H   H2179     1.0  0.31609  0.69812  0.52434  1.0000
  Fe  Fe254     1.0  0.30548  0.64285  0.69938  1.0000
  S   S505      1.0  0.29770  0.64339  0.68129  1.0000
  S   S506      1.0  0.32602  0.62946  0.70146  1.0000
  Fe  Fe255     1.0  0.32682  0.71462  0.61332  1.0000
  C   C1812     1.0  0.40985  0.69595  0.56845  1.0000
  S   S507      1.0  0.34509  0.70902  0.59665  1.0000
  Fe  Fe256     1.0  0.30014  0.70772  0.63101  1.0000
  S   S508      1.0  0.28581  0.69425  0.63420  1.0000
  S   S509      1.0  0.32199  0.69686  0.62975  1.0000
  C   C1813     1.0  0.28783  0.68097  0.64842  1.0000
  C   C1814     1.0  0.29494  0.68144  0.65775  1.0000
  C   C1815     1.0  0.29720  0.67033  0.66859  1.0000
  C   C1816     1.0  0.29288  0.65851  0.66971  1.0000
  C   C1817     1.0  0.28549  0.65820  0.66058  1.0000
  C   C1818     1.0  0.28282  0.66946  0.65007  1.0000
  H   H2180     1.0  0.29876  0.69033  0.65661  1.0000
  H   H2181     1.0  0.30253  0.67083  0.67584  1.0000
  H   H2182     1.0  0.28204  0.64911  0.66146  1.0000
  H   H2183     1.0  0.27725  0.66906  0.64296  1.0000
  H   H2184     1.0  0.45041  0.69510  0.66612  1.0000
  C   C1819     1.0  0.36416  0.66429  0.71075  1.0000
  H   H2185     1.0  0.32467  0.69455  0.72654  1.0000
  H   H2186     1.0  0.37125  0.66240  0.70136  1.0000
  H   H2187     1.0  0.34562  0.50040  0.70651  1.0000
  C   C1820     1.0  0.46163  0.69051  0.66387  1.0000
  H   H2188     1.0  0.35130  0.69057  0.67807  1.0000
  H   H2189     1.0  0.27129  0.69117  0.69635  1.0000
  C   C1821     1.0  0.41407  0.66328  0.67481  1.0000
  C   C1822     1.0  0.42243  0.67215  0.66663  1.0000
  C   C1823     1.0  0.42284  0.68347  0.67104  1.0000
  C   C1824     1.0  0.41513  0.68583  0.68376  1.0000
  C   C1825     1.0  0.40683  0.67692  0.69200  1.0000
  C   C1826     1.0  0.40623  0.66571  0.68750  1.0000
  H   H2190     1.0  0.42876  0.67019  0.65702  1.0000
  H   H2191     1.0  0.42916  0.69040  0.66463  1.0000
  H   H2192     1.0  0.40109  0.67848  0.70198  1.0000
  H   H2193     1.0  0.39981  0.65886  0.69394  1.0000
  C   C1827     1.0  0.36263  0.64766  0.49865  1.0000
  C   C1828     1.0  0.36399  0.65192  0.48450  1.0000
  H   H2194     1.0  0.42052  0.62308  0.60470  1.0000
  C   C1829     1.0  0.34822  0.63842  0.48499  1.0000
  C   C1830     1.0  0.34695  0.63407  0.49913  1.0000
  C   C1831     1.0  0.35418  0.63858  0.50593  1.0000
  C   C1832     1.0  0.32530  0.66835  0.50259  1.0000
  H   H2195     1.0  0.34028  0.62720  0.50486  1.0000
  H   H2196     1.0  0.35309  0.63511  0.51681  1.0000
  C   C1833     1.0  0.40388  0.66257  0.56772  1.0000
  C   C1834     1.0  0.39184  0.66647  0.57716  1.0000
  C   C1835     1.0  0.39257  0.66862  0.58955  1.0000
  C   C1836     1.0  0.40533  0.66649  0.59275  1.0000
  C   C1837     1.0  0.41736  0.66218  0.58350  1.0000
  C   C1838     1.0  0.41662  0.66042  0.57094  1.0000
  H   H2197     1.0  0.38199  0.66824  0.57473  1.0000
  H   H2198     1.0  0.38323  0.67206  0.59662  1.0000
  H   H2199     1.0  0.42724  0.66062  0.58583  1.0000
  H   H2200     1.0  0.42598  0.65748  0.56364  1.0000
  C   C1839     1.0  0.33766  0.68213  0.57298  1.0000
  C   C1840     1.0  0.35101  0.68205  0.57333  1.0000
  C   C1841     1.0  0.35322  0.69046  0.58047  1.0000
  C   C1842     1.0  0.34209  0.69896  0.58735  1.0000
  C   C1843     1.0  0.32873  0.69910  0.58696  1.0000
  C   C1844     1.0  0.32652  0.69078  0.57968  1.0000
  H   H2201     1.0  0.35963  0.67540  0.56820  1.0000
  H   H2202     1.0  0.36356  0.69017  0.58090  1.0000
  H   H2203     1.0  0.32008  0.70566  0.59222  1.0000
  H   H2204     1.0  0.31617  0.69092  0.57943  1.0000
  C   C1845     1.0  0.39649  0.59042  0.65181  1.0000
  C   C1846     1.0  0.40431  0.58543  0.64029  1.0000
  C   C1847     1.0  0.41598  0.59047  0.63254  1.0000
  C   C1848     1.0  0.41966  0.60069  0.63612  1.0000
  C   C1849     1.0  0.41172  0.60573  0.64757  1.0000
  C   C1850     1.0  0.40020  0.60060  0.65537  1.0000
  H   H2205     1.0  0.40155  0.57752  0.63752  1.0000
  H   H2206     1.0  0.42221  0.58638  0.62382  1.0000
  H   H2207     1.0  0.41460  0.61340  0.65057  1.0000
  H   H2208     1.0  0.39402  0.60466  0.66408  1.0000
  C   C1851     1.0  0.35169  0.59482  0.60692  1.0000
  C   C1852     1.0  0.36493  0.58703  0.60333  1.0000
  C   C1853     1.0  0.37351  0.59117  0.59080  1.0000
  C   C1854     1.0  0.36907  0.60335  0.58203  1.0000
  C   C1855     1.0  0.35597  0.61136  0.58573  1.0000
  C   C1856     1.0  0.34721  0.60698  0.59810  1.0000
  H   H2209     1.0  0.36857  0.57773  0.61005  1.0000
  H   H2210     1.0  0.38367  0.58500  0.58796  1.0000
  H   H2211     1.0  0.35250  0.62076  0.57892  1.0000
  H   H2212     1.0  0.33695  0.61301  0.60083  1.0000
  C   C1857     1.0  0.32563  0.57103  0.69993  1.0000
  C   C1858     1.0  0.32856  0.58398  0.69525  1.0000
  C   C1859     1.0  0.32614  0.59241  0.70442  1.0000
  H   H2213     1.0  0.37790  0.72116  0.61212  1.0000
  N   N121      1.0  0.32810  0.67863  0.52037  1.0000
  C   C1860     1.0  0.32053  0.56648  0.71381  1.0000
  H   H2214     1.0  0.33242  0.58761  0.68454  1.0000
  H   H2215     1.0  0.32828  0.60241  0.70070  1.0000
  C   C1861     1.0  0.39895  0.62753  0.58416  1.0000
  H   H2216     1.0  0.39183  0.63723  0.58619  1.0000
  C   C1862     1.0  0.36594  0.51475  0.64403  1.0000
  C   C1863     1.0  0.35176  0.51828  0.64496  1.0000
  C   C1864     1.0  0.34502  0.50897  0.64361  1.0000
  C   C1865     1.0  0.35232  0.49600  0.64137  1.0000
  H   H2217     1.0  0.32869  0.61177  0.65216  1.0000
  C   C1866     1.0  0.37322  0.50173  0.64195  1.0000
  H   H2218     1.0  0.34594  0.52818  0.64664  1.0000
  H   H2219     1.0  0.33409  0.51187  0.64413  1.0000
  S   S510      1.0  0.30843  0.65937  0.70723  1.0000
  C   C1867     1.0  0.25835  0.71670  0.65516  1.0000
  N   N122      1.0  0.35092  0.51423  0.68751  1.0000
  C   C1868     1.0  0.34367  0.52461  0.67760  1.0000
  C   C1869     1.0  0.36045  0.50366  0.68028  1.0000
  C   C1870     1.0  0.35787  0.52093  0.69348  1.0000
  C   C1871     1.0  0.45012  0.64573  0.67416  1.0000
  H   H2220     1.0  0.40834  0.60065  0.59096  1.0000
  H   H2221     1.0  0.43727  0.64031  0.69389  1.0000
  H   H2222     1.0  0.46430  0.67260  0.64048  1.0000
  H   H2223     1.0  0.37902  0.61653  0.50754  1.0000
  H   H2224     1.0  0.35106  0.52978  0.66933  1.0000
  S   S511      1.0  0.35335  0.73413  0.68520  1.0000
  H   H2225     1.0  0.33828  0.52005  0.67281  1.0000
  H   H2226     1.0  0.37146  0.69528  0.60915  1.0000
  H   H2227     1.0  0.28400  0.61697  0.69143  1.0000
  H   H2228     1.0  0.39300  0.62144  0.58188  1.0000
  H   H2229     1.0  0.38770  0.61904  0.71454  1.0000
  H   H2230     1.0  0.32631  0.67621  0.70807  1.0000
  H   H2231     1.0  0.40040  0.62863  0.62049  1.0000
  N   N123      1.0  0.37081  0.70390  0.62589  1.0000
  C   C1872     1.0  0.37772  0.69450  0.61649  1.0000
  C   C1873     1.0  0.35752  0.70029  0.63329  1.0000
  C   C1874     1.0  0.39185  0.69434  0.63628  1.0000
  C   C1875     1.0  0.27998  0.69261  0.69912  1.0000
  C   C1876     1.0  0.30329  0.67123  0.49752  1.0000
  H   H2232     1.0  0.35100  0.70787  0.63933  1.0000
  H   H2233     1.0  0.35148  0.69989  0.62623  1.0000
  H   H2234     1.0  0.35900  0.69024  0.64048  1.0000
  H   H2235     1.0  0.39685  0.68764  0.62929  1.0000
  H   H2236     1.0  0.40881  0.68692  0.64623  1.0000
  H   H2237     1.0  0.37352  0.69583  0.53685  1.0000
  H   H2238     1.0  0.31821  0.55650  0.71750  1.0000
  H   H2239     1.0  0.33897  0.53344  0.70312  1.0000
  C   C1877     1.0  0.37341  0.71158  0.64555  1.0000
  C   C1878     1.0  0.33842  0.70742  0.66723  1.0000
  H   H2240     1.0  0.35004  0.54546  0.71211  1.0000
  H   H2241     1.0  0.36232  0.71867  0.60979  1.0000
  H   H2242     1.0  0.33984  0.66668  0.53523  1.0000
  C   C1879     1.0  0.35004  0.53072  0.70133  1.0000
  C   C1880     1.0  0.39475  0.61783  0.60836  1.0000
  H   H2243     1.0  0.32747  0.68932  0.53555  1.0000
  S   S512      1.0  0.34835  0.65109  0.70473  1.0000
  C   C1881     1.0  0.37543  0.60711  0.62119  1.0000
  H   H2244     1.0  0.30957  0.70316  0.68444  1.0000
  H   H2245     1.0  0.48291  0.66894  0.66685  1.0000
  H   H2246     1.0  0.41365  0.69185  0.54898  1.0000
  N   N124      1.0  0.38765  0.70371  0.54256  1.0000
  N   N125      1.0  0.31568  0.69663  0.70964  1.0000
  C   C1882     1.0  0.45014  0.66885  0.68242  1.0000
  H   H2247     1.0  0.33612  0.66380  0.50051  1.0000
  S   S513      1.0  0.30469  0.72465  0.61303  1.0000
  C   C1883     1.0  0.38359  0.61719  0.48604  1.0000
  H   H2248     1.0  0.36729  0.60930  0.64189  1.0000
  C   C1884     1.0  0.48639  0.64124  0.63925  1.0000
  C   C1885     1.0  0.39691  0.62452  0.49711  1.0000
  H   H2249     1.0  0.40358  0.70043  0.58831  1.0000
  H   H2250     1.0  0.25994  0.70675  0.65305  1.0000
  C   C1886     1.0  0.29715  0.67933  0.50709  1.0000
  Fe  Fe257     1.0  0.37969  0.72750  0.72139  1.0000
  H   H2251     1.0  0.34089  0.65833  0.52218  1.0000
  N   N126      1.0  0.34167  0.65439  0.66191  1.0000
  C   C1887     1.0  0.33285  0.65788  0.67482  1.0000
  C   C1888     1.0  0.33428  0.66208  0.65100  1.0000
  C   C1889     1.0  0.34320  0.63961  0.66319  1.0000
  C   C1890     1.0  0.35537  0.65764  0.65855  1.0000
  C   C1891     1.0  0.35940  0.66398  0.66672  1.0000
  C   C1892     1.0  0.36517  0.65449  0.64670  1.0000
  C   C1893     1.0  0.37253  0.66661  0.66337  1.0000
  C   C1894     1.0  0.37825  0.65724  0.64342  1.0000
  C   C1895     1.0  0.38197  0.66312  0.65183  1.0000
  H   H2252     1.0  0.33046  0.66900  0.67442  1.0000
  H   H2253     1.0  0.32286  0.65487  0.67730  1.0000
  H   H2254     1.0  0.33776  0.65241  0.68347  1.0000
  H   H2255     1.0  0.33315  0.67322  0.64971  1.0000
  H   H2256     1.0  0.32376  0.66019  0.65342  1.0000
  H   H2257     1.0  0.33963  0.65929  0.64110  1.0000
  H   H2258     1.0  0.34923  0.63349  0.67094  1.0000
  H   H2259     1.0  0.33303  0.63673  0.66645  1.0000
  H   H2260     1.0  0.34835  0.63628  0.65348  1.0000
  H   H2261     1.0  0.35261  0.66699  0.67579  1.0000
  H   H2262     1.0  0.36280  0.64984  0.63991  1.0000
  H   H2263     1.0  0.37545  0.67132  0.66983  1.0000
  H   H2264     1.0  0.38559  0.65477  0.63431  1.0000
  H   H2265     1.0  0.39222  0.66498  0.64945  1.0000
  N   N127      1.0  0.38630  0.62129  0.69391  1.0000
  C   C1896     1.0  0.40114  0.61595  0.68860  1.0000
  C   C1897     1.0  0.38109  0.63234  0.68312  1.0000
  C   C1898     1.0  0.38522  0.62716  0.70565  1.0000
  C   C1899     1.0  0.37803  0.61081  0.69791  1.0000
  C   C1900     1.0  0.38290  0.59830  0.69348  1.0000
  C   C1901     1.0  0.36436  0.61325  0.70576  1.0000
  C   C1902     1.0  0.37460  0.58893  0.69675  1.0000
  H   H2266     1.0  0.26495  0.63277  0.70309  1.0000
  C   C1903     1.0  0.36135  0.59156  0.70467  1.0000
  C   C1904     1.0  0.28770  0.60294  0.70997  1.0000
  H   H2267     1.0  0.40728  0.62372  0.68660  1.0000
  H   H2268     1.0  0.40544  0.60699  0.69595  1.0000
  H   H2269     1.0  0.38196  0.62848  0.67398  1.0000
  H   H2270     1.0  0.38691  0.64056  0.67987  1.0000
  H   H2271     1.0  0.33583  0.53265  0.68230  1.0000
  C   C1905     1.0  0.28096  0.68900  0.71267  1.0000
  H   H2272     1.0  0.39227  0.63421  0.70312  1.0000
  H   H2273     1.0  0.37485  0.63344  0.70894  1.0000
  H   H2274     1.0  0.39303  0.59552  0.68732  1.0000
  C   C1906     1.0  0.33404  0.72156  0.66398  1.0000
  H   H2275     1.0  0.37842  0.57963  0.69293  1.0000
  C   C1907     1.0  0.40588  0.69656  0.55659  1.0000
  H   H2276     1.0  0.38968  0.72444  0.53476  1.0000
  Fe  Fe258     1.0  0.32175  0.70906  0.64417  1.0000
  C   C1908     1.0  0.35207  0.65947  0.71514  1.0000
  H   H2277     1.0  0.46556  0.68891  0.67314  1.0000
  H   H2278     1.0  0.32849  0.68827  0.69245  1.0000
  C   C1909     1.0  0.37678  0.69597  0.54603  1.0000
  H   H2279     1.0  0.38048  0.68521  0.55105  1.0000
  C   C1910     1.0  0.39224  0.70271  0.55500  1.0000
  H   H2280     1.0  0.40731  0.70375  0.52851  1.0000
  H   H2281     1.0  0.29612  0.59604  0.70480  1.0000
  S   S514      1.0  0.32835  0.72619  0.62769  1.0000
  H   H2282     1.0  0.36611  0.49537  0.68721  1.0000
  S   S515      1.0  0.29940  0.71863  0.64682  1.0000
  H   H2283     1.0  0.38297  0.62364  0.64075  1.0000
  H   H2284     1.0  0.34213  0.63329  0.61174  1.0000
  C   C1911     1.0  0.38340  0.62013  0.63182  1.0000
  H   H2285     1.0  0.34410  0.61258  0.62941  1.0000
  H   H2286     1.0  0.36182  0.72547  0.62371  1.0000
  H   H2287     1.0  0.35494  0.58426  0.70718  1.0000
  H   H2288     1.0  0.37220  0.71244  0.56582  1.0000
  H   H2289     1.0  0.39876  0.70162  0.66304  1.0000
  H   H2290     1.0  0.37901  0.71936  0.52708  1.0000
  C   C1912     1.0  0.38062  0.71101  0.65516  1.0000
  H   H2291     1.0  0.37537  0.54062  0.70813  1.0000
  C   C1913     1.0  0.32749  0.68682  0.70353  1.0000
  S   S516      1.0  0.47153  0.65545  0.61934  1.0000
  C   C1914     1.0  0.36813  0.71789  0.61752  1.0000
  C   C1915     1.0  0.40576  0.62793  0.48464  1.0000
  C   C1916     1.0  0.39880  0.69828  0.53171  1.0000
  C   C1917     1.0  0.26478  0.72645  0.64568  1.0000
  H   H2292     1.0  0.37464  0.61330  0.48733  1.0000
  C   C1918     1.0  0.34776  0.72374  0.67826  1.0000
  H   H2293     1.0  0.40311  0.61310  0.67866  1.0000
  H   H2294     1.0  0.36302  0.49488  0.60853  1.0000
  H   H2295     1.0  0.36351  0.71857  0.64591  1.0000
  H   H2296     1.0  0.29716  0.66913  0.49185  1.0000
  C   C1919     1.0  0.33383  0.66540  0.52860  1.0000
  H   H2297     1.0  0.42269  0.60841  0.58383  1.0000
  C   C1920     1.0  0.30309  0.69572  0.70634  1.0000
  C   C1921     1.0  0.44306  0.64762  0.68714  1.0000
  C   C1922     1.0  0.38526  0.61004  0.60926  1.0000
  H   H2298     1.0  0.28959  0.70056  0.67856  1.0000
  H   H2299     1.0  0.33211  0.51503  0.70309  1.0000
  H   H2300     1.0  0.36869  0.60064  0.62181  1.0000
  C   C1923     1.0  0.30169  0.69938  0.69263  1.0000
  C   C1924     1.0  0.29030  0.69786  0.68912  1.0000
  C   C1925     1.0  0.37879  0.70324  0.63581  1.0000
  C   C1926     1.0  0.38285  0.70790  0.56610  1.0000
  Fe  Fe259     1.0  0.32803  0.64498  0.71137  1.0000
  C   C1927     1.0  0.48550  0.65133  0.62742  1.0000
  H   H2301     1.0  0.41893  0.60101  0.60170  1.0000
  H   H2302     1.0  0.37654  0.67519  0.71506  1.0000
  H   H2303     1.0  0.37947  0.71112  0.58626  1.0000
  S   S517      1.0  0.29442  0.63287  0.71958  1.0000
  C   C1928     1.0  0.34770  0.70148  0.67568  1.0000
  N   N128      1.0  0.35346  0.54850  0.60740  1.0000
  C   C1929     1.0  0.33869  0.55532  0.61058  1.0000
  C   C1930     1.0  0.35979  0.55002  0.61775  1.0000
  C   C1931     1.0  0.35981  0.55580  0.59387  1.0000
  C   C1932     1.0  0.35585  0.53390  0.60737  1.0000
  C   C1933     1.0  0.36941  0.52577  0.60554  1.0000
  C   C1934     1.0  0.34502  0.52731  0.60926  1.0000
  C   C1935     1.0  0.37194  0.51189  0.60584  1.0000
  C   C1936     1.0  0.34770  0.51343  0.60949  1.0000
  C   C1937     1.0  0.36110  0.50573  0.60783  1.0000
  H   H2304     1.0  0.33334  0.55525  0.60280  1.0000
  H   H2305     1.0  0.33338  0.55043  0.62080  1.0000
  H   H2306     1.0  0.33726  0.56622  0.61078  1.0000
  H   H2307     1.0  0.35654  0.54334  0.62771  1.0000
  H   H2308     1.0  0.35678  0.56060  0.61931  1.0000
  H   H2309     1.0  0.37119  0.54734  0.61506  1.0000
  H   H2310     1.0  0.35796  0.56690  0.59342  1.0000
  H   H2311     1.0  0.37112  0.55201  0.59122  1.0000
  H   H2312     1.0  0.35557  0.55460  0.58575  1.0000
  H   H2313     1.0  0.37815  0.53003  0.60414  1.0000
  H   H2314     1.0  0.33437  0.53254  0.61089  1.0000
  H   H2315     1.0  0.40309  0.68724  0.53507  1.0000
  H   H2316     1.0  0.36741  0.70030  0.55305  1.0000
  H   H2317     1.0  0.38232  0.50578  0.60486  1.0000
  H   H2318     1.0  0.44989  0.63686  0.67091  1.0000
  C   C1938     1.0  0.38200  0.71816  0.53681  1.0000
  C   C1939     1.0  0.38597  0.61901  0.49782  1.0000
  H   H2319     1.0  0.34611  0.68665  0.51667  1.0000
  C   C1940     1.0  0.39891  0.69380  0.64602  1.0000
  C   C1941     1.0  0.37454  0.61208  0.63247  1.0000
  C   C1942     1.0  0.32059  0.68787  0.52986  1.0000
  H   H2320     1.0  0.31232  0.68361  0.53778  1.0000
  C   C1943     1.0  0.24782  0.73263  0.67004  1.0000
  C   C1944     1.0  0.35627  0.60365  0.70924  1.0000
  H   H2321     1.0  0.42249  0.63023  0.58693  1.0000
  H   H2322     1.0  0.33582  0.69412  0.50410  1.0000
  H   H2323     1.0  0.32556  0.66025  0.53530  1.0000
  H   H2324     1.0  0.38559  0.60590  0.60079  1.0000
  S   S518      1.0  0.33201  0.69700  0.66125  1.0000
  C   C1945     1.0  0.46054  0.68116  0.64588  1.0000
  H   H2325     1.0  0.34680  0.67748  0.50457  1.0000
  C   C1946     1.0  0.30503  0.68193  0.51452  1.0000
  C   C1947     1.0  0.31943  0.67647  0.51247  1.0000
  C   C1948     1.0  0.31826  0.71054  0.70402  1.0000
  C   C1949     1.0  0.33964  0.68450  0.51102  1.0000
  N   N129      1.0  0.46449  0.67764  0.65919  1.0000
  H   H2326     1.0  0.43736  0.66071  0.70128  1.0000
  C   C1950     1.0  0.26631  0.62094  0.72326  1.0000
  C   C1951     1.0  0.35213  0.70960  0.68138  1.0000
  H   H2327     1.0  0.31104  0.63214  0.65733  1.0000
  H   H2328     1.0  0.37012  0.63713  0.68662  1.0000
  H   H2329     1.0  0.29958  0.68817  0.52184  1.0000
  C   C1952     1.0  0.37054  0.53504  0.70424  1.0000
  C   C1953     1.0  0.28084  0.61466  0.70243  1.0000
  N   N130      1.0  0.32392  0.65787  0.61329  1.0000
  C   C1954     1.0  0.32077  0.65489  0.60161  1.0000
  C   C1955     1.0  0.31293  0.66942  0.61760  1.0000
  C   C1956     1.0  0.33707  0.66240  0.60865  1.0000
  C   C1957     1.0  0.32522  0.64543  0.62417  1.0000
  C   C1958     1.0  0.31660  0.64462  0.63742  1.0000
  C   C1959     1.0  0.33532  0.63356  0.62162  1.0000
  C   C1960     1.0  0.31796  0.63263  0.64738  1.0000
  C   C1961     1.0  0.33659  0.62164  0.63168  1.0000
  C   C1962     1.0  0.32790  0.62115  0.64451  1.0000
  H   H2330     1.0  0.31139  0.65066  0.60486  1.0000
  H   H2331     1.0  0.31898  0.66418  0.59350  1.0000
  H   H2332     1.0  0.32926  0.64747  0.59664  1.0000
  H   H2333     1.0  0.30259  0.66698  0.62065  1.0000
  H   H2334     1.0  0.31231  0.67868  0.60926  1.0000
  H   H2335     1.0  0.31467  0.67245  0.62621  1.0000
  H   H2336     1.0  0.34557  0.65506  0.60359  1.0000
  H   H2337     1.0  0.33624  0.67216  0.60109  1.0000
  H   H2338     1.0  0.34022  0.66405  0.61722  1.0000
  H   H2339     1.0  0.30857  0.65304  0.64030  1.0000
  C   C1963     1.0  0.31851  0.57472  0.72300  1.0000
  H   H2340     1.0  0.46242  0.65347  0.65528  1.0000
  Fe  Fe260     1.0  0.36756  0.72368  0.69954  1.0000
  C   C1964     1.0  0.41470  0.62836  0.59659  1.0000
  C   C1965     1.0  0.45716  0.66742  0.66896  1.0000
  H   H2341     1.0  0.37632  0.71752  0.66249  1.0000
  H   H2342     1.0  0.44920  0.68421  0.64715  1.0000
  H   H2343     1.0  0.37950  0.68372  0.62210  1.0000
  N   N131      1.0  0.40549  0.62020  0.59579  1.0000
  H   H2344     1.0  0.40884  0.63848  0.59860  1.0000
  H   H2345     1.0  0.30636  0.70042  0.72976  1.0000
  H   H2346     1.0  0.28618  0.68353  0.50882  1.0000
  H   H2347     1.0  0.32043  0.71323  0.69276  1.0000
  H   H2348     1.0  0.37925  0.51139  0.68529  1.0000
  H   H2349     1.0  0.35893  0.70485  0.68816  1.0000
  H   H2350     1.0  0.44941  0.67765  0.68624  1.0000
  C   C1966     1.0  0.39329  0.70208  0.65546  1.0000
  H   H2351     1.0  0.30930  0.71832  0.70783  1.0000
  H   H2352     1.0  0.36804  0.50806  0.67157  1.0000
  H   H2353     1.0  0.33931  0.50841  0.61148  1.0000
  C   C1967     1.0  0.32115  0.58778  0.71835  1.0000
  C   C1968     1.0  0.40041  0.70122  0.57909  1.0000
  C   C1969     1.0  0.39347  0.62290  0.62002  1.0000
  H   H2354     1.0  0.46671  0.69825  0.65609  1.0000
  H   H2355     1.0  0.40667  0.63012  0.57461  1.0000
  S   S519      1.0  0.38636  0.73065  0.69859  1.0000
  H   H2356     1.0  0.35970  0.62262  0.70921  1.0000
  H   H2357     1.0  0.46499  0.68963  0.63870  1.0000
  H   H2358     1.0  0.48240  0.66256  0.65294  1.0000
  H   H2359     1.0  0.38965  0.52354  0.69472  1.0000
  C   C1970     1.0  0.45716  0.65540  0.66522  1.0000
  C   C1971     1.0  0.47946  0.67186  0.65711  1.0000
  H   H2360     1.0  0.48549  0.67912  0.64981  1.0000
  H   H2361     1.0  0.37262  0.72268  0.54373  1.0000
  Fe  Fe261     1.0  0.29901  0.64818  0.72782  1.0000
  H   H2362     1.0  0.32681  0.72624  0.65748  1.0000
  C   C1972     1.0  0.37239  0.51845  0.69132  1.0000
  C   C1973     1.0  0.35630  0.53770  0.70655  1.0000
  C   C1974     1.0  0.36705  0.67177  0.71836  1.0000
  C   C1975     1.0  0.34072  0.50758  0.69833  1.0000
  C   C1976     1.0  0.29230  0.69051  0.71630  1.0000
  Fe  Fe262     1.0  0.31519  0.62051  0.72217  1.0000
  H   H2363     1.0  0.33595  0.50173  0.69425  1.0000
  H   H2364     1.0  0.32211  0.65934  0.48789  1.0000
  H   H2365     1.0  0.39839  0.62633  0.50623  1.0000
  C   C1977     1.0  0.31734  0.66575  0.49528  1.0000
  S   S520      1.0  0.35999  0.72237  0.72191  1.0000
  H   H2366     1.0  0.27134  0.72401  0.63621  1.0000
  H   H2367     1.0  0.32742  0.71168  0.70676  1.0000
  C   C1978     1.0  0.36646  0.49238  0.64066  1.0000
  H   H2368     1.0  0.33737  0.68763  0.70506  1.0000
  C   C1979     1.0  0.33877  0.72971  0.66945  1.0000
  H   H2369     1.0  0.42025  0.69100  0.56955  1.0000
  H   H2370     1.0  0.24476  0.71220  0.67459  1.0000
  C   C1980     1.0  0.38691  0.70716  0.57794  1.0000
  H   H2371     1.0  0.35495  0.49889  0.67579  1.0000
  C   C1981     1.0  0.34303  0.66183  0.72736  1.0000
  H   H2372     1.0  0.29250  0.68712  0.72696  1.0000
  H   H2373     1.0  0.27305  0.68464  0.72043  1.0000
  H   H2374     1.0  0.34593  0.60562  0.71543  1.0000
  H   H2375     1.0  0.24100  0.73438  0.67956  1.0000
  C   C1982     1.0  0.31513  0.69348  0.72446  1.0000
  Fe  Fe263     1.0  0.37187  0.70085  0.72416  1.0000
  S   S521      1.0  0.39119  0.70563  0.72536  1.0000
  C   C1983     1.0  0.28401  0.60022  0.72416  1.0000
  H   H2376     1.0  0.25810  0.62844  0.72769  1.0000
  S   S522      1.0  0.34340  0.48504  0.63890  1.0000
  H   H2377     1.0  0.28983  0.59110  0.72952  1.0000
  H   H2378     1.0  0.31429  0.68278  0.72926  1.0000
  S   S523      1.0  0.31805  0.59793  0.73025  1.0000
  Fe  Fe264     1.0  0.30575  0.73487  0.62888  1.0000
  C   C1984     1.0  0.35780  0.67466  0.73030  1.0000
  Fe  Fe265     1.0  0.19877  0.64998  0.80170  1.0000
  S   S524      1.0  0.19158  0.64748  0.82423  1.0000
  S   S525      1.0  0.18487  0.66181  0.78764  1.0000
  Fe  Fe266     1.0  0.22741  0.63377  0.80270  1.0000
  S   S526      1.0  0.22262  0.62947  0.82546  1.0000
  S   S527      1.0  0.24911  0.62472  0.79251  1.0000
  Fe  Fe267     1.0  0.20272  0.62580  0.82482  1.0000
  S   S528      1.0  0.19347  0.61073  0.84234  1.0000
  Fe  Fe268     1.0  0.21188  0.65133  0.82339  1.0000
  S   S529      1.0  0.21389  0.66040  0.83953  1.0000
  S   S530      1.0  0.20840  0.62786  0.80216  1.0000
  S   S531      1.0  0.21810  0.65614  0.80061  1.0000
  H   H2379     1.0  0.99667  0.63543  0.88124  1.0000
  S   S532      1.0  0.15009  0.72042  0.82699  1.0000
  S   S533      1.0  0.17078  0.72422  0.78787  1.0000
  Fe  Fe269     1.0  0.13122  0.71433  0.82645  1.0000
  S   S534      1.0  0.12757  0.69399  0.83923  1.0000
  S   S535      1.0  0.13453  0.71970  0.80374  1.0000
  N   N132      1.0  0.19651  0.73217  0.81376  1.0000
  S   S536      1.0  0.20631  0.72047  0.86014  1.0000
  S   S537      1.0  0.23337  0.71520  0.82691  1.0000
  H   H2380     1.0  0.08974  0.56258  0.89685  1.0000
  C   C1985     1.0  0.09075  0.56832  0.90386  1.0000
  C   C1986     1.0  0.09872  0.50270  0.87031  1.0000
  Fe  Fe270     1.0  0.21792  0.71517  0.87655  1.0000
  S   S538      1.0  0.21461  0.69643  0.89305  1.0000
  H   H2381     1.0  0.08733  0.60111  0.90488  1.0000
  H   H2382     1.0  0.11394  0.54206  0.82091  1.0000
  S   S539      1.0  0.23860  0.71658  0.86236  1.0000
  H   H2383     1.0  0.10017  0.58653  0.90866  1.0000
  C   C1987     1.0  0.04177  0.59516  0.90155  1.0000
  C   C1988     1.0  0.10062  0.68551  0.88381  1.0000
  N   N133      1.0  0.10148  0.53045  0.83777  1.0000
  Fe  Fe271     1.0  0.14851  0.63795  0.94060  1.0000
  C   C1989     1.0  0.18875  0.68428  0.93249  1.0000
  H   H2384     1.0  0.09402  0.67320  0.80961  1.0000
  Fe  Fe272     1.0  0.15417  0.65715  0.91286  1.0000
  S   S540      1.0  0.13733  0.65883  0.93161  1.0000
  S   S541      1.0  0.16077  0.67600  0.89897  1.0000
  Fe  Fe273     1.0  0.15351  0.62765  0.91456  1.0000
  S   S542      1.0  0.16304  0.61193  0.90154  1.0000
  Fe  Fe274     1.0  0.12720  0.64774  0.92303  1.0000
  S   S543      1.0  0.10576  0.65592  0.91939  1.0000
  S   S544      1.0  0.14313  0.64769  0.90377  1.0000
  S   S545      1.0  0.16613  0.63707  0.92213  1.0000
  Fe  Fe275     1.0  0.11858  0.56239  0.85735  1.0000
  S   S546      1.0  0.11967  0.55035  0.87828  1.0000
  S   S547      1.0  0.09916  0.56796  0.84991  1.0000
  Fe  Fe276     1.0  0.14875  0.56243  0.84948  1.0000
  S   S548      1.0  0.15261  0.54993  0.86981  1.0000
  S   S549      1.0  0.16352  0.57138  0.83133  1.0000
  Fe  Fe277     1.0  0.13886  0.53744  0.86802  1.0000
  S   S550      1.0  0.14093  0.51449  0.87481  1.0000
  Fe  Fe278     1.0  0.13310  0.56389  0.87815  1.0000
  S   S551      1.0  0.12749  0.57422  0.89592  1.0000
  S   S552      1.0  0.13679  0.54881  0.84699  1.0000
  S   S553      1.0  0.13017  0.57709  0.85795  1.0000
  Fe  Fe279     1.0  0.06481  0.66436  0.85305  1.0000
  S   S554      1.0  0.05539  0.65458  0.87432  1.0000
  S   S555      1.0  0.06796  0.68576  0.84539  1.0000
  Fe  Fe280     1.0  0.07132  0.63881  0.84267  1.0000
  S   S556      1.0  0.06304  0.62656  0.86293  1.0000
  S   S557      1.0  0.08072  0.62974  0.82436  1.0000
  Fe  Fe281     1.0  0.04537  0.64471  0.86412  1.0000
  S   S558      1.0  0.02350  0.64138  0.87265  1.0000
  Fe  Fe282     1.0  0.07365  0.63731  0.87125  1.0000
  S   S559      1.0  0.08831  0.62532  0.88475  1.0000
  S   S560      1.0  0.05312  0.65626  0.84314  1.0000
  S   S561      1.0  0.08359  0.64769  0.85077  1.0000
  H   H2385     1.0  0.10626  0.53869  0.85858  1.0000
  C   C1990     1.0  0.13763  0.50512  0.86482  1.0000
  C   C1991     1.0  0.13437  0.49235  0.87088  1.0000
  C   C1992     1.0  0.10415  0.52867  0.86140  1.0000
  C   C1993     1.0  0.13075  0.49058  0.84957  1.0000
  C   C1994     1.0  0.13485  0.50290  0.84335  1.0000
  C   C1995     1.0  0.13814  0.51020  0.85095  1.0000
  H   H2386     1.0  0.09676  0.50419  0.85048  1.0000
  H   H2387     1.0  0.14171  0.67170  0.87975  1.0000
  H   H2388     1.0  0.13532  0.50690  0.83262  1.0000
  H   H2389     1.0  0.14116  0.51974  0.84608  1.0000
  C   C1996     1.0  0.09607  0.58509  0.84166  1.0000
  C   C1997     1.0  0.09105  0.58900  0.82980  1.0000
  C   C1998     1.0  0.08726  0.60282  0.82387  1.0000
  C   C1999     1.0  0.08794  0.61268  0.83016  1.0000
  C   C2000     1.0  0.09320  0.60876  0.84187  1.0000
  C   C2001     1.0  0.09755  0.59496  0.84744  1.0000
  H   H2390     1.0  0.08997  0.58138  0.82527  1.0000
  H   H2391     1.0  0.08317  0.60586  0.81482  1.0000
  H   H2392     1.0  0.09377  0.61637  0.84674  1.0000
  H   H2393     1.0  0.10161  0.59198  0.85646  1.0000
  C   C2002     1.0  0.10103  0.64739  0.90969  1.0000
  C   C2003     1.0  0.10833  0.63436  0.90795  1.0000
  C   C2004     1.0  0.10415  0.62760  0.90049  1.0000
  C   C2005     1.0  0.09308  0.63405  0.89421  1.0000
  C   C2006     1.0  0.08594  0.64718  0.89572  1.0000
  C   C2007     1.0  0.08974  0.65370  0.90369  1.0000
  H   H2394     1.0  0.11693  0.62934  0.91269  1.0000
  H   H2395     1.0  0.10947  0.61731  0.89967  1.0000
  H   H2396     1.0  0.07729  0.65219  0.89105  1.0000
  H   H2397     1.0  0.08389  0.66366  0.90523  1.0000
  C   C2008     1.0  0.15317  0.60126  0.90032  1.0000
  C   C2009     1.0  0.13992  0.60129  0.90831  1.0000
  C   C2010     1.0  0.13226  0.59280  0.90698  1.0000
  C   C2011     1.0  0.13770  0.58436  0.89754  1.0000
  C   C2012     1.0  0.15095  0.58433  0.88954  1.0000
  C   C2013     1.0  0.15866  0.59275  0.89095  1.0000
  H   H2398     1.0  0.13562  0.60775  0.91560  1.0000
  H   H2399     1.0  0.12205  0.59285  0.91327  1.0000
  H   H2400     1.0  0.15531  0.57776  0.88234  1.0000
  H   H2401     1.0  0.16894  0.59260  0.88480  1.0000
  C   C2014     1.0  0.11328  0.64350  0.82361  1.0000
  C   C2015     1.0  0.01055  0.63181  0.84385  1.0000
  C   C2016     1.0  0.01822  0.63637  0.85013  1.0000
  C   C2017     1.0  0.01341  0.63742  0.86374  1.0000
  H   H2402     1.0  0.01454  0.63068  0.83342  1.0000
  H   H2403     1.0  0.02801  0.63874  0.84454  1.0000
  H   H2404     1.0  0.10853  0.65923  0.79186  1.0000
  H   H2405     1.0  0.13579  0.66464  0.83815  1.0000
  H   H2406     1.0  0.16022  0.69379  0.93544  1.0000
  H   H2407     1.0  0.11229  0.54581  0.83672  1.0000
  H   H2408     1.0  0.11673  0.67904  0.90243  1.0000
  C   C2018     1.0  0.19984  0.69048  0.89444  1.0000
  C   C2019     1.0  0.19889  0.67712  0.90137  1.0000
  C   C2020     1.0  0.18702  0.67241  0.90283  1.0000
  C   C2021     1.0  0.17608  0.68105  0.89729  1.0000
  C   C2022     1.0  0.17707  0.69434  0.89038  1.0000
  C   C2023     1.0  0.18881  0.69907  0.88908  1.0000
  H   H2409     1.0  0.20734  0.67044  0.90564  1.0000
  H   H2410     1.0  0.18637  0.66213  0.90817  1.0000
  H   H2411     1.0  0.16860  0.70114  0.88620  1.0000
  H   H2412     1.0  0.18914  0.70950  0.88420  1.0000
  H   H2413     1.0  0.13750  0.64698  0.80006  1.0000
  C   C2024     1.0  0.21009  0.67713  0.94006  1.0000
  S   S562      1.0  0.13681  0.62690  0.93355  1.0000
  H   H2414     1.0  0.07499  0.70443  0.86790  1.0000
  H   H2415     1.0  0.12308  0.53011  0.83296  1.0000
  C   C2025     1.0  0.04942  0.60491  0.89892  1.0000
  H   H2416     1.0  0.26257  0.62720  0.74872  1.0000
  C   C2026     1.0  0.11108  0.69165  0.84074  1.0000
  C   C2027     1.0  0.10187  0.70148  0.83370  1.0000
  C   C2028     1.0  0.08865  0.69958  0.83521  1.0000
  C   C2029     1.0  0.08463  0.68781  0.84366  1.0000
  C   C2030     1.0  0.09388  0.67796  0.85067  1.0000
  C   C2031     1.0  0.10708  0.67989  0.84921  1.0000
  H   H2417     1.0  0.10487  0.71058  0.82714  1.0000
  H   H2418     1.0  0.08152  0.70725  0.82981  1.0000
  H   H2419     1.0  0.09071  0.66912  0.85763  1.0000
  H   H2420     1.0  0.11401  0.67246  0.85498  1.0000
  C   C2032     1.0  0.13115  0.67528  0.87782  1.0000
  C   C2033     1.0  0.27339  0.60926  0.73128  1.0000
  H   H2421     1.0  0.10397  0.58505  0.88425  1.0000
  H   H2422     1.0  0.16913  0.63333  0.82422  1.0000
  C   C2034     1.0  0.18551  0.59967  0.83902  1.0000
  C   C2035     1.0  0.17892  0.59091  0.84997  1.0000
  C   C2036     1.0  0.17198  0.58233  0.84770  1.0000
  C   C2037     1.0  0.17186  0.58228  0.83443  1.0000
  C   C2038     1.0  0.17849  0.59101  0.82347  1.0000
  C   C2039     1.0  0.18521  0.59979  0.82576  1.0000
  H   H2423     1.0  0.17918  0.59075  0.86024  1.0000
  H   H2424     1.0  0.16697  0.57555  0.85619  1.0000
  H   H2425     1.0  0.17843  0.59097  0.81319  1.0000
  H   H2426     1.0  0.19026  0.60653  0.81727  1.0000
  C   C2040     1.0  0.21903  0.67582  0.83551  1.0000
  C   C2041     1.0  0.22281  0.68277  0.82207  1.0000
  C   C2042     1.0  0.22764  0.69468  0.81936  1.0000
  C   C2043     1.0  0.22826  0.69984  0.83011  1.0000
  C   C2044     1.0  0.22424  0.69299  0.84350  1.0000
  C   C2045     1.0  0.21969  0.68099  0.84618  1.0000
  H   H2427     1.0  0.22203  0.67898  0.81379  1.0000
  H   H2428     1.0  0.23076  0.69995  0.80898  1.0000
  H   H2429     1.0  0.22495  0.69672  0.85184  1.0000
  H   H2430     1.0  0.21679  0.67564  0.85660  1.0000
  C   C2046     1.0  0.18133  0.67911  0.78776  1.0000
  C   C2047     1.0  0.17939  0.68329  0.79986  1.0000
  C   C2048     1.0  0.17603  0.69719  0.79994  1.0000
  C   C2049     1.0  0.17519  0.70687  0.78781  1.0000
  C   C2050     1.0  0.17737  0.70268  0.77569  1.0000
  C   C2051     1.0  0.18017  0.68880  0.77572  1.0000
  H   H2431     1.0  0.18018  0.67584  0.80920  1.0000
  H   H2432     1.0  0.17425  0.70040  0.80935  1.0000
  H   H2433     1.0  0.17661  0.71014  0.76633  1.0000
  H   H2434     1.0  0.18166  0.68556  0.76637  1.0000
  C   C2052     1.0  0.25828  0.63493  0.77868  1.0000
  C   C2053     1.0  0.27194  0.62943  0.77294  1.0000
  C   C2054     1.0  0.27936  0.63706  0.76150  1.0000
  C   C2055     1.0  0.27327  0.65038  0.75599  1.0000
  C   C2056     1.0  0.25974  0.65602  0.76198  1.0000
  C   C2057     1.0  0.25220  0.64827  0.77320  1.0000
  H   H2435     1.0  0.27676  0.61920  0.77730  1.0000
  H   H2436     1.0  0.28987  0.63272  0.75708  1.0000
  H   H2437     1.0  0.25498  0.66634  0.75776  1.0000
  H   H2438     1.0  0.24166  0.65258  0.77747  1.0000
  N   N134      1.0  0.18286  0.63943  0.86947  1.0000
  C   C2058     1.0  0.19727  0.63510  0.86229  1.0000
  C   C2059     1.0  0.18246  0.63757  0.88410  1.0000
  C   C2060     1.0  0.17498  0.63012  0.86835  1.0000
  C   C2061     1.0  0.17751  0.65392  0.86365  1.0000
  C   C2062     1.0  0.18324  0.66418  0.86488  1.0000
  C   C2063     1.0  0.16682  0.65826  0.85640  1.0000
  C   C2064     1.0  0.17849  0.67790  0.85939  1.0000
  C   C2065     1.0  0.16223  0.67202  0.85081  1.0000
  C   C2066     1.0  0.16802  0.68182  0.85234  1.0000
  H   H2439     1.0  0.20413  0.64087  0.86358  1.0000
  H   H2440     1.0  0.20152  0.62410  0.86598  1.0000
  H   H2441     1.0  0.19810  0.63671  0.85120  1.0000
  H   H2442     1.0  0.18944  0.64286  0.88588  1.0000
  H   H2443     1.0  0.18557  0.62665  0.88898  1.0000
  H   H2444     1.0  0.17194  0.64150  0.88971  1.0000
  H   H2445     1.0  0.17551  0.63031  0.85757  1.0000
  H   H2446     1.0  0.17919  0.61932  0.87290  1.0000
  H   H2447     1.0  0.16408  0.63262  0.87384  1.0000
  H   H2448     1.0  0.19167  0.66168  0.86987  1.0000
  H   H2449     1.0  0.16198  0.65121  0.85473  1.0000
  H   H2450     1.0  0.18314  0.68548  0.86047  1.0000
  H   H2451     1.0  0.15423  0.67514  0.84512  1.0000
  H   H2452     1.0  0.16451  0.69244  0.84791  1.0000
  H   H2453     1.0  0.12322  0.63645  0.82050  1.0000
  C   C2067     1.0  0.09435  0.70963  0.86499  1.0000
  C   C2068     1.0  0.35581  0.72566  0.78782  1.0000
  H   H2454     1.0  0.25732  0.61492  0.76352  1.0000
  C   C2069     1.0  0.11318  0.53734  0.83190  1.0000
  H   H2455     1.0  0.13413  0.48824  0.88157  1.0000
  H   H2456     1.0  0.34497  0.72663  0.78893  1.0000
  H   H2457     1.0  0.16415  0.66817  0.96779  1.0000
  H   H2458     1.0  0.08785  0.54704  0.82752  1.0000
  C   C2070     1.0  0.08474  0.70155  0.87089  1.0000
  H   H2459     1.0  0.33881  0.67146  0.74429  1.0000
  H   H2460     1.0  0.34905  0.72203  0.75297  1.0000
  C   C2071     1.0  0.26524  0.59358  0.75175  1.0000
  H   H2461     1.0  0.09034  0.58256  0.87846  1.0000
  C   C2072     1.0  0.36568  0.71937  0.77766  1.0000
  C   C2073     1.0  0.20445  0.66792  0.95109  1.0000
  H   H2462     1.0  0.11875  0.64275  0.79761  1.0000
  H   H2463     1.0  0.26233  0.59128  0.76308  1.0000
  H   H2464     1.0  0.10227  0.50298  0.88943  1.0000
  H   H2465     1.0  0.34454  0.70665  0.78335  1.0000
  C   C2074     1.0  0.09264  0.58758  0.88536  1.0000
  N   N135      1.0  0.04483  0.59787  0.85594  1.0000
  C   C2075     1.0  0.03960  0.60713  0.86555  1.0000
  C   C2076     1.0  0.05721  0.60188  0.84622  1.0000
  C   C2077     1.0  0.03441  0.59990  0.84797  1.0000
  C   C2078     1.0  0.04753  0.58368  0.86376  1.0000
  C   C2079     1.0  0.06096  0.57531  0.86316  1.0000
  C   C2080     1.0  0.03656  0.57801  0.87274  1.0000
  C   C2081     1.0  0.06318  0.56204  0.87092  1.0000
  C   C2082     1.0  0.03886  0.56470  0.88040  1.0000
  C   C2083     1.0  0.05215  0.55672  0.87948  1.0000
  H   H2466     1.0  0.03876  0.61793  0.86015  1.0000
  H   H2467     1.0  0.02923  0.60626  0.87192  1.0000
  H   H2468     1.0  0.04664  0.60510  0.87245  1.0000
  H   H2469     1.0  0.06522  0.60154  0.85152  1.0000
  H   H2470     1.0  0.05490  0.61253  0.84029  1.0000
  H   H2471     1.0  0.06168  0.59526  0.83869  1.0000
  H   H2472     1.0  0.03320  0.61006  0.84095  1.0000
  H   H2473     1.0  0.03733  0.59214  0.84165  1.0000
  H   H2474     1.0  0.02399  0.59945  0.85445  1.0000
  H   H2475     1.0  0.06997  0.57875  0.85678  1.0000
  H   H2476     1.0  0.02610  0.58389  0.87390  1.0000
  H   H2477     1.0  0.15818  0.65802  0.94647  1.0000
  H   H2478     1.0  0.10704  0.52595  0.88161  1.0000
  H   H2479     1.0  0.24942  0.61857  0.74956  1.0000
  C   C2084     1.0  0.10169  0.52277  0.85190  1.0000
  S   S563      1.0  0.15457  0.63047  0.96127  1.0000
  C   C2085     1.0  0.09870  0.50962  0.85686  1.0000
  H   H2480     1.0  0.28013  0.64174  0.81370  1.0000
  H   H2481     1.0  0.16106  0.68609  0.96055  1.0000
  C   C2086     1.0  0.10431  0.52158  0.87477  1.0000
  C   C2087     1.0  0.07044  0.58706  0.90041  1.0000
  H   H2482     1.0  0.25607  0.59419  0.74796  1.0000
  H   H2483     1.0  0.15783  0.65768  0.82244  1.0000
  N   N136      1.0  0.16844  0.67350  0.94575  1.0000
  H   H2484     1.0  0.13246  0.68394  0.89945  1.0000
  C   C2088     1.0  0.34591  0.66942  0.73496  1.0000
  H   H2485     1.0  0.35641  0.73420  0.75593  1.0000
  H   H2486     1.0  0.28048  0.60334  0.76250  1.0000
  C   C2089     1.0  0.19095  0.66681  0.95288  1.0000
  N   N137      1.0  0.11040  0.65545  0.81254  1.0000
  C   C2090     1.0  0.10962  0.65065  0.80078  1.0000
  C   C2091     1.0  0.09662  0.66381  0.81736  1.0000
  H   H2487     1.0  0.09587  0.66683  0.82696  1.0000
  C   C2092     1.0  0.12156  0.66290  0.80867  1.0000
  C   C2093     1.0  0.11963  0.67581  0.81167  1.0000
  C   C2094     1.0  0.13504  0.65700  0.80219  1.0000
  C   C2095     1.0  0.13042  0.68249  0.80803  1.0000
  C   C2096     1.0  0.14572  0.66386  0.79844  1.0000
  C   C2097     1.0  0.14340  0.67661  0.80132  1.0000
  H   H2488     1.0  0.39427  0.72306  0.78536  1.0000
  S   S564      1.0  0.36075  0.68531  0.73901  1.0000
  H   H2489     1.0  0.10068  0.64582  0.80321  1.0000
  H   H2490     1.0  0.07356  0.55588  0.87021  1.0000
  C   C2098     1.0  0.08907  0.58991  0.90844  1.0000
  H   H2491     1.0  0.11376  0.64671  0.83270  1.0000
  H   H2492     1.0  0.20182  0.72749  0.83322  1.0000
  H   H2493     1.0  0.03029  0.56054  0.88707  1.0000
  H   H2494     1.0  0.05392  0.54639  0.88540  1.0000
  H   H2495     1.0  0.10989  0.68101  0.81687  1.0000
  H   H2496     1.0  0.08308  0.58769  0.91908  1.0000
  H   H2497     1.0  0.12871  0.69227  0.81052  1.0000
  C   C2099     1.0  0.20225  0.68529  0.93082  1.0000
  H   H2498     1.0  0.15172  0.68187  0.79847  1.0000
  N   N138      1.0  0.36122  0.71415  0.76823  1.0000
  C   C2100     1.0  0.37972  0.71840  0.77715  1.0000
  H   H2499     1.0  0.16608  0.68119  0.92505  1.0000
  C   C2101     1.0  0.35402  0.70308  0.77599  1.0000
  H   H2500     1.0  0.19196  0.73045  0.79559  1.0000
  H   H2501     1.0  0.08834  0.65817  0.81964  1.0000
  H   H2502     1.0  0.10260  0.67608  0.89112  1.0000
  N   N139      1.0  0.08543  0.58319  0.89960  1.0000
  H   H2503     1.0  0.06901  0.60895  0.89601  1.0000
  H   H2504     1.0  0.08964  0.59875  0.88159  1.0000
  H   H2505     1.0  0.37841  0.71653  0.75129  1.0000
  C   C2102     1.0  0.99786  0.62857  0.85095  1.0000
  H   H2506     1.0  0.22059  0.67792  0.93860  1.0000
  H   H2507     1.0  0.28713  0.61402  0.74679  1.0000
  C   C2103     1.0  0.16100  0.68299  0.93544  1.0000
  H   H2508     1.0  0.17488  0.65702  0.93527  1.0000
  C   C2104     1.0  0.37273  0.70861  0.75774  1.0000
  H   H2509     1.0  0.29087  0.59602  0.74857  1.0000
  H   H2510     1.0  0.20674  0.69236  0.92216  1.0000
  C   C2105     1.0  0.25940  0.61727  0.75220  1.0000
  H   H2511     1.0  0.11126  0.51291  0.82887  1.0000
  C   C2106     1.0  0.35170  0.72526  0.76100  1.0000
  C   C2107     1.0  0.11073  0.69339  0.87788  1.0000
  H   H2512     1.0  0.11676  0.69668  0.89965  1.0000
  H   H2513     1.0  0.03081  0.59829  0.90212  1.0000
  N   N140      1.0  0.25821  0.64895  0.81736  1.0000
  C   C2108     1.0  0.27173  0.64536  0.80808  1.0000
  C   C2109     1.0  0.25504  0.63613  0.82660  1.0000
  C   C2110     1.0  0.24762  0.65468  0.80921  1.0000
  C   C2111     1.0  0.25834  0.65921  0.82458  1.0000
  C   C2112     1.0  0.25435  0.65749  0.83897  1.0000
  C   C2113     1.0  0.26194  0.67171  0.81712  1.0000
  C   C2114     1.0  0.25416  0.66761  0.84539  1.0000
  C   C2115     1.0  0.26165  0.68178  0.82366  1.0000
  C   C2116     1.0  0.25779  0.67972  0.83776  1.0000
  C   C2117     1.0  0.35973  0.73097  0.79664  1.0000
  H   H2514     1.0  0.27203  0.63718  0.80302  1.0000
  H   H2515     1.0  0.27415  0.65405  0.79968  1.0000
  H   H2516     1.0  0.26264  0.63121  0.83309  1.0000
  H   H2517     1.0  0.25514  0.62861  0.82082  1.0000
  H   H2518     1.0  0.24455  0.63794  0.83325  1.0000
  H   H2519     1.0  0.24941  0.66407  0.80157  1.0000
  H   H2520     1.0  0.24723  0.64733  0.80353  1.0000
  H   H2521     1.0  0.23731  0.65721  0.81590  1.0000
  H   H2522     1.0  0.25095  0.64859  0.84551  1.0000
  H   H2523     1.0  0.26460  0.67398  0.80615  1.0000
  H   H2524     1.0  0.25069  0.66628  0.85634  1.0000
  H   H2525     1.0  0.26391  0.69146  0.81777  1.0000
  H   H2526     1.0  0.25711  0.68775  0.84274  1.0000
  C   C2118     1.0  0.00051  0.63458  0.87073  1.0000
  C   C2119     1.0  0.06354  0.60096  0.89826  1.0000
  H   H2527     1.0  0.09284  0.51759  0.83101  1.0000
  H   H2528     1.0  0.35091  0.69862  0.76912  1.0000
  H   H2529     1.0  0.20224  0.71300  0.82736  1.0000
  H   H2530     1.0  0.09700  0.49245  0.87368  1.0000
  H   H2531     1.0  0.10519  0.63749  0.82677  1.0000
  C   C2120     1.0  0.12246  0.68702  0.89637  1.0000
  H   H2532     1.0  0.18170  0.72270  0.81133  1.0000
  C   C2121     1.0  0.16047  0.67609  0.95929  1.0000
  H   H2533     1.0  0.10324  0.52731  0.81772  1.0000
  H   H2534     1.0  0.11426  0.71219  0.86308  1.0000
  H   H2535     1.0  0.21058  0.66156  0.95827  1.0000
  H   H2536     1.0  0.12940  0.70818  0.87707  1.0000
  H   H2537     1.0  0.08772  0.54819  0.84427  1.0000
  H   H2538     1.0  0.33373  0.65800  0.73087  1.0000
  S   S565      1.0  0.28240  0.66017  0.74175  1.0000
  H   H2539     1.0  0.15034  0.68163  0.93734  1.0000
  C   C2122     1.0  0.04825  0.58143  0.90336  1.0000
  C   C2123     1.0  0.10165  0.50862  0.87920  1.0000
  N   N141      1.0  0.12430  0.68862  0.88151  1.0000
  C   C2124     1.0  0.16867  0.65948  0.94517  1.0000
  H   H2540     1.0  0.06674  0.56659  0.90422  1.0000
  H   H2541     1.0  0.14380  0.69410  0.87760  1.0000
  H   H2542     1.0  0.04442  0.61564  0.89732  1.0000
  C   C2125     1.0  0.38351  0.72362  0.78611  1.0000
  H   H2543     1.0  0.99549  0.66171  0.84080  1.0000
  C   C2126     1.0  0.37356  0.73002  0.79572  1.0000
  C   C2127     1.0  0.10718  0.70566  0.86837  1.0000
  C   C2128     1.0  0.18267  0.67496  0.94363  1.0000
  H   H2544     1.0  0.13198  0.67595  0.86685  1.0000
  H   H2545     1.0  0.13604  0.69916  0.86328  1.0000
  H   H2546     1.0  0.08552  0.56428  0.91443  1.0000
  C   C2129     1.0  0.06238  0.57737  0.90276  1.0000
  H   H2547     1.0  0.04227  0.57387  0.90531  1.0000
  H   H2548     1.0  0.34184  0.72883  0.76788  1.0000
  H   H2549     1.0  0.27321  0.58470  0.74875  1.0000
  H   H2550     1.0  0.09201  0.71878  0.85739  1.0000
  S   S566      1.0  0.31891  0.63490  0.73250  1.0000
  H   H2551     1.0  0.15594  0.65925  0.79340  1.0000
  H   H2552     1.0  0.10194  0.56584  0.90369  1.0000
  H   H2553     1.0  0.40219  0.72891  0.73980  1.0000
  H   H2554     1.0  0.36901  0.70488  0.75076  1.0000
  C   C2130     1.0  0.10224  0.52167  0.82849  1.0000
  H   H2555     1.0  0.07945  0.53626  0.84219  1.0000
  H   H2556     1.0  0.41419  0.73136  0.75616  1.0000
  N   N142      1.0  0.27015  0.60641  0.74633  1.0000
  H   H2557     1.0  0.18704  0.65947  0.96155  1.0000
  H   H2558     1.0  0.19907  0.71461  0.80551  1.0000
  C   C2131     1.0  0.19664  0.72367  0.82759  1.0000
  C   C2132     1.0  0.21067  0.73363  0.80663  1.0000
  H   H2559     1.0  0.31470  0.57104  0.73373  1.0000
  H   H2560     1.0  0.38005  0.69976  0.76232  1.0000
  H   H2561     1.0  0.17302  0.65166  0.95335  1.0000
  C   C2133     1.0  0.08854  0.54094  0.83792  1.0000
  Fe  Fe283     1.0  0.22652  0.72310  0.84618  1.0000
  C   C2134     1.0  0.13374  0.69799  0.87452  1.0000
  C   C2135     1.0  0.19206  0.72473  0.80621  1.0000
  H   H2562     1.0  0.18341  0.69079  0.92478  1.0000
  N   N143      1.0  0.13461  0.61984  0.86145  1.0000
  C   C2136     1.0  0.14198  0.60558  0.86090  1.0000
  C   C2137     1.0  0.13449  0.62207  0.87482  1.0000
  C   C2138     1.0  0.12027  0.62118  0.86064  1.0000
  C   C2139     1.0  0.14096  0.63004  0.85050  1.0000
  C   C2140     1.0  0.15353  0.62646  0.84114  1.0000
  C   C2141     1.0  0.13474  0.64411  0.84918  1.0000
  C   C2142     1.0  0.15945  0.63636  0.83115  1.0000
  C   C2143     1.0  0.14070  0.65393  0.83905  1.0000
  C   C2144     1.0  0.15308  0.65006  0.83013  1.0000
  H   H2563     1.0  0.15252  0.60346  0.86262  1.0000
  H   H2564     1.0  0.13671  0.59815  0.86896  1.0000
  H   H2565     1.0  0.14270  0.60315  0.85101  1.0000
  H   H2566     1.0  0.14505  0.62139  0.87579  1.0000
  H   H2567     1.0  0.13029  0.61425  0.88330  1.0000
  H   H2568     1.0  0.12808  0.63209  0.87668  1.0000
  H   H2569     1.0  0.11985  0.62006  0.85054  1.0000
  H   H2570     1.0  0.11546  0.61327  0.86850  1.0000
  H   H2571     1.0  0.11348  0.63105  0.86254  1.0000
  H   H2572     1.0  0.15911  0.61607  0.84135  1.0000
  H   H2573     1.0  0.12528  0.64761  0.85607  1.0000
  H   H2574     1.0  0.12548  0.66721  0.88379  1.0000
  H   H2575     1.0  0.13670  0.65602  0.96819  1.0000
  C   C2145     1.0  0.15153  0.63840  0.97514  1.0000
  C   C2146     1.0  0.13083  0.48513  0.86331  1.0000
  H   H2576     1.0  0.08042  0.68320  0.88475  1.0000
  H   H2577     1.0  0.38801  0.71392  0.76974  1.0000
  H   H2578     1.0  0.14944  0.67614  0.96085  1.0000
  C   C2147     1.0  0.28266  0.60487  0.75125  1.0000
  C   C2148     1.0  0.08785  0.68954  0.88032  1.0000
  S   S567      1.0  0.11691  0.73436  0.82902  1.0000
  H   H2579     1.0  0.36077  0.69469  0.78182  1.0000
  H   H2580     1.0  0.18604  0.72338  0.83367  1.0000
  C   C2149     1.0  0.14240  0.65093  0.97603  1.0000
  H   H2581     1.0  0.21761  0.72366  0.80524  1.0000
  Fe  Fe284     1.0  0.15215  0.72744  0.80444  1.0000
  H   H2582     1.0  0.37662  0.73433  0.80239  1.0000
  Fe  Fe285     1.0  0.35139  0.93161  0.14678  1.0000
  S   S568      1.0  0.34025  0.94633  0.13126  1.0000
  S   S569      1.0  0.34213  0.91665  0.16455  1.0000
  Fe  Fe286     1.0  0.37875  0.93886  0.13157  1.0000
  S   S570      1.0  0.36989  0.95376  0.11473  1.0000
  S   S571      1.0  0.40142  0.93423  0.13008  1.0000
  Fe  Fe287     1.0  0.35281  0.96061  0.13170  1.0000
  Fe  Fe288     1.0  0.35847  0.93792  0.11596  1.0000
  S   S572      1.0  0.35969  0.93043  0.09712  1.0000
  S   S573      1.0  0.36243  0.94644  0.14853  1.0000
  S   S574      1.0  0.36881  0.92265  0.13155  1.0000
  Fe  Fe289     1.0  0.34913  0.86447  0.08305  1.0000
  S   S575      1.0  0.35749  0.84345  0.09372  1.0000
  S   S576      1.0  0.33865  0.87862  0.09779  1.0000
  Fe  Fe290     1.0  0.35901  0.85622  0.05564  1.0000
  S   S577      1.0  0.36875  0.83472  0.06440  1.0000
  Fe  Fe291     1.0  0.34935  0.83565  0.08059  1.0000
  S   S578      1.0  0.34301  0.81578  0.09118  1.0000
  Fe  Fe292     1.0  0.37625  0.84391  0.07710  1.0000
  S   S579      1.0  0.39457  0.83313  0.08634  1.0000
  S   S580      1.0  0.33894  0.85666  0.07125  1.0000
  S   S581      1.0  0.36850  0.86550  0.06697  1.0000
  Fe  Fe293     1.0  0.46513  0.85075  0.12872  1.0000
  S   S582      1.0  0.45211  0.84393  0.14927  1.0000
  C   C2150     1.0  0.47819  0.89223  0.14378  1.0000
  Fe  Fe294     1.0  0.44162  0.85628  0.11433  1.0000
  S   S583      1.0  0.42670  0.85042  0.13363  1.0000
  S   S584      1.0  0.43362  0.86504  0.09514  1.0000
  Fe  Fe295     1.0  0.43581  0.86170  0.14273  1.0000
  S   S585      1.0  0.42127  0.87314  0.15821  1.0000
  Fe  Fe296     1.0  0.44388  0.83295  0.13875  1.0000
  S   S586      1.0  0.43865  0.81270  0.15013  1.0000
  S   S587      1.0  0.44918  0.86946  0.12287  1.0000
  S   S588      1.0  0.45848  0.83794  0.11861  1.0000
  H   H2583     1.0  0.38850  0.79073  0.08791  1.0000
  Fe  Fe297     1.0  0.28224  0.78607  0.11435  1.0000
  S   S589      1.0  0.28466  0.76516  0.11110  1.0000
  S   S590      1.0  0.28487  0.80444  0.09743  1.0000
  Fe  Fe298     1.0  0.27560  0.77715  0.14504  1.0000
  S   S591      1.0  0.27750  0.75547  0.14454  1.0000
  S   S592      1.0  0.27230  0.78393  0.16447  1.0000
  Fe  Fe299     1.0  0.29609  0.75841  0.12791  1.0000
  S   S593      1.0  0.36930  0.75148  0.13652  1.0000
  Fe  Fe300     1.0  0.26578  0.76410  0.12788  1.0000
  S   S594      1.0  0.24692  0.75665  0.12890  1.0000
  S   S595      1.0  0.29517  0.77934  0.12979  1.0000
  S   S596      1.0  0.26236  0.78571  0.12984  1.0000
  H   H2584     1.0  0.30276  0.76822  0.15915  1.0000
  C   C2151     1.0  0.28286  0.92857  0.16846  1.0000
  H   H2585     1.0  0.37911  0.84603  0.19629  1.0000
  C   C2152     1.0  0.38612  0.85318  0.12669  1.0000
  H   H2586     1.0  0.27623  0.88546  0.12276  1.0000
  H   H2587     1.0  0.13402  0.76293  0.18754  1.0000
  H   H2588     1.0  0.25752  0.86830  0.21920  1.0000
  C   C2153     1.0  0.39090  0.78944  0.11304  1.0000
  C   C2154     1.0  0.41185  0.79305  0.11663  1.0000
  H   H2589     1.0  0.26569  0.91529  0.16349  1.0000
  H   H2590     1.0  0.37277  0.80351  0.08819  1.0000
  H   H2591     1.0  0.42453  0.82401  0.18210  1.0000
  H   H2592     1.0  0.37511  0.81560  0.10985  1.0000
  Fe  Fe301     1.0  0.28909  0.87825  0.16668  1.0000
  S   S597      1.0  0.26853  0.87659  0.16566  1.0000
  S   S598      1.0  0.29739  0.89532  0.15141  1.0000
  Fe  Fe302     1.0  0.29207  0.85271  0.18836  1.0000
  S   S599      1.0  0.27152  0.84887  0.18941  1.0000
  S   S600      1.0  0.30811  0.83908  0.19934  1.0000
  Fe  Fe303     1.0  0.27765  0.85449  0.16666  1.0000
  S   S601      1.0  0.27442  0.84586  0.15076  1.0000
  Fe  Fe304     1.0  0.26420  0.87135  0.18838  1.0000
  S   S602      1.0  0.24312  0.88235  0.19750  1.0000
  S   S603      1.0  0.29870  0.85659  0.16565  1.0000
  S   S604      1.0  0.28422  0.87474  0.18939  1.0000
  Fe  Fe305     1.0  0.37415  0.78609  0.15829  1.0000
  S   S605      1.0  0.38586  0.76463  0.15804  1.0000
  S   S606      1.0  0.38193  0.80493  0.14632  1.0000
  Fe  Fe306     1.0  0.34746  0.77739  0.17373  1.0000
  S   S607      1.0  0.35680  0.75535  0.17456  1.0000
  S   S608      1.0  0.32468  0.78311  0.18134  1.0000
  Fe  Fe307     1.0  0.37434  0.75973  0.17977  1.0000
  H   H2593     1.0  0.24281  0.92731  0.18431  1.0000
  Fe  Fe308     1.0  0.36724  0.76217  0.15297  1.0000
  H   H2594     1.0  0.35445  0.82422  0.18816  1.0000
  S   S609      1.0  0.36417  0.78158  0.18052  1.0000
  S   S610      1.0  0.35637  0.78389  0.15160  1.0000
  C   C2155     1.0  0.33027  0.74611  0.12876  1.0000
  C   C2156     1.0  0.23224  0.74417  0.12016  1.0000
  H   H2595     1.0  0.30693  0.74359  0.19822  1.0000
  H   H2596     1.0  0.33092  0.86889  0.16452  1.0000
  C   C2157     1.0  0.31237  0.82314  0.19519  1.0000
  C   C2158     1.0  0.32495  0.81432  0.19674  1.0000
  C   C2159     1.0  0.32874  0.80190  0.19264  1.0000
  C   C2160     1.0  0.31979  0.79815  0.18732  1.0000
  C   C2161     1.0  0.30697  0.80670  0.18631  1.0000
  C   C2162     1.0  0.30340  0.81931  0.18996  1.0000
  H   H2597     1.0  0.33182  0.81719  0.20094  1.0000
  H   H2598     1.0  0.33848  0.79517  0.19378  1.0000
  H   H2599     1.0  0.29998  0.80381  0.18227  1.0000
  H   H2600     1.0  0.29366  0.82602  0.18880  1.0000
  H   H2601     1.0  0.21638  0.88786  0.21467  1.0000
  C   C2163     1.0  0.23750  0.87837  0.21527  1.0000
  C   C2164     1.0  0.33932  0.86583  0.15634  1.0000
  H   H2602     1.0  0.32628  0.89687  0.18049  1.0000
  H   H2603     1.0  0.34874  0.97088  0.16374  1.0000
  H   H2604     1.0  0.31610  0.76879  0.16655  1.0000
  C   C2165     1.0  0.24672  0.87144  0.22363  1.0000
  H   H2605     1.0  0.34741  0.75117  0.20638  1.0000
  H   H2606     1.0  0.41059  0.81715  0.19403  1.0000
  H   H2607     1.0  0.41933  0.84358  0.16309  1.0000
  C   C2166     1.0  0.35013  0.85494  0.15915  1.0000
  S   S611      1.0  0.10635  0.73680  0.21988  1.0000
  H   H2608     1.0  0.36793  0.80431  0.12475  1.0000
  H   H2609     1.0  0.38131  0.83580  0.11486  1.0000
  H   H2610     1.0  0.45091  0.87756  0.15190  1.0000
  H   H2611     1.0  0.36029  0.88462  0.15517  1.0000
  H   H2612     1.0  0.17080  0.75805  0.18926  1.0000
  C   C2167     1.0  0.27223  0.80127  0.16105  1.0000
  C   C2168     1.0  0.27330  0.80709  0.17113  1.0000
  C   C2169     1.0  0.27395  0.82083  0.16814  1.0000
  C   C2170     1.0  0.27327  0.82878  0.15514  1.0000
  C   C2171     1.0  0.27189  0.82301  0.14520  1.0000
  C   C2172     1.0  0.27158  0.80925  0.14808  1.0000
  H   H2613     1.0  0.27388  0.80092  0.18117  1.0000
  H   H2614     1.0  0.27504  0.82523  0.17586  1.0000
  H   H2615     1.0  0.27125  0.82915  0.13516  1.0000
  H   H2616     1.0  0.27075  0.80485  0.14025  1.0000
  H   H2617     1.0  0.35989  0.81079  0.11042  1.0000
  H   H2618     1.0  0.39809  0.80836  0.10598  1.0000
  C   C2173     1.0  0.40474  0.84488  0.18756  1.0000
  C   C2174     1.0  0.38564  0.83404  0.01511  1.0000
  C   C2175     1.0  0.34126  0.75798  0.13817  1.0000
  C   C2176     1.0  0.32934  0.75618  0.13564  1.0000
  H   H2619     1.0  0.47819  0.89615  0.13279  1.0000
  C   C2177     1.0  0.34312  0.73813  0.12416  1.0000
  H   H2620     1.0  0.34051  0.76547  0.14378  1.0000
  H   H2621     1.0  0.31945  0.76222  0.13937  1.0000
  C   C2178     1.0  0.24456  0.74846  0.11736  1.0000
  H   H2622     1.0  0.38149  0.82911  0.99873  1.0000
  N   N144      1.0  0.37286  0.85341  0.12385  1.0000
  N   N145      1.0  0.26402  0.91733  0.18397  1.0000
  C   C2179     1.0  0.33923  0.87267  0.14296  1.0000
  H   H2623     1.0  0.13169  0.74673  0.18710  1.0000
  C   C2180     1.0  0.38838  0.82372  0.17516  1.0000
  C   C2181     1.0  0.41407  0.82239  0.18333  1.0000
  S   S612      1.0  0.34768  0.83656  0.99202  1.0000
  H   H2624     1.0  0.26747  0.89931  0.19972  1.0000
  H   H2625     1.0  0.30824  0.88533  0.09141  1.0000
  H   H2626     1.0  0.46490  0.91641  0.13654  1.0000
  S   S613      1.0  0.38387  0.74621  0.19714  1.0000
  C   C2182     1.0  0.49201  0.85207  0.14885  1.0000
  C   C2183     1.0  0.31438  0.74316  0.17191  1.0000
  C   C2184     1.0  0.39854  0.80572  0.14643  1.0000
  C   C2185     1.0  0.40578  0.79658  0.15584  1.0000
  C   C2186     1.0  0.41839  0.79848  0.15659  1.0000
  C   C2187     1.0  0.42377  0.80948  0.14794  1.0000
  C   C2188     1.0  0.41680  0.81819  0.13813  1.0000
  C   C2189     1.0  0.40424  0.81633  0.13740  1.0000
  H   H2627     1.0  0.40150  0.78830  0.16278  1.0000
  H   H2628     1.0  0.42381  0.79160  0.16411  1.0000
  H   H2629     1.0  0.42112  0.82634  0.13107  1.0000
  H   H2630     1.0  0.39900  0.82307  0.12973  1.0000
  C   C2190     1.0  0.34959  0.83822  0.01718  1.0000
  C   C2191     1.0  0.35219  0.84424  0.02643  1.0000
  H   H2631     1.0  0.34695  0.82838  0.02070  1.0000
  H   H2632     1.0  0.35156  0.83902  0.03694  1.0000
  C   C2192     1.0  0.40525  0.84226  0.08864  1.0000
  C   C2193     1.0  0.41341  0.83610  0.09822  1.0000
  C   C2194     1.0  0.42206  0.84308  0.10033  1.0000
  C   C2195     1.0  0.42283  0.85613  0.09264  1.0000
  C   C2196     1.0  0.41477  0.86225  0.08295  1.0000
  C   C2197     1.0  0.40581  0.85542  0.08111  1.0000
  H   H2633     1.0  0.41311  0.82587  0.10399  1.0000
  H   H2634     1.0  0.42844  0.83822  0.10763  1.0000
  H   H2635     1.0  0.41551  0.87226  0.07680  1.0000
  H   H2636     1.0  0.39965  0.86017  0.07359  1.0000
  C   C2198     1.0  0.32733  0.81271  0.09096  1.0000
  C   C2199     1.0  0.31681  0.82316  0.08650  1.0000
  C   C2200     1.0  0.30383  0.82054  0.08809  1.0000
  C   C2201     1.0  0.30140  0.80748  0.09420  1.0000
  C   C2202     1.0  0.31212  0.79697  0.09814  1.0000
  C   C2203     1.0  0.32503  0.79957  0.09650  1.0000
  H   H2637     1.0  0.31864  0.83326  0.08206  1.0000
  H   H2638     1.0  0.29561  0.82864  0.08484  1.0000
  H   H2639     1.0  0.31053  0.78677  0.10237  1.0000
  H   H2640     1.0  0.33323  0.79136  0.09970  1.0000
  H   H2641     1.0  0.48339  0.84724  0.15334  1.0000
  C   C2204     1.0  0.40700  0.91748  0.13833  1.0000
  C   C2205     1.0  0.39833  0.91114  0.14958  1.0000
  C   C2206     1.0  0.40297  0.89766  0.15606  1.0000
  C   C2207     1.0  0.41603  0.89036  0.15092  1.0000
  C   C2208     1.0  0.42465  0.89671  0.13965  1.0000
  C   C2209     1.0  0.42023  0.91033  0.13351  1.0000
  H   H2642     1.0  0.38809  0.91668  0.15335  1.0000
  H   H2643     1.0  0.39626  0.89281  0.16479  1.0000
  H   H2644     1.0  0.43477  0.89124  0.13572  1.0000
  H   H2645     1.0  0.42697  0.91526  0.12485  1.0000
  C   C2210     1.0  0.35369  0.91607  0.09751  1.0000
  C   C2211     1.0  0.34343  0.91140  0.10820  1.0000
  C   C2212     1.0  0.33884  0.90002  0.10808  1.0000
  C   C2213     1.0  0.34467  0.89300  0.09743  1.0000
  C   C2214     1.0  0.35514  0.89748  0.08690  1.0000
  C   C2215     1.0  0.35950  0.90905  0.08687  1.0000
  H   H2646     1.0  0.33886  0.91674  0.11641  1.0000
  H   H2647     1.0  0.33073  0.89669  0.11630  1.0000
  H   H2648     1.0  0.35968  0.89224  0.07861  1.0000
  H   H2649     1.0  0.36741  0.91261  0.07853  1.0000
  C   C2216     1.0  0.33071  0.90960  0.16055  1.0000
  C   C2217     1.0  0.32771  0.91385  0.14767  1.0000
  C   C2218     1.0  0.31754  0.90930  0.14495  1.0000
  C   C2219     1.0  0.31046  0.90031  0.15504  1.0000
  C   C2220     1.0  0.31384  0.89554  0.16776  1.0000
  C   C2221     1.0  0.32397  0.90020  0.17051  1.0000
  H   H2650     1.0  0.33303  0.92087  0.13988  1.0000
  H   H2651     1.0  0.31507  0.91291  0.13504  1.0000
  H   H2652     1.0  0.30845  0.88854  0.17558  1.0000
  H   H2653     1.0  0.41943  0.91250  0.16669  1.0000
  H   H2654     1.0  0.25545  0.90497  0.17651  1.0000
  C   C2222     1.0  0.14949  0.75247  0.20671  1.0000
  H   H2655     1.0  0.45946  0.88538  0.13539  1.0000
  C   C2223     1.0  0.21883  0.84371  0.20676  1.0000
  C   C2224     1.0  0.22608  0.85424  0.20017  1.0000
  C   C2225     1.0  0.22250  0.83226  0.20069  1.0000
  C   C2226     1.0  0.23628  0.85332  0.18829  1.0000
  C   C2227     1.0  0.23283  0.83139  0.18887  1.0000
  C   C2228     1.0  0.23968  0.84192  0.18267  1.0000
  C   C2229     1.0  0.28972  0.75268  0.18037  1.0000
  H   H2656     1.0  0.47511  0.87386  0.16595  1.0000
  H   H2657     1.0  0.29048  0.85440  0.12306  1.0000
  H   H2658     1.0  0.39808  0.85510  0.18476  1.0000
  C   C2230     1.0  0.40901  0.84135  0.16508  1.0000
  C   C2231     1.0  0.37558  0.82069  0.17742  1.0000
  C   C2232     1.0  0.38203  0.79936  0.09264  1.0000
  C   C2233     1.0  0.25304  0.92980  0.18224  1.0000
  C   C2234     1.0  0.38634  0.83563  0.00128  1.0000
  H   H2659     1.0  0.22415  0.86332  0.20398  1.0000
  H   H2660     1.0  0.42301  0.93429  0.15126  1.0000
  H   H2661     1.0  0.24165  0.86150  0.18346  1.0000
  H   H2662     1.0  0.23557  0.82251  0.18445  1.0000
  H   H2663     1.0  0.24766  0.84126  0.17348  1.0000
  H   H2664     1.0  0.38832  0.84552  0.13593  1.0000
  H   H2665     1.0  0.27772  0.93127  0.16017  1.0000
  C   C2235     1.0  0.37283  0.83952  0.12311  1.0000
  C   C2236     1.0  0.37221  0.86233  0.11022  1.0000
  C   C2237     1.0  0.29866  0.87144  0.10906  1.0000
  N   N146      1.0  0.25827  0.78773  0.08368  1.0000
  C   C2238     1.0  0.25733  0.80173  0.07530  1.0000
  C   C2239     1.0  0.25437  0.78873  0.09817  1.0000
  C   C2240     1.0  0.27279  0.78018  0.08093  1.0000
  C   C2241     1.0  0.24951  0.78084  0.08017  1.0000
  C   C2242     1.0  0.25248  0.77827  0.06693  1.0000
  C   C2243     1.0  0.23799  0.77643  0.08961  1.0000
  C   C2244     1.0  0.24476  0.77123  0.06354  1.0000
  C   C2245     1.0  0.23024  0.76958  0.08604  1.0000
  C   C2246     1.0  0.23374  0.76680  0.07312  1.0000
  H   H2666     1.0  0.24655  0.80771  0.07690  1.0000
  H   H2667     1.0  0.26366  0.80726  0.07790  1.0000
  H   H2668     1.0  0.26109  0.80185  0.06426  1.0000
  H   H2669     1.0  0.24379  0.79490  0.10088  1.0000
  H   H2670     1.0  0.26122  0.79381  0.10052  1.0000
  H   H2671     1.0  0.25508  0.77849  0.10507  1.0000
  H   H2672     1.0  0.27721  0.78039  0.06996  1.0000
  H   H2673     1.0  0.27954  0.78460  0.08429  1.0000
  H   H2674     1.0  0.27380  0.76933  0.08634  1.0000
  H   H2675     1.0  0.26095  0.78148  0.05916  1.0000
  H   H2676     1.0  0.23496  0.77773  0.09998  1.0000
  H   H2677     1.0  0.24746  0.76901  0.05350  1.0000
  H   H2678     1.0  0.22178  0.76589  0.09352  1.0000
  H   H2679     1.0  0.22803  0.76095  0.07063  1.0000
  C   C2247     1.0  0.34413  0.74055  0.22735  1.0000
  C   C2248     1.0  0.29414  0.85908  0.11257  1.0000
  C   C2249     1.0  0.35656  0.86349  0.00824  1.0000
  H   H2680     1.0  0.41551  0.81519  0.17674  1.0000
  H   H2681     1.0  0.36300  0.83921  0.12112  1.0000
  H   H2682     1.0  0.40170  0.84085  0.19869  1.0000
  H   H2683     1.0  0.30053  0.89718  0.12266  1.0000
  C   C2250     1.0  0.22353  0.88242  0.22111  1.0000
  H   H2684     1.0  0.29900  0.85290  0.08120  1.0000
  C   C2251     1.0  0.30545  0.76731  0.16895  1.0000
  C   C2252     1.0  0.44441  0.92644  0.14335  1.0000
  C   C2253     1.0  0.35046  0.84479  0.00343  1.0000
  N   N147      1.0  0.20780  0.84442  0.21923  1.0000
  H   H2685     1.0  0.39495  0.85056  0.11823  1.0000
  C   C2254     1.0  0.28422  0.88027  0.12877  1.0000
  C   C2255     1.0  0.34998  0.86873  0.13234  1.0000
  H   H2686     1.0  0.10387  0.76166  0.22794  1.0000
  C   C2256     1.0  0.45358  0.90227  0.15217  1.0000
  C   C2257     1.0  0.35498  0.74011  0.12640  1.0000
  C   C2258     1.0  0.35585  0.85686  0.02196  1.0000
  H   H2687     1.0  0.35001  0.84953  0.16957  1.0000
  S   S614      1.0  0.48709  0.85369  0.12369  1.0000
  C   C2259     1.0  0.30635  0.75390  0.19150  1.0000
  H   H2688     1.0  0.35999  0.78962  0.10674  1.0000
  N   N148      1.0  0.46457  0.88974  0.15193  1.0000
  C   C2260     1.0  0.46625  0.88278  0.16594  1.0000
  C   C2261     1.0  0.46071  0.88050  0.14595  1.0000
  C   C2262     1.0  0.44034  0.90175  0.16064  1.0000
  C   C2263     1.0  0.42957  0.91326  0.16049  1.0000
  H   H2689     1.0  0.22461  0.74573  0.12935  1.0000
  H   H2690     1.0  0.28828  0.74250  0.18654  1.0000
  H   H2691     1.0  0.37481  0.77604  0.10634  1.0000
  C   C2264     1.0  0.20554  0.85686  0.22446  1.0000
  C   C2265     1.0  0.45531  0.91502  0.14350  1.0000
  H   H2692     1.0  0.44582  0.93601  0.13644  1.0000
  N   N149      1.0  0.14807  0.74579  0.19654  1.0000
  C   C2266     1.0  0.33010  0.76219  0.21881  1.0000
  C   C2267     1.0  0.39818  0.85389  0.99618  1.0000
  H   H2693     1.0  0.26390  0.74961  0.10322  1.0000
  C   C2268     1.0  0.25436  0.74642  0.10544  1.0000
  C   C2269     1.0  0.35376  0.85756  0.99906  1.0000
  H   H2694     1.0  0.18733  0.74859  0.15008  1.0000
  H   H2695     1.0  0.38112  0.85886  0.10221  1.0000
  H   H2696     1.0  0.31234  0.93197  0.17385  1.0000
  H   H2697     1.0  0.30056  0.73601  0.16437  1.0000
  H   H2698     1.0  0.29058  0.84317  0.10551  1.0000
  C   C2270     1.0  0.39719  0.85236  0.01006  1.0000
  H   H2699     1.0  0.45719  0.87870  0.17229  1.0000
  H   H2700     1.0  0.33076  0.88111  0.14078  1.0000
  C   C2271     1.0  0.36994  0.80692  0.11344  1.0000
  H   H2701     1.0  0.33203  0.74774  0.17558  1.0000
  C   C2272     1.0  0.28511  0.91773  0.19154  1.0000
  H   H2702     1.0  0.31588  0.75721  0.19058  1.0000
  H   H2703     1.0  0.12605  0.75240  0.20260  1.0000
  H   H2704     1.0  0.28195  0.91186  0.20161  1.0000
  H   H2705     1.0  0.35926  0.87330  0.00472  1.0000
  N   N150      1.0  0.40423  0.83537  0.17962  1.0000
  N   N151      1.0  0.31567  0.80810  0.13546  1.0000
  C   C2273     1.0  0.30572  0.81471  0.12657  1.0000
  C   C2274     1.0  0.32669  0.79792  0.12898  1.0000
  C   C2275     1.0  0.30820  0.80077  0.14840  1.0000
  C   C2276     1.0  0.32180  0.81839  0.13737  1.0000
  C   C2277     1.0  0.32269  0.81922  0.15037  1.0000
  C   C2278     1.0  0.32727  0.82788  0.12602  1.0000
  C   C2279     1.0  0.32794  0.82942  0.15195  1.0000
  C   C2280     1.0  0.33245  0.83809  0.12770  1.0000
  C   C2281     1.0  0.33267  0.83890  0.14066  1.0000
  H   H2706     1.0  0.31077  0.81849  0.11590  1.0000
  H   H2707     1.0  0.29983  0.80760  0.12600  1.0000
  H   H2708     1.0  0.29822  0.82349  0.13034  1.0000
  H   H2709     1.0  0.33264  0.80272  0.11914  1.0000
  H   H2710     1.0  0.32249  0.79022  0.12690  1.0000
  H   H2711     1.0  0.33411  0.79242  0.13556  1.0000
  H   H2712     1.0  0.30026  0.80802  0.15409  1.0000
  H   H2713     1.0  0.30279  0.79385  0.14666  1.0000
  H   H2714     1.0  0.31524  0.79431  0.15508  1.0000
  H   H2715     1.0  0.31932  0.81216  0.15951  1.0000
  H   H2716     1.0  0.32752  0.82753  0.11575  1.0000
  H   H2717     1.0  0.32819  0.83000  0.16205  1.0000
  H   H2718     1.0  0.33618  0.84547  0.11892  1.0000
  H   H2719     1.0  0.33649  0.84688  0.14198  1.0000
  N   N152      1.0  0.39889  0.89546  0.10946  1.0000
  C   C2282     1.0  0.39628  0.91050  0.10539  1.0000
  C   C2283     1.0  0.41326  0.89044  0.11116  1.0000
  C   C2284     1.0  0.39781  0.89004  0.09823  1.0000
  C   C2285     1.0  0.38865  0.89145  0.12196  1.0000
  C   C2286     1.0  0.37458  0.89446  0.12168  1.0000
  C   C2287     1.0  0.39211  0.88513  0.13476  1.0000
  C   C2288     1.0  0.36452  0.89191  0.13352  1.0000
  C   C2289     1.0  0.38198  0.88248  0.14654  1.0000
  C   C2290     1.0  0.36819  0.88602  0.14595  1.0000
  H   H2720     1.0  0.39696  0.91501  0.11357  1.0000
  H   H2721     1.0  0.40382  0.91398  0.09607  1.0000
  H   H2722     1.0  0.38593  0.91508  0.10316  1.0000
  H   H2723     1.0  0.41520  0.89518  0.11846  1.0000
  H   H2724     1.0  0.42082  0.89290  0.10146  1.0000
  H   H2725     1.0  0.41575  0.87921  0.11471  1.0000
  H   H2726     1.0  0.38804  0.89487  0.09481  1.0000
  H   H2727     1.0  0.40614  0.89192  0.08904  1.0000
  H   H2728     1.0  0.39866  0.87886  0.10133  1.0000
  H   H2729     1.0  0.37118  0.89964  0.11243  1.0000
  H   H2730     1.0  0.40253  0.88246  0.13601  1.0000
  H   H2731     1.0  0.35376  0.89520  0.13315  1.0000
  H   H2732     1.0  0.38482  0.87817  0.15626  1.0000
  H   H2733     1.0  0.41529  0.84664  0.18550  1.0000
  H   H2734     1.0  0.25920  0.73901  0.08698  1.0000
  H   H2735     1.0  0.25479  0.93607  0.17174  1.0000
  H   H2736     1.0  0.39678  0.81878  0.16819  1.0000
  H   H2737     1.0  0.31215  0.89145  0.10843  1.0000
  C   C2291     1.0  0.41493  0.77966  0.12371  1.0000
  C   C2292     1.0  0.19467  0.84424  0.21644  1.0000
  H   H2738     1.0  0.29853  0.77590  0.17355  1.0000
  C   C2293     1.0  0.15879  0.74096  0.17320  1.0000
  H   H2739     1.0  0.37441  0.81353  0.17230  1.0000
  H   H2740     1.0  0.36297  0.86230  0.10692  1.0000
  C   C2294     1.0  0.35409  0.74987  0.13355  1.0000
  H   H2741     1.0  0.28163  0.87053  0.13498  1.0000
  H   H2742     1.0  0.30799  0.87375  0.07452  1.0000
  C   C2295     1.0  0.36133  0.85785  0.13486  1.0000
  N   N153      1.0  0.37827  0.79498  0.10765  1.0000
  C   C2296     1.0  0.43157  0.92555  0.15178  1.0000
  C   C2297     1.0  0.36942  0.78508  0.11087  1.0000
  H   H2743     1.0  0.35704  0.84054  0.19986  1.0000
  H   H2744     1.0  0.14884  0.76356  0.20265  1.0000
  C   C2298     1.0  0.37867  0.83891  0.19080  1.0000
  C   C2299     1.0  0.17991  0.75395  0.16967  1.0000
  H   H2745     1.0  0.38042  0.82661  0.02254  1.0000
  H   H2746     1.0  0.27381  0.90065  0.17404  1.0000
  H   H2747     1.0  0.36898  0.84223  0.15129  1.0000
  H   H2748     1.0  0.21199  0.82274  0.22773  1.0000
  C   C2300     1.0  0.36097  0.85093  0.14861  1.0000
  H   H2749     1.0  0.24988  0.90640  0.19943  1.0000
  N   N154      1.0  0.29815  0.87837  0.11978  1.0000
  H   H2750     1.0  0.29440  0.89882  0.10781  1.0000
  N   N155      1.0  0.30408  0.75400  0.17811  1.0000
  C   C2301     1.0  0.32852  0.74130  0.17150  1.0000
  C   C2302     1.0  0.36586  0.83586  0.19294  1.0000
  H   H2751     1.0  0.18606  0.84512  0.22552  1.0000
  C   C2303     1.0  0.39089  0.84248  0.01950  1.0000
  C   C2304     1.0  0.29424  0.85251  0.10261  1.0000
  H   H2752     1.0  0.43800  0.89230  0.16701  1.0000
  H   H2753     1.0  0.38787  0.80753  0.08933  1.0000
  H   H2754     1.0  0.38970  0.84163  0.03029  1.0000
  C   C2305     1.0  0.29899  0.85794  0.08893  1.0000
  C   C2306     1.0  0.25991  0.90912  0.19785  1.0000
  H   H2755     1.0  0.37212  0.87301  0.11001  1.0000
  H   H2756     1.0  0.34920  0.87443  0.12225  1.0000
  H   H2757     1.0  0.25863  0.91473  0.20586  1.0000
  C   C2307     1.0  0.39259  0.84572  0.99136  1.0000
  C   C2308     1.0  0.30395  0.86977  0.08517  1.0000
  H   H2758     1.0  0.38621  0.86325  0.12809  1.0000
  H   H2759     1.0  0.42395  0.77601  0.12800  1.0000
  H   H2760     1.0  0.37413  0.83202  0.13270  1.0000
  H   H2761     1.0  0.46864  0.87092  0.14540  1.0000
  S   S615      1.0  0.36007  0.86453  0.03295  1.0000
  H   H2762     1.0  0.28656  0.75445  0.17063  1.0000
  H   H2763     1.0  0.36602  0.78149  0.12203  1.0000
  H   H2764     1.0  0.19507  0.83468  0.21357  1.0000
  H   H2765     1.0  0.29952  0.93785  0.15577  1.0000
  H   H2766     1.0  0.20241  0.86627  0.21695  1.0000
  C   C2309     1.0  0.29530  0.93248  0.16584  1.0000
  C   C2310     1.0  0.30393  0.87640  0.09504  1.0000
  C   C2311     1.0  0.36435  0.82669  0.18635  1.0000
  H   H2767     1.0  0.30346  0.91887  0.19653  1.0000
  C   C2312     1.0  0.26473  0.90927  0.17409  1.0000
  H   H2768     1.0  0.25237  0.93629  0.18929  1.0000
  H   H2769     1.0  0.14280  0.84238  0.22518  1.0000
  H   H2770     1.0  0.38830  0.76849  0.12182  1.0000
  C   C2313     1.0  0.25167  0.74040  0.09628  1.0000
  H   H2771     1.0  0.40314  0.86171  0.98926  1.0000
  H   H2772     1.0  0.41853  0.79979  0.11539  1.0000
  H   H2773     1.0  0.41009  0.83438  0.15838  1.0000
  H   H2774     1.0  0.31873  0.86817  0.12155  1.0000
  H   H2775     1.0  0.28319  0.88647  0.13621  1.0000
  C   C2314     1.0  0.30817  0.86987  0.12802  1.0000
  H   H2776     1.0  0.30576  0.85976  0.13317  1.0000
  C   C2315     1.0  0.40006  0.79789  0.11133  1.0000
  C   C2316     1.0  0.40636  0.77099  0.12531  1.0000
  H   H2777     1.0  0.40188  0.85106  0.16170  1.0000
  H   H2778     1.0  0.16859  0.73711  0.15318  1.0000
  H   H2779     1.0  0.40877  0.76055  0.13081  1.0000
  H   H2780     1.0  0.48633  0.88270  0.14430  1.0000
  C   C2317     1.0  0.39040  0.83277  0.18190  1.0000
  C   C2318     1.0  0.17947  0.74813  0.15941  1.0000
  C   C2319     1.0  0.30142  0.89204  0.11437  1.0000
  H   H2781     1.0  0.30832  0.87477  0.13611  1.0000
  C   C2320     1.0  0.27733  0.92114  0.18143  1.0000
  C   C2321     1.0  0.13442  0.75224  0.19327  1.0000
  H   H2782     1.0  0.21739  0.82389  0.20505  1.0000
  H   H2783     1.0  0.28223  0.76050  0.18570  1.0000
  C   C2322     1.0  0.34108  0.75127  0.21655  1.0000
  C   C2323     1.0  0.39451  0.77574  0.12008  1.0000
  H   H2784     1.0  0.29801  0.76118  0.19684  1.0000
  S   S616      1.0  0.31567  0.74250  0.12641  1.0000
  C   C2324     1.0  0.16981  0.75334  0.18175  1.0000
  C   C2325     1.0  0.30255  0.92916  0.17601  1.0000
  H   H2785     1.0  0.21489  0.85735  0.22729  1.0000
  C   C2326     1.0  0.15891  0.74678  0.18388  1.0000
  C   C2327     1.0  0.36519  0.97817  0.16591  1.0000
  H   H2786     1.0  0.19183  0.85288  0.20806  1.0000
  S   S617      1.0  0.34358  0.98265  0.13339  1.0000
  H   H2787     1.0  0.46807  0.88980  0.17116  1.0000
  H   H2788     1.0  0.35405  0.86291  0.98865  1.0000
  H   H2789     1.0  0.48153  0.89943  0.14754  1.0000
  C   C2328     1.0  0.29753  0.92174  0.18880  1.0000
  H   H2790     1.0  0.40104  0.85904  0.01359  1.0000
  H   H2791     1.0  0.15930  0.74776  0.21010  1.0000
  H   H2792     1.0  0.15435  0.85959  0.22603  1.0000
  C   C2329     1.0  0.23929  0.73622  0.09905  1.0000
  C   C2330     1.0  0.35146  0.97814  0.16757  1.0000
  H   H2793     1.0  0.32783  0.77055  0.21040  1.0000
  H   H2794     1.0  0.14115  0.75149  0.21608  1.0000
  H   H2795     1.0  0.18818  0.75895  0.16825  1.0000
  C   C2331     1.0  0.16891  0.74168  0.16117  1.0000
  C   C2332     1.0  0.22963  0.73802  0.11110  1.0000
  H   H2796     1.0  0.37319  0.97865  0.12919  1.0000
  H   H2797     1.0  0.37308  0.97085  0.16079  1.0000
  H   H2798     1.0  0.15092  0.73567  0.17411  1.0000
  C   C2333     1.0  0.21124  0.83257  0.23025  1.0000
  Fe  Fe309     1.0  0.13500  0.79937  0.25965  1.0000
  S   S618      1.0  0.15045  0.77952  0.26147  1.0000
  S   S619      1.0  0.13812  0.81758  0.24277  1.0000
  Fe  Fe310     1.0  0.11456  0.78913  0.28462  1.0000
  S   S620      1.0  0.12835  0.76851  0.28865  1.0000
  S   S621      1.0  0.09453  0.79370  0.29968  1.0000
  Fe  Fe311     1.0  0.14500  0.77983  0.28367  1.0000
  S   S622      1.0  0.16110  0.77530  0.29573  1.0000
  Fe  Fe312     1.0  0.13238  0.76992  0.26611  1.0000
  H   H2799     1.0  0.23411  0.73944  0.38343  1.0000
  S   S623      1.0  0.13092  0.80038  0.28143  1.0000
  S   S624      1.0  0.11722  0.78987  0.26244  1.0000
  H   H2800     1.0  0.17117  0.75309  0.31681  1.0000
  Fe  Fe313     1.0  0.15825  0.78498  0.36429  1.0000
  S   S625      1.0  0.18048  0.77773  0.35539  1.0000
  H   H2801     1.0  0.16994  0.76078  0.34293  1.0000
  Fe  Fe314     1.0  0.16374  0.78248  0.39189  1.0000
  S   S626      1.0  0.18656  0.77506  0.38531  1.0000
  S   S627      1.0  0.15217  0.78585  0.41267  1.0000
  Fe  Fe315     1.0  0.18403  0.79133  0.36659  1.0000
  S   S628      1.0  0.19840  0.80521  0.35572  1.0000
  Fe  Fe316     1.0  0.18102  0.76209  0.37474  1.0000
  H   H2802     1.0  0.10643  0.76532  0.26872  1.0000
  S   S629      1.0  0.16173  0.79984  0.37401  1.0000
  S   S630      1.0  0.15828  0.76817  0.38287  1.0000
  Fe  Fe317     1.0  0.17716  0.85979  0.26249  1.0000
  S   S631      1.0  0.19827  0.84703  0.26294  1.0000
  S   S632      1.0  0.16763  0.86187  0.24510  1.0000
  Fe  Fe318     1.0  0.17373  0.86808  0.28908  1.0000
  S   S633      1.0  0.19462  0.85595  0.29181  1.0000
  S   S634      1.0  0.15814  0.87694  0.30602  1.0000
  Fe  Fe319     1.0  0.20157  0.86426  0.26944  1.0000
  S   S635      1.0  0.22231  0.86950  0.26145  1.0000
  Fe  Fe320     1.0  0.18951  0.84000  0.28497  1.0000
  S   S636      1.0  0.19317  0.81812  0.29528  1.0000
  S   S637      1.0  0.18101  0.87790  0.26719  1.0000
  S   S638      1.0  0.16802  0.85128  0.28403  1.0000
  H   H2803     1.0  0.12394  0.88061  0.47105  1.0000
  Fe  Fe321     1.0  0.14519  0.94254  0.33050  1.0000
  S   S639      1.0  0.12594  0.95897  0.33210  1.0000
  S   S640      1.0  0.15799  0.93572  0.31131  1.0000
  Fe  Fe322     1.0  0.14557  0.93825  0.36010  1.0000
  S   S641      1.0  0.12643  0.95440  0.36429  1.0000
  S   S642      1.0  0.15787  0.92313  0.37440  1.0000
  Fe  Fe323     1.0  0.11849  0.94520  0.35183  1.0000
  S   S643      1.0  0.09803  0.93919  0.36029  1.0000
  Fe  Fe324     1.0  0.13561  0.96687  0.34433  1.0000
  S   S644      1.0  0.13699  0.92827  0.34917  1.0000
  S   S645      1.0  0.15543  0.95128  0.34119  1.0000
  Fe  Fe325     1.0  0.07725  0.85822  0.33101  1.0000
  S   S646      1.0  0.06136  0.87769  0.32962  1.0000
  S   S647      1.0  0.08846  0.85130  0.31149  1.0000
  Fe  Fe326     1.0  0.07757  0.85738  0.36023  1.0000
  S   S648      1.0  0.06147  0.87684  0.36111  1.0000
  S   S649      1.0  0.09253  0.84611  0.37386  1.0000
  Fe  Fe327     1.0  0.05068  0.86814  0.35042  1.0000
  Fe  Fe328     1.0  0.07321  0.88472  0.34019  1.0000
  S   S650      1.0  0.08138  0.90371  0.32988  1.0000
  S   S651      1.0  0.06608  0.84796  0.35116  1.0000
  S   S652      1.0  0.08978  0.86591  0.34001  1.0000
  Fe  Fe329     1.0  0.12144  0.88109  0.43605  1.0000
  S   S653      1.0  0.10363  0.87390  0.45114  1.0000
  S   S654      1.0  0.11846  0.90374  0.42999  1.0000
  Fe  Fe330     1.0  0.13720  0.85237  0.43447  1.0000
  S   S655      1.0  0.15696  0.84021  0.42427  1.0000
  Fe  Fe331     1.0  0.10648  0.85961  0.43760  1.0000
  S   S656      1.0  0.08796  0.85855  0.43101  1.0000
  S   S657      1.0  0.12336  0.86781  0.42190  1.0000
  S   S658      1.0  0.13726  0.86669  0.44692  1.0000
  C   C2334     1.0  0.09131  0.85134  0.38888  1.0000
  C   C2335     1.0  0.10321  0.84913  0.39371  1.0000
  C   C2336     1.0  0.10238  0.85185  0.40635  1.0000
  C   C2337     1.0  0.08959  0.85655  0.41440  1.0000
  C   C2338     1.0  0.07774  0.85916  0.40938  1.0000
  C   C2339     1.0  0.07860  0.85672  0.39660  1.0000
  H   H2804     1.0  0.11310  0.84505  0.38782  1.0000
  H   H2805     1.0  0.11158  0.84971  0.41014  1.0000
  H   H2806     1.0  0.06781  0.86285  0.41553  1.0000
  H   H2807     1.0  0.06936  0.85845  0.39300  1.0000
  C   C2340     1.0  0.14723  0.91787  0.39012  1.0000
  C   C2341     1.0  0.13482  0.92648  0.39469  1.0000
  C   C2342     1.0  0.12624  0.92221  0.40717  1.0000
  C   C2343     1.0  0.12992  0.90920  0.41500  1.0000
  C   C2344     1.0  0.14229  0.90047  0.41043  1.0000
  C   C2345     1.0  0.15103  0.90488  0.39804  1.0000
  H   H2808     1.0  0.13194  0.93657  0.38875  1.0000
  H   H2809     1.0  0.11665  0.92896  0.41066  1.0000
  H   H2810     1.0  0.14513  0.89036  0.41645  1.0000
  H   H2811     1.0  0.16064  0.89818  0.39455  1.0000
  C   C2346     1.0  0.09376  0.92901  0.35190  1.0000
  C   C2347     1.0  0.08352  0.92167  0.35878  1.0000
  C   C2348     1.0  0.07992  0.91351  0.35230  1.0000
  C   C2349     1.0  0.08625  0.91301  0.33874  1.0000
  C   C2350     1.0  0.09642  0.92043  0.33184  1.0000
  C   C2351     1.0  0.10032  0.92823  0.33845  1.0000
  H   H2812     1.0  0.07829  0.92233  0.36912  1.0000
  H   H2813     1.0  0.07200  0.90792  0.35765  1.0000
  H   H2814     1.0  0.10128  0.92015  0.32132  1.0000
  H   H2815     1.0  0.10817  0.93391  0.33304  1.0000
  C   C2352     1.0  0.21588  0.76802  0.35189  1.0000
  C   C2353     1.0  0.13252  0.81709  0.30774  1.0000
  C   C2354     1.0  0.23517  0.77457  0.33477  1.0000
  H   H2816     1.0  0.11645  0.91804  0.46556  1.0000
  C   C2355     1.0  0.00867  0.84663  0.34634  1.0000
  C   C2356     1.0  0.14745  0.84087  0.23365  1.0000
  H   H2817     1.0  0.14378  0.83499  0.34923  1.0000
  C   C2357     1.0  0.08259  0.75136  0.26706  1.0000
  H   H2818     1.0  0.11483  0.76735  0.24328  1.0000
  C   C2358     1.0  0.15800  0.89341  0.30709  1.0000
  C   C2359     1.0  0.14803  0.89944  0.31710  1.0000
  C   C2360     1.0  0.14776  0.91252  0.31831  1.0000
  C   C2361     1.0  0.15760  0.91957  0.30961  1.0000
  C   C2362     1.0  0.16752  0.91356  0.29954  1.0000
  C   C2363     1.0  0.16772  0.90051  0.29827  1.0000
  H   H2819     1.0  0.14043  0.89400  0.32386  1.0000
  H   H2820     1.0  0.13987  0.91718  0.32587  1.0000
  H   H2821     1.0  0.17514  0.91897  0.29275  1.0000
  H   H2822     1.0  0.17546  0.89592  0.29052  1.0000
  C   C2364     1.0  0.22798  0.87267  0.24367  1.0000
  C   C2365     1.0  0.09668  0.76715  0.27646  1.0000
  H   H2823     1.0  0.24916  0.86362  0.24431  1.0000
  H   H2824     1.0  0.18010  0.96930  0.29230  1.0000
  C   C2366     1.0  0.15376  0.80083  0.41590  1.0000
  C   C2367     1.0  0.14503  0.80570  0.42720  1.0000
  C   C2368     1.0  0.14582  0.81789  0.42971  1.0000
  C   C2369     1.0  0.15555  0.82511  0.42108  1.0000
  C   C2370     1.0  0.16449  0.82007  0.40994  1.0000
  C   C2371     1.0  0.16348  0.80803  0.40725  1.0000
  H   H2825     1.0  0.13758  0.80008  0.43396  1.0000
  H   H2826     1.0  0.13908  0.82152  0.43845  1.0000
  H   H2827     1.0  0.17212  0.82554  0.40330  1.0000
  H   H2828     1.0  0.17036  0.80425  0.39858  1.0000
  C   C2372     1.0  0.19590  0.81117  0.33913  1.0000
  C   C2373     1.0  0.20581  0.81678  0.32871  1.0000
  C   C2374     1.0  0.20466  0.81962  0.31515  1.0000
  C   C2375     1.0  0.19375  0.81662  0.31209  1.0000
  C   C2376     1.0  0.18360  0.81155  0.32255  1.0000
  C   C2377     1.0  0.18450  0.80914  0.33606  1.0000
  H   H2829     1.0  0.21459  0.81846  0.33106  1.0000
  H   H2830     1.0  0.21251  0.82359  0.30702  1.0000
  H   H2831     1.0  0.17518  0.80923  0.32017  1.0000
  H   H2832     1.0  0.17651  0.80541  0.34407  1.0000
  H   H2833     1.0  0.00282  0.88293  0.31998  1.0000
  H   H2834     1.0  0.14854  0.85198  0.31968  1.0000
  S   S659      1.0  0.02713  0.87240  0.35447  1.0000
  H   H2835     1.0  0.20982  0.77864  0.34997  1.0000
  H   H2836     1.0  0.20973  0.74940  0.38218  1.0000
  H   H2837     1.0  0.11511  0.81764  0.42873  1.0000
  C   C2378     1.0  0.15223  0.82830  0.31132  1.0000
  C   C2379     1.0  0.09252  0.80964  0.30329  1.0000
  C   C2380     1.0  0.08525  0.81245  0.31604  1.0000
  C   C2381     1.0  0.08410  0.82512  0.31892  1.0000
  C   C2382     1.0  0.09005  0.83503  0.30893  1.0000
  C   C2383     1.0  0.09708  0.83226  0.29617  1.0000
  C   C2384     1.0  0.09834  0.81963  0.29337  1.0000
  H   H2838     1.0  0.08075  0.80472  0.32376  1.0000
  H   H2839     1.0  0.07865  0.82719  0.32881  1.0000
  H   H2840     1.0  0.10149  0.83992  0.28832  1.0000
  H   H2841     1.0  0.10361  0.81770  0.28339  1.0000
  C   C2385     1.0  0.15503  0.78105  0.31101  1.0000
  C   C2386     1.0  0.16436  0.78347  0.31690  1.0000
  C   C2387     1.0  0.16001  0.78701  0.32961  1.0000
  C   C2388     1.0  0.14632  0.78801  0.33661  1.0000
  C   C2389     1.0  0.13684  0.78607  0.33052  1.0000
  C   C2390     1.0  0.14119  0.78257  0.31772  1.0000
  H   H2842     1.0  0.17499  0.78265  0.31157  1.0000
  H   H2843     1.0  0.16726  0.78899  0.33396  1.0000
  H   H2844     1.0  0.12619  0.78698  0.33580  1.0000
  H   H2845     1.0  0.13390  0.78080  0.31318  1.0000
  C   C2391     1.0  0.14674  0.82927  0.24406  1.0000
  H   H2846     1.0  0.24114  0.77381  0.34234  1.0000
  H   H2847     1.0  0.09948  0.91965  0.47627  1.0000
  C   C2392     1.0  0.16006  0.84886  0.24497  1.0000
  C   C2393     1.0  0.15953  0.83719  0.25544  1.0000
  C   C2394     1.0  0.15279  0.82740  0.25502  1.0000
  C   C2395     1.0  0.13321  0.88303  0.28280  1.0000
  N   N156      1.0  0.09326  0.75409  0.28461  1.0000
  H   H2848     1.0  0.16422  0.83574  0.26386  1.0000
  H   H2849     1.0  0.15238  0.81840  0.26305  1.0000
  C   C2396     1.0  0.32212  0.76239  0.23191  1.0000
  H   H2850     1.0  0.03006  0.84161  0.30298  1.0000
  C   C2397     1.0  0.11116  0.75384  0.23302  1.0000
  C   C2398     1.0  0.12228  0.89454  0.30148  1.0000
  C   C2399     1.0  0.12664  0.74698  0.24847  1.0000
  H   H2851     1.0  0.00536  0.84782  0.30544  1.0000
  C   C2400     1.0  0.17886  0.88964  0.36270  1.0000
  C   C2401     1.0  0.10863  0.81207  0.40060  1.0000
  S   S660      1.0  0.12041  0.84309  0.44945  1.0000
  H   H2852     1.0  0.13282  0.79260  0.39625  1.0000
  H   H2853     1.0  0.13129  0.81218  0.37006  1.0000
  H   H2854     1.0  0.08051  0.76285  0.30157  1.0000
  H   H2855     1.0  0.13301  0.81631  0.38485  1.0000
  C   C2402     1.0  0.12341  0.87475  0.28717  1.0000
  C   C2403     1.0  0.01517  0.86515  0.35110  1.0000
  H   H2856     1.0  0.99891  0.88300  0.35292  1.0000
  H   H2857     1.0  0.18122  0.84539  0.35267  1.0000
  C   C2404     1.0  0.11013  0.86704  0.27628  1.0000
  H   H2858     1.0  0.17828  0.89209  0.32437  1.0000
  H   H2859     1.0  0.11952  0.82641  0.37646  1.0000
  H   H2860     1.0  0.13076  0.89549  0.46284  1.0000
  H   H2861     1.0  0.11015  0.85985  0.27018  1.0000
  C   C2405     1.0  0.22045  0.75414  0.32326  1.0000
  C   C2406     1.0  0.16683  0.74698  0.32681  1.0000
  C   C2407     1.0  0.15498  0.97323  0.30783  1.0000
  C   C2408     1.0  0.16300  0.81022  0.46886  1.0000
  H   H2862     1.0  0.10164  0.86577  0.28539  1.0000
  H   H2863     1.0  0.07671  0.82688  0.41718  1.0000
  C   C2409     1.0  0.13788  0.85146  0.32543  1.0000
  C   C2410     1.0  0.09512  0.82239  0.42445  1.0000
  C   C2411     1.0  0.32516  0.75173  0.24283  1.0000
  C   C2412     1.0  0.15197  0.83386  0.46311  1.0000
  H   H2864     1.0  0.10314  0.91505  0.46005  1.0000
  H   H2865     1.0  0.16362  0.80069  0.47684  1.0000
  H   H2866     1.0  0.07681  0.74744  0.30048  1.0000
  H   H2867     1.0  0.19829  0.78885  0.30902  1.0000
  C   C2413     1.0  0.00899  0.87414  0.31592  1.0000
  H   H2868     1.0  0.13296  0.90680  0.47757  1.0000
  C   C2414     1.0  0.17527  0.88034  0.34547  1.0000
  H   H2869     1.0  0.02743  0.87693  0.31848  1.0000
  H   H2870     1.0  0.15213  0.90139  0.36497  1.0000
  H   H2871     1.0  0.15725  0.75381  0.33121  1.0000
  H   H2872     1.0  0.04896  0.87582  0.30734  1.0000
  H   H2873     1.0  0.04396  0.85924  0.32888  1.0000
  H   H2874     1.0  0.21529  0.74677  0.30848  1.0000
  C   C2415     1.0  0.21914  0.76545  0.32888  1.0000
  C   C2416     1.0  0.02316  0.87066  0.31488  1.0000
  C   C2417     1.0  0.15599  0.89283  0.35955  1.0000
  C   C2418     1.0  0.24199  0.86879  0.23783  1.0000
  H   H2875     1.0  0.16506  0.90820  0.33588  1.0000
  H   H2876     1.0  0.16879  0.91358  0.34878  1.0000
  C   C2419     1.0  0.01855  0.85195  0.34885  1.0000
  H   H2877     1.0  0.18262  0.90511  0.33733  1.0000
  H   H2878     1.0  0.04495  0.84199  0.32860  1.0000
  C   C2420     1.0  0.17187  0.90520  0.34317  1.0000
  H   H2879     1.0  0.22073  0.76710  0.36040  1.0000
  C   C2421     1.0  0.18017  0.96719  0.31905  1.0000
  H   H2880     1.0  0.13386  0.85681  0.26158  1.0000
  C   C2422     1.0  0.21077  0.77794  0.32358  1.0000
  H   H2881     1.0  0.13102  0.85687  0.31825  1.0000
  C   C2423     1.0  0.14611  0.83038  0.34025  1.0000
  N   N157      1.0  0.16440  0.98261  0.30410  1.0000
  H   H2882     1.0  0.12024  0.84348  0.34821  1.0000
  H   H2883     1.0  0.11896  0.82491  0.32432  1.0000
  H   H2884     1.0  0.11422  0.84321  0.33400  1.0000
  H   H2885     1.0  0.12044  0.82746  0.34516  1.0000
  N   N158      1.0  0.17672  0.74207  0.33584  1.0000
  C   C2424     1.0  0.11269  0.88642  0.30616  1.0000
  H   H2886     1.0  0.02868  0.84574  0.34934  1.0000
  C   C2425     1.0  0.11594  0.81223  0.41009  1.0000
  H   H2887     1.0  0.19003  0.88782  0.35794  1.0000
  H   H2888     1.0  0.10102  0.81673  0.37583  1.0000
  C   C2426     1.0  0.01046  0.85433  0.30776  1.0000
  H   H2889     1.0  0.16134  0.80798  0.45972  1.0000
  Fe  Fe332     1.0  0.11957  0.85844  0.46124  1.0000
  C   C2427     1.0  0.02469  0.85086  0.30646  1.0000
  H   H2890     1.0  0.11437  0.74523  0.28584  1.0000
  C   C2428     1.0  0.05255  0.86750  0.30167  1.0000
  C   C2429     1.0  0.11732  0.75708  0.24174  1.0000
  H   H2891     1.0  0.20916  0.78697  0.32740  1.0000
  C   C2430     1.0  0.99525  0.85437  0.34614  1.0000
  H   H2892     1.0  0.20121  0.76899  0.29942  1.0000
  H   H2893     1.0  0.14918  0.97487  0.29988  1.0000
  C   C2431     1.0  0.12122  0.89157  0.46636  1.0000
  H   H2894     1.0  0.12694  0.84260  0.28341  1.0000
  H   H2895     1.0  0.20325  0.83300  0.23986  1.0000
  H   H2896     1.0  0.16371  0.73843  0.32500  1.0000
  H   H2897     1.0  0.14476  0.86154  0.26897  1.0000
  H   H2898     1.0  0.10447  0.75354  0.29932  1.0000
  C   C2432     1.0  0.13425  0.86438  0.26703  1.0000
  H   H2899     1.0  0.11800  0.84953  0.29806  1.0000
  H   H2900     1.0  0.11278  0.80213  0.37064  1.0000
  H   H2901     1.0  0.13611  0.84860  0.29187  1.0000
  H   H2902     1.0  0.01142  0.83641  0.34463  1.0000
  C   C2433     1.0  0.17953  0.75420  0.33822  1.0000
  H   H2903     1.0  0.07157  0.76328  0.28924  1.0000
  N   N159      1.0  0.12359  0.86445  0.27985  1.0000
  C   C2434     1.0  0.12624  0.85072  0.28870  1.0000
  H   H2904     1.0  0.17322  0.81284  0.46570  1.0000
  C   C2435     1.0  0.04900  0.85120  0.32289  1.0000
  C   C2436     1.0  0.21403  0.75546  0.31275  1.0000
  H   H2905     1.0  0.18657  0.75154  0.34521  1.0000
  H   H2906     1.0  0.10471  0.88780  0.31520  1.0000
  C   C2437     1.0  0.20444  0.77913  0.31307  1.0000
  H   H2907     1.0  0.24000  0.75069  0.35191  1.0000
  H   H2908     1.0  0.08865  0.77365  0.27098  1.0000
  H   H2909     1.0  0.05119  0.83448  0.30740  1.0000
  H   H2910     1.0  0.31862  0.75261  0.25269  1.0000
  C   C2438     1.0  0.03151  0.85905  0.30986  1.0000
  H   H2911     1.0  0.10557  0.87059  0.30326  1.0000
  C   C2439     1.0  0.11324  0.87663  0.29918  1.0000
  C   C2440     1.0  0.07995  0.75701  0.29439  1.0000
  H   H2912     1.0  0.06530  0.84244  0.30054  1.0000
  H   H2913     1.0  0.09949  0.79987  0.38568  1.0000
  H   H2914     1.0  0.18586  0.87275  0.31379  1.0000
  N   N160      1.0  0.04650  0.85552  0.30897  1.0000
  C   C2441     1.0  0.00168  0.87281  0.35110  1.0000
  H   H2915     1.0  0.06013  0.84874  0.32276  1.0000
  S   S661      1.0  0.19097  0.74059  0.37212  1.0000
  H   H2916     1.0  0.12184  0.90211  0.30693  1.0000
  S   S662      1.0  0.14108  0.79121  0.35313  1.0000
  N   N161      1.0  0.13624  0.83728  0.33134  1.0000
  H   H2917     1.0  0.22865  0.74310  0.34812  1.0000
  H   H2918     1.0  0.11770  0.89234  0.45709  1.0000
  N   N162      1.0  0.10674  0.89810  0.39039  1.0000
  C   C2442     1.0  0.10204  0.91301  0.38929  1.0000
  C   C2443     1.0  0.09747  0.89151  0.40242  1.0000
  C   C2444     1.0  0.12074  0.89379  0.39302  1.0000
  C   C2445     1.0  0.10712  0.89456  0.37755  1.0000
  C   C2446     1.0  0.09974  0.88529  0.37694  1.0000
  C   C2447     1.0  0.11543  0.90016  0.36518  1.0000
  C   C2448     1.0  0.10061  0.88200  0.36464  1.0000
  C   C2449     1.0  0.11626  0.89676  0.35295  1.0000
  C   C2450     1.0  0.10883  0.88772  0.35268  1.0000
  H   H2919     1.0  0.10925  0.91877  0.38149  1.0000
  H   H2920     1.0  0.09190  0.91686  0.38646  1.0000
  H   H2921     1.0  0.10111  0.91593  0.39900  1.0000
  H   H2922     1.0  0.10083  0.88025  0.40433  1.0000
  H   H2923     1.0  0.08668  0.89448  0.40118  1.0000
  H   H2924     1.0  0.09735  0.89443  0.41190  1.0000
  H   H2925     1.0  0.12788  0.89988  0.38557  1.0000
  H   H2926     1.0  0.12066  0.89508  0.40318  1.0000
  H   H2927     1.0  0.12517  0.88289  0.39270  1.0000
  H   H2928     1.0  0.09310  0.88052  0.38577  1.0000
  H   H2929     1.0  0.12104  0.90750  0.36484  1.0000
  H   H2930     1.0  0.09464  0.87517  0.36436  1.0000
  H   H2931     1.0  0.12221  0.90163  0.34355  1.0000
  H   H2932     1.0  0.10904  0.88554  0.34310  1.0000
  C   C2451     1.0  0.10396  0.74718  0.29261  1.0000
  C   C2452     1.0  0.13251  0.89284  0.28984  1.0000
  H   H2933     1.0  0.33101  0.73989  0.26858  1.0000
  H   H2934     1.0  0.17315  0.86454  0.36405  1.0000
  H   H2935     1.0  0.14947  0.89456  0.35217  1.0000
  C   C2453     1.0  0.18496  0.97437  0.33693  1.0000
  H   H2936     1.0  0.17704  0.88091  0.37127  1.0000
  C   C2454     1.0  0.18415  0.85787  0.33255  1.0000
  H   H2937     1.0  0.12695  0.80862  0.40841  1.0000
  H   H2938     1.0  0.18760  0.84932  0.32757  1.0000
  H   H2939     1.0  0.14161  0.88211  0.27404  1.0000
  C   C2455     1.0  0.09793  0.89365  0.47880  1.0000
  N   N163      1.0  0.11046  0.89900  0.47600  1.0000
  C   C2456     1.0  0.18328  0.87107  0.32480  1.0000
  N   N164      1.0  0.17062  0.89186  0.35249  1.0000
  H   H2940     1.0  0.13728  0.81570  0.46646  1.0000
  H   H2941     1.0  0.09436  0.89508  0.46933  1.0000
  H   H2942     1.0  0.07592  0.76132  0.26707  1.0000
  C   C2457     1.0  0.09223  0.74603  0.27550  1.0000
  H   H2943     1.0  0.16048  0.96240  0.30935  1.0000
  C   C2458     1.0  0.10724  0.91357  0.46924  1.0000
  H   H2944     1.0  0.22921  0.78528  0.33294  1.0000
  H   H2945     1.0  0.11782  0.78612  0.39917  1.0000
  C   C2459     1.0  0.20611  0.76795  0.30762  1.0000
  H   H2946     1.0  0.09796  0.77333  0.28294  1.0000
  C   C2460     1.0  0.17455  0.98013  0.29142  1.0000
  H   H2947     1.0  0.17430  0.82835  0.47664  1.0000
  C   C2461     1.0  0.21502  0.74010  0.37872  1.0000
  C   C2462     1.0  0.09421  0.81740  0.40355  1.0000
  H   H2948     1.0  0.05001  0.87170  0.29150  1.0000
  S   S663      1.0  0.13439  0.75012  0.25997  1.0000
  N   N165      1.0  0.22620  0.76464  0.33963  1.0000
  H   H2949     1.0  0.20858  0.76115  0.35556  1.0000
  H   H2950     1.0  0.24257  0.77292  0.32507  1.0000
  H   H2951     1.0  0.15686  0.83097  0.33490  1.0000
  C   C2463     1.0  0.10687  0.80640  0.37976  1.0000
  H   H2952     1.0  0.15431  0.88344  0.36727  1.0000
  C   C2464     1.0  0.12428  0.79291  0.39172  1.0000
  H   H2953     1.0  0.12920  0.78831  0.38265  1.0000
  H   H2954     1.0  0.06394  0.86491  0.30015  1.0000
  C   C2465     1.0  0.12539  0.81584  0.37950  1.0000
  H   H2955     1.0  0.22646  0.74419  0.32669  1.0000
  H   H2956     1.0  0.18156  0.95900  0.31405  1.0000
  H   H2957     1.0  0.09004  0.82676  0.43331  1.0000
  C   C2466     1.0  0.17887  0.88218  0.33107  1.0000
  H   H2958     1.0  0.20795  0.88253  0.23974  1.0000
  H   H2959     1.0  0.13301  0.87443  0.25984  1.0000
  C   C2467     1.0  0.11433  0.74054  0.23087  1.0000
  C   C2468     1.0  0.18052  0.85571  0.34667  1.0000
  H   H2960     1.0  0.10747  0.87756  0.27024  1.0000
  C   C2469     1.0  0.10926  0.81733  0.42181  1.0000
  C   C2470     1.0  0.17603  0.86675  0.35308  1.0000
  N   N166      1.0  0.11604  0.80690  0.38811  1.0000
  H   H2961     1.0  0.13548  0.85746  0.33338  1.0000
  H   H2962     1.0  0.14018  0.89895  0.28646  1.0000
  H   H2963     1.0  0.14596  0.81938  0.34399  1.0000
  C   C2471     1.0  0.08763  0.82243  0.41534  1.0000
  H   H2964     1.0  0.12496  0.81251  0.30643  1.0000
  C   C2472     1.0  0.15541  0.82105  0.30109  1.0000
  C   C2473     1.0  0.14563  0.81540  0.29935  1.0000
  H   H2965     1.0  0.16027  0.83241  0.31227  1.0000
  H   H2966     1.0  0.16562  0.81958  0.29460  1.0000
  H   H2967     1.0  0.14840  0.80947  0.29163  1.0000
  H   H2968     1.0  0.17629  0.89859  0.36744  1.0000
  H   H2969     1.0  0.15972  0.74060  0.35323  1.0000
  H   H2970     1.0  0.12973  0.82575  0.47899  1.0000
  C   C2474     1.0  0.13911  0.82997  0.32027  1.0000
  C   C2475     1.0  0.12218  0.83784  0.34003  1.0000
  H   H2971     1.0  0.14401  0.84245  0.46673  1.0000
  C   C2476     1.0  0.12924  0.82423  0.31810  1.0000
  H   H2972     1.0  0.05208  0.84673  0.29132  1.0000
  H   H2973     1.0  0.08784  0.81824  0.39672  1.0000
  C   C2477     1.0  0.05400  0.84432  0.30172  1.0000
  H   H2974     1.0  0.18422  0.76047  0.32857  1.0000
  C   C2478     1.0  0.23487  0.75099  0.34380  1.0000
  C   C2479     1.0  0.00264  0.86597  0.31240  1.0000
  H   H2975     1.0  0.07444  0.74850  0.25151  1.0000
  H   H2976     1.0  0.14989  0.83267  0.45371  1.0000
  C   C2480     1.0  0.08157  0.74409  0.25818  1.0000
  H   H2977     1.0  0.16199  0.83691  0.45995  1.0000
  H   H2978     1.0  0.19297  0.95438  0.33272  1.0000
  H   H2979     1.0  0.14736  0.97464  0.31745  1.0000
  N   N167      1.0  0.15189  0.82129  0.47385  1.0000
  C   C2481     1.0  0.13862  0.81748  0.47595  1.0000
  H   H2980     1.0  0.14647  0.98292  0.36276  1.0000
  H   H2981     1.0  0.14286  0.86215  0.47633  1.0000
  C   C2482     1.0  0.21874  0.87939  0.23528  1.0000
  H   H2982     1.0  0.31361  0.77096  0.23359  1.0000
  C   C2483     1.0  0.33639  0.74047  0.24086  1.0000
  C   C2484     1.0  0.18673  0.96441  0.32976  1.0000
  H   H2983     1.0  0.19715  0.85716  0.23376  1.0000
  H   H2984     1.0  0.10190  0.73739  0.29931  1.0000
  H   H2985     1.0  0.18982  0.97212  0.34541  1.0000
  H   H2986     1.0  0.24318  0.74791  0.33515  1.0000
  H   H2987     1.0  0.35494  0.73870  0.25484  1.0000
  C   C2485     1.0  0.17158  0.98008  0.31521  1.0000
  C   C2486     1.0  0.15403  0.85061  0.23412  1.0000
  H   H2988     1.0  0.16955  0.98257  0.28269  1.0000
  H   H2989     1.0  0.22120  0.83221  0.23247  1.0000
  Fe  Fe333     1.0  0.22522  0.83027  0.64388  1.0000
  S   S664      1.0  0.23687  0.80861  0.64638  1.0000
  S   S665      1.0  0.22996  0.84828  0.64769  1.0000
  Fe  Fe334     1.0  0.20217  0.82497  0.63524  1.0000
  S   S666      1.0  0.21140  0.80259  0.63714  1.0000
  S   S667      1.0  0.18264  0.83831  0.62934  1.0000
  Fe  Fe335     1.0  0.21630  0.80371  0.65623  1.0000
  S   S668      1.0  0.21697  0.78661  0.67445  1.0000
  Fe  Fe336     1.0  0.23149  0.80877  0.62713  1.0000
  S   S669      1.0  0.24557  0.79712  0.61139  1.0000
  S   S670      1.0  0.20504  0.82537  0.65552  1.0000
  S   S671      1.0  0.22184  0.83113  0.62346  1.0000
  H   H2990     1.0  0.26948  0.85695  0.71874  1.0000
  S   S672      1.0  0.14086  0.81721  0.69818  1.0000
  H   H2991     1.0  0.13509  0.91225  0.70381  1.0000
  C   C2487     1.0  0.03530  0.82000  0.61386  1.0000
  H   H2992     1.0  0.21897  0.81362  0.69739  1.0000
  Fe  Fe337     1.0  0.22903  0.85765  0.71505  1.0000
  C   C2488     1.0  0.18702  0.81005  0.71423  1.0000
  S   S673      1.0  0.24296  0.84085  0.70500  1.0000
  H   H2993     1.0  0.01453  0.83545  0.60513  1.0000
  H   H2994     1.0  0.03530  0.81915  0.60352  1.0000
  C   C2489     1.0  0.15672  0.85093  0.71514  1.0000
  Fe  Fe338     1.0  0.21237  0.88650  0.71357  1.0000
  S   S674      1.0  0.20665  0.90623  0.69886  1.0000
  C   C2490     1.0  0.13429  0.85064  0.65707  1.0000
  S   S675      1.0  0.23399  0.87674  0.71625  1.0000
  H   H2995     1.0  0.21359  0.83620  0.70293  1.0000
  H   H2996     1.0  0.10833  0.87971  0.71394  1.0000
  H   H2997     1.0  0.15904  0.86361  0.63206  1.0000
  C   C2491     1.0  0.17332  0.86115  0.71876  1.0000
  C   C2492     1.0  0.13143  0.88025  0.72132  1.0000
  H   H2998     1.0  0.02462  0.87998  0.60105  1.0000
  H   H2999     1.0  0.19837  0.83319  0.72335  1.0000
  S   S676      1.0  0.29763  0.75663  0.63117  1.0000
  H   H3000     1.0  0.04037  0.85940  0.60963  1.0000
  C   C2493     1.0  0.12396  0.86264  0.65850  1.0000
  Fe  Fe339     1.0  0.14748  0.91810  0.63115  1.0000
  S   S677      1.0  0.15944  0.90384  0.61693  1.0000
  Fe  Fe340     1.0  0.14760  0.91841  0.66009  1.0000
  S   S678      1.0  0.12808  0.93442  0.66235  1.0000
  S   S679      1.0  0.15609  0.90453  0.67778  1.0000
  Fe  Fe341     1.0  0.12032  0.92299  0.65195  1.0000
  S   S680      1.0  0.10060  0.91570  0.66164  1.0000
  S   S681      1.0  0.13897  0.90629  0.65147  1.0000
  S   S682      1.0  0.15761  0.92930  0.63969  1.0000
  Fe  Fe342     1.0  0.15169  0.84711  0.56899  1.0000
  S   S683      1.0  0.15772  0.86586  0.55466  1.0000
  S   S684      1.0  0.16580  0.82944  0.57958  1.0000
  Fe  Fe343     1.0  0.12248  0.85611  0.56548  1.0000
  S   S685      1.0  0.12577  0.87567  0.55120  1.0000
  S   S686      1.0  0.10245  0.85012  0.57016  1.0000
  Fe  Fe344     1.0  0.14535  0.86295  0.54146  1.0000
  S   S687      1.0  0.15229  0.86526  0.51851  1.0000
  Fe  Fe345     1.0  0.13758  0.87675  0.56571  1.0000
  S   S688      1.0  0.13264  0.89637  0.57286  1.0000
  S   S689      1.0  0.14122  0.84323  0.55487  1.0000
  S   S690      1.0  0.13238  0.85821  0.58089  1.0000
  Fe  Fe346     1.0  0.04976  0.86396  0.66352  1.0000
  S   S691      1.0  0.04040  0.88444  0.65212  1.0000
  S   S692      1.0  0.05113  0.85989  0.68533  1.0000
  Fe  Fe347     1.0  0.06026  0.85204  0.63863  1.0000
  S   S693      1.0  0.05212  0.87135  0.62496  1.0000
  S   S694      1.0  0.07188  0.83328  0.63074  1.0000
  Fe  Fe348     1.0  0.06007  0.88151  0.63644  1.0000
  S   S695      1.0  0.07301  0.89690  0.62526  1.0000
  Fe  Fe349     1.0  0.03306  0.87253  0.64166  1.0000
  S   S696      1.0  0.01243  0.88048  0.63555  1.0000
  S   S697      1.0  0.06994  0.86200  0.64853  1.0000
  S   S698      1.0  0.04067  0.85226  0.65459  1.0000
  H   H3001     1.0  0.28280  0.78278  0.63578  1.0000
  C   C2494     1.0  0.11818  0.90783  0.69294  1.0000
  C   C2495     1.0  0.12915  0.89251  0.71145  1.0000
  C   C2496     1.0  0.14231  0.86190  0.50913  1.0000
  C   C2497     1.0  0.13007  0.85755  0.51551  1.0000
  C   C2498     1.0  0.12235  0.85506  0.50773  1.0000
  C   C2499     1.0  0.12741  0.90210  0.48727  1.0000
  H   H3002     1.0  0.15461  0.84177  0.64681  1.0000
  C   C2500     1.0  0.15415  0.82367  0.48625  1.0000
  H   H3003     1.0  0.12654  0.85615  0.52643  1.0000
  C   C2501     1.0  0.03909  0.83285  0.62755  1.0000
  H   H3004     1.0  0.26538  0.76886  0.66469  1.0000
  H   H3005     1.0  0.13881  0.82537  0.51953  1.0000
  C   C2502     1.0  0.09607  0.84483  0.58757  1.0000
  C   C2503     1.0  0.09261  0.85383  0.59629  1.0000
  C   C2504     1.0  0.08526  0.85030  0.60967  1.0000
  C   C2505     1.0  0.08208  0.83748  0.61452  1.0000
  C   C2506     1.0  0.08660  0.82807  0.60615  1.0000
  C   C2507     1.0  0.09323  0.83189  0.59256  1.0000
  H   H3006     1.0  0.09502  0.86374  0.59254  1.0000
  H   H3007     1.0  0.08194  0.85756  0.61616  1.0000
  H   H3008     1.0  0.08443  0.81804  0.60998  1.0000
  H   H3009     1.0  0.09601  0.82488  0.58585  1.0000
  C   C2508     1.0  0.09288  0.91089  0.65127  1.0000
  C   C2509     1.0  0.08133  0.90520  0.65728  1.0000
  C   C2510     1.0  0.07533  0.90066  0.64941  1.0000
  C   C2511     1.0  0.08052  0.90227  0.63539  1.0000
  C   C2512     1.0  0.09189  0.90824  0.62932  1.0000
  C   C2513     1.0  0.09821  0.91232  0.63727  1.0000
  H   H3010     1.0  0.07711  0.90412  0.66810  1.0000
  H   H3011     1.0  0.06652  0.89614  0.65417  1.0000
  H   H3012     1.0  0.09591  0.90961  0.61846  1.0000
  H   H3013     1.0  0.10708  0.91673  0.63254  1.0000
  C   C2514     1.0  0.15139  0.90119  0.60543  1.0000
  C   C2515     1.0  0.15768  0.89053  0.59852  1.0000
  C   C2516     1.0  0.15181  0.88863  0.58880  1.0000
  C   C2517     1.0  0.13973  0.89755  0.58581  1.0000
  C   C2518     1.0  0.13330  0.90802  0.59293  1.0000
  C   C2519     1.0  0.13902  0.90975  0.60282  1.0000
  H   H3014     1.0  0.16724  0.88384  0.60052  1.0000
  H   H3015     1.0  0.15683  0.88055  0.58336  1.0000
  H   H3016     1.0  0.12399  0.91499  0.59064  1.0000
  H   H3017     1.0  0.13410  0.91799  0.60808  1.0000
  C   C2520     1.0  0.11434  0.88965  0.51287  1.0000
  S   S699      1.0  0.10737  0.81836  0.69097  1.0000
  N   N168      1.0  0.25270  0.75641  0.66320  1.0000
  C   C2521     1.0  0.13183  0.98173  0.67456  1.0000
  C   C2522     1.0  0.00574  0.85609  0.63750  1.0000
  H   H3018     1.0  0.25311  0.76686  0.64223  1.0000
  H   H3019     1.0  0.26733  0.82865  0.72305  1.0000
  N   N169      1.0  0.11081  0.86189  0.66854  1.0000
  H   H3020     1.0  0.01407  0.85125  0.64263  1.0000
  H   H3021     1.0  0.00017  0.83736  0.63874  1.0000
  H   H3022     1.0  0.08926  0.89892  0.48585  1.0000
  H   H3023     1.0  0.27140  0.75080  0.67035  1.0000
  H   H3024     1.0  0.17302  0.98059  0.61731  1.0000
  H   H3025     1.0  0.15769  0.96424  0.64629  1.0000
  H   H3026     1.0  0.11289  0.85173  0.51277  1.0000
  H   H3027     1.0  0.13444  0.82065  0.50003  1.0000
  C   C2523     1.0  0.21070  0.81769  0.69160  1.0000
  H   H3028     1.0  0.17783  0.83333  0.49666  1.0000
  C   C2524     1.0  0.19175  0.90707  0.69358  1.0000
  C   C2525     1.0  0.18875  0.91614  0.68163  1.0000
  C   C2526     1.0  0.17763  0.91576  0.67669  1.0000
  C   C2527     1.0  0.16955  0.90629  0.68373  1.0000
  C   C2528     1.0  0.17237  0.89752  0.69583  1.0000
  C   C2529     1.0  0.18332  0.89799  0.70081  1.0000
  H   H3029     1.0  0.19527  0.92317  0.67599  1.0000
  H   H3030     1.0  0.17553  0.92255  0.66732  1.0000
  H   H3031     1.0  0.16619  0.89015  0.70127  1.0000
  H   H3032     1.0  0.18536  0.89119  0.71017  1.0000
  N   N170      1.0  0.12093  0.89391  0.70149  1.0000
  H   H3033     1.0  0.26245  0.79868  0.62833  1.0000
  C   C2530     1.0  0.09092  0.82881  0.69089  1.0000
  C   C2531     1.0  0.08472  0.83761  0.69987  1.0000
  C   C2532     1.0  0.07221  0.84688  0.69846  1.0000
  C   C2533     1.0  0.06596  0.84738  0.68805  1.0000
  C   C2534     1.0  0.07198  0.83827  0.67940  1.0000
  C   C2535     1.0  0.08440  0.82900  0.68083  1.0000
  H   H3034     1.0  0.08964  0.83742  0.70773  1.0000
  H   H3035     1.0  0.06751  0.85385  0.70524  1.0000
  H   H3036     1.0  0.06706  0.83836  0.67156  1.0000
  H   H3037     1.0  0.08909  0.82214  0.67394  1.0000
  Fe  Fe350     1.0  0.13736  0.94479  0.64124  1.0000
  C   C2536     1.0  0.25442  0.74276  0.66063  1.0000
  H   H3038     1.0  0.06035  0.82309  0.60831  1.0000
  C   C2537     1.0  0.17789  0.83570  0.61564  1.0000
  C   C2538     1.0  0.18136  0.82283  0.61264  1.0000
  C   C2539     1.0  0.17744  0.82097  0.60164  1.0000
  C   C2540     1.0  0.17014  0.83198  0.59355  1.0000
  C   C2541     1.0  0.16646  0.84480  0.59669  1.0000
  C   C2542     1.0  0.17023  0.84664  0.60779  1.0000
  H   H3039     1.0  0.18696  0.81429  0.61888  1.0000
  H   H3040     1.0  0.18012  0.81099  0.59933  1.0000
  H   H3041     1.0  0.16087  0.85336  0.59046  1.0000
  H   H3042     1.0  0.16751  0.85664  0.61004  1.0000
  C   C2543     1.0  0.23423  0.84592  0.66336  1.0000
  C   C2544     1.0  0.23885  0.83293  0.67082  1.0000
  C   C2545     1.0  0.24191  0.83140  0.68346  1.0000
  C   C2546     1.0  0.24001  0.84283  0.68880  1.0000
  C   C2547     1.0  0.23537  0.85579  0.68134  1.0000
  C   C2548     1.0  0.23277  0.85731  0.66853  1.0000
  H   H3043     1.0  0.24022  0.82409  0.66678  1.0000
  H   H3044     1.0  0.24554  0.82136  0.68918  1.0000
  H   H3045     1.0  0.23401  0.86467  0.68531  1.0000
  H   H3046     1.0  0.22955  0.86735  0.66262  1.0000
  C   C2549     1.0  0.20111  0.78512  0.68543  1.0000
  C   C2550     1.0  0.20071  0.77446  0.69687  1.0000
  C   C2551     1.0  0.18823  0.77310  0.70600  1.0000
  C   C2552     1.0  0.17614  0.78252  0.70384  1.0000
  C   C2553     1.0  0.17651  0.79321  0.69237  1.0000
  C   C2554     1.0  0.18902  0.79448  0.68311  1.0000
  H   H3047     1.0  0.21006  0.76723  0.69869  1.0000
  C   C2555     1.0  0.01144  0.86937  0.59762  1.0000
  H   H3048     1.0  0.16718  0.80038  0.69055  1.0000
  H   H3049     1.0  0.18930  0.80268  0.67421  1.0000
  C   C2556     1.0  0.26026  0.78592  0.61651  1.0000
  C   C2557     1.0  0.26584  0.77366  0.61203  1.0000
  C   C2558     1.0  0.27738  0.76453  0.61634  1.0000
  C   C2559     1.0  0.28351  0.76779  0.62495  1.0000
  C   C2560     1.0  0.27804  0.78014  0.62921  1.0000
  C   C2561     1.0  0.26642  0.78912  0.62510  1.0000
  H   H3050     1.0  0.26115  0.77115  0.60534  1.0000
  H   H3051     1.0  0.28155  0.75504  0.61298  1.0000
  H   H3052     1.0  0.33533  0.74066  0.66699  1.0000
  C   C2562     1.0  0.14663  0.82560  0.51018  1.0000
  C   C2563     1.0  0.19381  0.82494  0.72386  1.0000
  H   H3053     1.0  0.18797  0.76484  0.71485  1.0000
  Fe  Fe351     1.0  0.11856  0.81731  0.70685  1.0000
  C   C2564     1.0  0.01753  0.84481  0.60405  1.0000
  H   H3054     1.0  0.12931  0.87362  0.69786  1.0000
  H   H3055     1.0  0.12778  0.91061  0.68626  1.0000
  H   H3056     1.0  0.15804  0.97182  0.60888  1.0000
  H   H3057     1.0  0.12757  0.87162  0.72157  1.0000
  C   C2565     1.0  0.13913  0.86097  0.48719  1.0000
  H   H3058     1.0  0.23305  0.75766  0.67740  1.0000
  H   H3059     1.0  0.04276  0.81090  0.61794  1.0000
  H   H3060     1.0  0.11966  0.88471  0.64999  1.0000
  H   H3061     1.0  0.12328  0.88589  0.68389  1.0000
  C   C2566     1.0  0.13939  0.87529  0.64038  1.0000
  H   H3062     1.0  0.19693  0.84734  0.70216  1.0000
  H   H3063     1.0  0.04660  0.82393  0.63181  1.0000
  H   H3064     1.0  0.04210  0.84197  0.62820  1.0000
  S   S700      1.0  0.11665  0.85346  0.48427  1.0000
  H   H3065     1.0  0.14139  0.88484  0.63381  1.0000
  H   H3066     1.0  0.05723  0.84103  0.60547  1.0000
  C   C2567     1.0  0.14062  0.97939  0.63993  1.0000
  H   H3067     1.0  0.14880  0.90884  0.72010  1.0000
  H   H3068     1.0  0.05324  0.83345  0.59407  1.0000
  S   S701      1.0  0.12804  0.93434  0.63088  1.0000
  H   H3069     1.0  0.09330  0.92082  0.58832  1.0000
  C   C2568     1.0  0.02937  0.84522  0.60801  1.0000
  C   C2569     1.0  0.13559  0.90285  0.71134  1.0000
  C   C2570     1.0  0.03177  0.85827  0.60655  1.0000
  C   C2571     1.0  0.14933  0.86334  0.63934  1.0000
  C   C2572     1.0  0.05300  0.83261  0.60493  1.0000
  H   H3070     1.0  0.16818  0.98082  0.65054  1.0000
  C   C2573     1.0  0.15871  0.82930  0.50939  1.0000
  H   H3071     1.0  0.15627  0.86688  0.48995  1.0000
  S   S702      1.0  0.20848  0.86775  0.71037  1.0000
  H   H3072     1.0  0.25404  0.85120  0.72275  1.0000
  C   C2574     1.0  0.02289  0.87014  0.60149  1.0000
  H   H3073     1.0  0.09155  0.87453  0.67680  1.0000
  C   C2575     1.0  0.12839  0.88439  0.69234  1.0000
  C   C2576     1.0  0.10741  0.89055  0.70861  1.0000
  H   H3074     1.0  0.24496  0.77739  0.65425  1.0000
  C   C2577     1.0  0.20500  0.83937  0.69757  1.0000
  C   C2578     1.0  0.15276  0.97493  0.64467  1.0000
  C   C2579     1.0  0.11341  0.85554  0.68235  1.0000
  C   C2580     1.0  0.10133  0.87536  0.66911  1.0000
  C   C2581     1.0  0.10362  0.85349  0.66494  1.0000
  H   H3075     1.0  0.11989  0.86079  0.68501  1.0000
  H   H3076     1.0  0.10369  0.85571  0.69027  1.0000
  H   H3077     1.0  0.11872  0.84462  0.68336  1.0000
  H   H3078     1.0  0.10595  0.88236  0.67179  1.0000
  H   H3079     1.0  0.09321  0.85357  0.67162  1.0000
  H   H3080     1.0  0.10221  0.85741  0.65436  1.0000
  H   H3081     1.0  0.10918  0.84265  0.66597  1.0000
  C   C2582     1.0  0.12686  0.87503  0.64979  1.0000
  H   H3082     1.0  0.09834  0.88023  0.65921  1.0000
  H   H3083     1.0  0.16021  0.83193  0.51809  1.0000
  S   S703      1.0  0.11547  0.83222  0.71983  1.0000
  C   C2583     1.0  0.11552  0.89743  0.48832  1.0000
  N   N171      1.0  0.03894  0.83284  0.61347  1.0000
  H   H3084     1.0  0.24284  0.76869  0.67822  1.0000
  C   C2584     1.0  0.14427  0.82290  0.49880  1.0000
  C   C2585     1.0  0.15725  0.98269  0.60695  1.0000
  C   C2586     1.0  0.26293  0.73926  0.64835  1.0000
  C   C2587     1.0  0.00280  0.87022  0.63309  1.0000
  H   H3085     1.0  0.19240  0.83890  0.67980  1.0000
  C   C2588     1.0  0.16642  0.82732  0.48587  1.0000
  N   N172      1.0  0.22045  0.82224  0.58379  1.0000
  C   C2589     1.0  0.21504  0.81361  0.59688  1.0000
  C   C2590     1.0  0.22393  0.81428  0.57309  1.0000
  C   C2591     1.0  0.23344  0.82501  0.58453  1.0000
  C   C2592     1.0  0.21016  0.83514  0.58125  1.0000
  C   C2593     1.0  0.20250  0.83828  0.57107  1.0000
  C   C2594     1.0  0.20721  0.84487  0.58936  1.0000
  C   C2595     1.0  0.19301  0.85063  0.56883  1.0000
  C   C2596     1.0  0.19775  0.85722  0.58699  1.0000
  C   C2597     1.0  0.19073  0.86014  0.57667  1.0000
  H   H3086     1.0  0.20565  0.81080  0.59655  1.0000
  H   H3087     1.0  0.22263  0.80397  0.59943  1.0000
  H   H3088     1.0  0.21236  0.81882  0.60549  1.0000
  H   H3089     1.0  0.23214  0.80497  0.57497  1.0000
  H   H3090     1.0  0.22768  0.82040  0.56288  1.0000
  H   H3091     1.0  0.21498  0.81061  0.57283  1.0000
  H   H3092     1.0  0.24175  0.81561  0.58529  1.0000
  H   H3093     1.0  0.23717  0.83255  0.57543  1.0000
  H   H3094     1.0  0.23236  0.82887  0.59371  1.0000
  H   H3095     1.0  0.20343  0.83129  0.56483  1.0000
  H   H3096     1.0  0.21201  0.84292  0.59778  1.0000
  H   H3097     1.0  0.18710  0.85269  0.56119  1.0000
  H   H3098     1.0  0.19557  0.86441  0.59342  1.0000
  H   H3099     1.0  0.18319  0.86960  0.57503  1.0000
  N   N173      1.0  0.12526  0.83196  0.62319  1.0000
  C   C2598     1.0  0.13696  0.82569  0.63000  1.0000
  C   C2599     1.0  0.11401  0.82479  0.63075  1.0000
  C   C2600     1.0  0.12954  0.82953  0.60917  1.0000
  C   C2601     1.0  0.12125  0.84679  0.62256  1.0000
  C   C2602     1.0  0.13118  0.85487  0.61681  1.0000
  C   C2603     1.0  0.10754  0.85371  0.62721  1.0000
  C   C2604     1.0  0.12775  0.86887  0.61603  1.0000
  C   C2605     1.0  0.10421  0.86777  0.62632  1.0000
  C   C2606     1.0  0.11431  0.87530  0.62086  1.0000
  H   H3100     1.0  0.13453  0.82819  0.64018  1.0000
  H   H3101     1.0  0.13964  0.81442  0.63143  1.0000
  H   H3102     1.0  0.14654  0.82908  0.62402  1.0000
  H   H3103     1.0  0.11014  0.82638  0.64136  1.0000
  H   H3104     1.0  0.11741  0.81362  0.63143  1.0000
  H   H3105     1.0  0.10525  0.82819  0.62561  1.0000
  H   H3106     1.0  0.13874  0.83361  0.60317  1.0000
  H   H3107     1.0  0.13229  0.81850  0.60910  1.0000
  H   H3108     1.0  0.12117  0.83444  0.60354  1.0000
  H   H3109     1.0  0.14167  0.85040  0.61274  1.0000
  H   H3110     1.0  0.09918  0.84853  0.63152  1.0000
  H   H3111     1.0  0.13558  0.87477  0.61164  1.0000
  H   H3112     1.0  0.09372  0.87288  0.62989  1.0000
  H   H3113     1.0  0.11172  0.88616  0.62026  1.0000
  H   H3114     1.0  0.18525  0.82441  0.68818  1.0000
  H   H3115     1.0  0.16686  0.86559  0.69989  1.0000
  H   H3116     1.0  0.13906  0.88580  0.68770  1.0000
  Fe  Fe352     1.0  0.13820  0.83057  0.71248  1.0000
  C   C2607     1.0  0.13261  0.90044  0.49868  1.0000
  H   H3117     1.0  0.21539  0.82235  0.68104  1.0000
  H   H3118     1.0  0.18014  0.86806  0.71498  1.0000
  C   C2608     1.0  0.12679  0.85679  0.49354  1.0000
  H   H3119     1.0  0.28333  0.83329  0.72065  1.0000
  C   C2609     1.0  0.24374  0.75838  0.67660  1.0000
  H   H3120     1.0  0.00435  0.87859  0.59408  1.0000
  H   H3121     1.0  0.17940  0.83927  0.69525  1.0000
  H   H3122     1.0  0.13041  0.89258  0.52018  1.0000
  H   H3123     1.0  0.99952  0.85620  0.59642  1.0000
  H   H3124     1.0  0.10961  0.88440  0.52278  1.0000
  C   C2610     1.0  0.16859  0.83014  0.49727  1.0000
  H   H3125     1.0  0.99703  0.89156  0.66637  1.0000
  C   C2611     1.0  0.16573  0.85979  0.71025  1.0000
  H   H3126     1.0  0.27337  0.75842  0.65268  1.0000
  N   N174      1.0  0.19937  0.82765  0.69811  1.0000
  C   C2612     1.0  0.14678  0.86360  0.49495  1.0000
  S   S704      1.0  0.14775  0.84882  0.70423  1.0000
  C   C2613     1.0  0.14358  0.90103  0.72069  1.0000
  C   C2614     1.0  0.00876  0.85675  0.59891  1.0000
  C   C2615     1.0  0.24655  0.76696  0.65259  1.0000
  C   C2616     1.0  0.12607  0.89425  0.51144  1.0000
  H   H3127     1.0  0.10069  0.89235  0.70141  1.0000
  C   C2617     1.0  0.15870  0.98437  0.64704  1.0000
  H   H3128     1.0  0.14195  0.90366  0.49761  1.0000
  H   H3129     1.0  0.20928  0.84429  0.68694  1.0000
  H   H3130     1.0  0.24783  0.75095  0.68514  1.0000
  C   C2618     1.0  0.18866  0.83276  0.68999  1.0000
  C   C2619     1.0  0.26627  0.75870  0.66274  1.0000
  S   S705      1.0  0.13310  0.96810  0.63592  1.0000
  H   H3131     1.0  0.02884  0.83254  0.63443  1.0000
  C   C2620     1.0  0.14678  0.85103  0.64765  1.0000
  Fe  Fe353     1.0  0.14444  0.79989  0.71571  1.0000
  H   H3132     1.0  0.13277  0.84085  0.66332  1.0000
  H   H3133     1.0  0.37561  0.80356  0.71980  1.0000
  H   H3134     1.0  0.02505  0.81921  0.62063  1.0000
  N   N175      1.0  0.18602  0.87853  0.64540  1.0000
  C   C2621     1.0  0.18886  0.86382  0.64555  1.0000
  C   C2622     1.0  0.17101  0.88369  0.64959  1.0000
  C   C2623     1.0  0.19054  0.88564  0.63112  1.0000
  C   C2624     1.0  0.19288  0.88060  0.65501  1.0000
  C   C2625     1.0  0.20247  0.88909  0.65099  1.0000
  C   C2626     1.0  0.18975  0.87426  0.66899  1.0000
  C   C2627     1.0  0.20854  0.89098  0.66044  1.0000
  C   C2628     1.0  0.19596  0.87616  0.67830  1.0000
  C   C2629     1.0  0.20537  0.88445  0.67402  1.0000
  H   H3135     1.0  0.18438  0.85785  0.65552  1.0000
  H   H3136     1.0  0.18449  0.86191  0.63790  1.0000
  H   H3137     1.0  0.20013  0.85944  0.64325  1.0000
  H   H3138     1.0  0.16644  0.87800  0.65969  1.0000
  H   H3139     1.0  0.16546  0.88308  0.64220  1.0000
  H   H3140     1.0  0.16868  0.89454  0.65030  1.0000
  H   H3141     1.0  0.20176  0.88210  0.62723  1.0000
  H   H3142     1.0  0.18524  0.88379  0.62416  1.0000
  H   H3143     1.0  0.18801  0.89688  0.63010  1.0000
  H   H3144     1.0  0.20544  0.89443  0.64065  1.0000
  H   H3145     1.0  0.18226  0.86802  0.67287  1.0000
  H   H3146     1.0  0.21575  0.89756  0.65727  1.0000
  H   H3147     1.0  0.19314  0.87155  0.68896  1.0000
  H   H3148     1.0  0.21013  0.88597  0.68128  1.0000
  N   N176      1.0  0.09082  0.90295  0.58358  1.0000
  C   C2630     1.0  0.08515  0.91547  0.58917  1.0000
  C   C2631     1.0  0.09998  0.89320  0.59215  1.0000
  C   C2632     1.0  0.09909  0.90695  0.56965  1.0000
  C   C2633     1.0  0.08010  0.89630  0.58337  1.0000
  C   C2634     1.0  0.06664  0.89871  0.59170  1.0000
  C   C2635     1.0  0.08323  0.88628  0.57555  1.0000
  C   C2636     1.0  0.05687  0.89187  0.59174  1.0000
  C   C2637     1.0  0.07341  0.87945  0.57572  1.0000
  C   C2638     1.0  0.06024  0.88227  0.58376  1.0000
  H   H3149     1.0  0.08047  0.91320  0.60021  1.0000
  H   H3150     1.0  0.20720  0.80888  0.69088  1.0000
  H   H3151     1.0  0.07732  0.92272  0.58379  1.0000
  H   H3152     1.0  0.10573  0.88419  0.58769  1.0000
  H   H3153     1.0  0.09403  0.88939  0.60247  1.0000
  H   H3154     1.0  0.10773  0.89793  0.59342  1.0000
  H   H3155     1.0  0.09239  0.91288  0.56246  1.0000
  H   H3156     1.0  0.10622  0.91323  0.56940  1.0000
  H   H3157     1.0  0.10593  0.89808  0.56556  1.0000
  H   H3158     1.0  0.06351  0.90558  0.59856  1.0000
  H   H3159     1.0  0.09346  0.88316  0.56966  1.0000
  H   H3160     1.0  0.04673  0.89381  0.59828  1.0000
  H   H3161     1.0  0.07622  0.87162  0.56987  1.0000
  H   H3162     1.0  0.05274  0.87680  0.58401  1.0000
  S   S706      1.0  0.16081  0.78072  0.71577  1.0000
  H   H3163     1.0  0.13787  0.80797  0.48381  1.0000
  H   H3164     1.0  0.23635  0.76559  0.65253  1.0000
  H   H3165     1.0  0.11151  0.90878  0.68595  1.0000
  H   H3166     1.0  0.10034  0.88680  0.50332  1.0000
  S   S707      1.0  0.12236  0.79873  0.72339  1.0000
  C   C2639     1.0  0.99774  0.84830  0.63544  1.0000
  H   H3167     1.0  0.40310  0.76102  0.71574  1.0000
  C   C2640     1.0  0.10914  0.89109  0.50151  1.0000
  H   H3168     1.0  0.10191  0.89687  0.71630  1.0000
  H   H3169     1.0  0.11297  0.91556  0.69925  1.0000
  C   C2641     1.0  0.19345  0.82096  0.71209  1.0000
  H   H3170     1.0  0.18650  0.80637  0.70580  1.0000
  H   H3171     1.0  0.26827  0.74641  0.64070  1.0000
  H   H3172     1.0  0.14168  0.97462  0.67446  1.0000
  H   H3173     1.0  0.12241  0.96764  0.67097  1.0000
  H   H3174     1.0  0.09989  0.88249  0.48317  1.0000
  H   H3175     1.0  0.38410  0.77967  0.72074  1.0000
  C   C2642     1.0  0.18099  0.80377  0.72726  1.0000
  C   C2643     1.0  0.12096  0.97775  0.67264  1.0000
  C   C2644     1.0  0.40319  0.76660  0.72300  1.0000
  C   C2645     1.0  0.27436  0.83026  0.72849  1.0000
  H   H3176     1.0  0.11783  0.76661  0.72338  1.0000
  H   H3177     1.0  0.39225  0.81086  0.72884  1.0000
  C   C2646     1.0  0.26148  0.85319  0.72740  1.0000
  C   C2647     1.0  0.39223  0.77740  0.72605  1.0000
  H   H3178     1.0  0.09996  0.98372  0.67098  1.0000
  H   H3179     1.0  0.17589  0.79565  0.72852  1.0000
  H   H3180     1.0  0.42220  0.75393  0.72759  1.0000
  C   C2648     1.0  0.15496  0.84384  0.72867  1.0000
  S   S708      1.0  0.14381  0.81315  0.72933  1.0000
  C   C2649     1.0  0.41394  0.76256  0.72969  1.0000
  C   C2650     1.0  0.14544  0.88893  0.73034  1.0000
  H   H3181     1.0  0.13819  0.76706  0.73012  1.0000
  Fe  Fe354     1.0  0.23298  0.73874  0.86356  1.0000
  C   C2651     1.0  0.41372  0.76920  0.73958  1.0000
  C   C2652     1.0  0.37341  0.95470  0.87906  1.0000
  H   H3182     1.0  0.35365  0.86507  0.81031  1.0000
  S   S709      1.0  0.13405  0.75541  0.84079  1.0000
  H   H3183     1.0  0.24357  0.87809  0.81844  1.0000
  C   C2653     1.0  0.29997  0.80523  0.83759  1.0000
  C   C2654     1.0  0.39495  0.79878  0.87845  1.0000
  S   S710      1.0  0.11265  0.81081  0.75828  1.0000
  H   H3184     1.0  0.23666  0.85642  0.82622  1.0000
  C   C2655     1.0  0.28255  0.79282  0.84063  1.0000
  C   C2656     1.0  0.17183  0.85376  0.73220  1.0000
  H   H3185     1.0  0.37917  0.78862  0.76117  1.0000
  Fe  Fe355     1.0  0.39867  0.76651  0.78611  1.0000
  S   S711      1.0  0.40566  0.78628  0.77837  1.0000
  S   S712      1.0  0.40693  0.74922  0.77480  1.0000
  Fe  Fe356     1.0  0.37975  0.77544  0.81169  1.0000
  S   S713      1.0  0.38472  0.79603  0.80582  1.0000
  S   S714      1.0  0.36648  0.76813  0.83195  1.0000
  Fe  Fe357     1.0  0.38333  0.79560  0.78505  1.0000
  S   S715      1.0  0.37235  0.81401  0.77232  1.0000
  Fe  Fe358     1.0  0.40647  0.78491  0.79996  1.0000
  S   S716      1.0  0.42332  0.78771  0.80801  1.0000
  S   S717      1.0  0.37625  0.77599  0.79140  1.0000
  S   S718      1.0  0.40162  0.76418  0.80712  1.0000
  Fe  Fe359     1.0  0.29081  0.87825  0.78398  1.0000
  S   S719      1.0  0.28977  0.89142  0.79817  1.0000
  S   S720      1.0  0.28314  0.88677  0.76435  1.0000
  Fe  Fe360     1.0  0.30369  0.85266  0.80180  1.0000
  S   S721      1.0  0.30317  0.86321  0.81783  1.0000
  S   S722      1.0  0.31178  0.83009  0.80534  1.0000
  Fe  Fe361     1.0  0.28237  0.87452  0.81451  1.0000
  S   S723      1.0  0.26429  0.87982  0.83114  1.0000
  Fe  Fe362     1.0  0.31079  0.87918  0.80055  1.0000
  S   S724      1.0  0.32911  0.88557  0.80250  1.0000
  S   S725      1.0  0.28190  0.86223  0.80037  1.0000
  S   S726      1.0  0.31280  0.86780  0.78451  1.0000
  Fe  Fe363     1.0  0.30553  0.80809  0.87420  1.0000
  S   S727      1.0  0.29446  0.82274  0.88782  1.0000
  S   S728      1.0  0.32176  0.81509  0.85623  1.0000
  Fe  Fe364     1.0  0.28800  0.78739  0.88937  1.0000
  S   S729      1.0  0.27567  0.80025  0.90448  1.0000
  S   S730      1.0  0.28426  0.76655  0.89107  1.0000
  Fe  Fe365     1.0  0.27556  0.81759  0.88640  1.0000
  S   S731      1.0  0.25649  0.83359  0.88399  1.0000
  Fe  Fe366     1.0  0.29567  0.80430  0.90474  1.0000
  S   S732      1.0  0.29888  0.80552  0.92477  1.0000
  S   S733      1.0  0.28634  0.80458  0.87124  1.0000
  S   S734      1.0  0.30827  0.78981  0.89123  1.0000
  C   C2657     1.0  0.40387  0.80728  0.87098  1.0000
  S   S735      1.0  0.18165  0.85468  0.74294  1.0000
  C   C2658     1.0  0.25605  0.75762  0.86935  1.0000
  H   H3186     1.0  0.22546  0.84907  0.81235  1.0000
  Fe  Fe367     1.0  0.43648  0.84126  0.83993  1.0000
  S   S736      1.0  0.44860  0.82383  0.85276  1.0000
  S   S737      1.0  0.42355  0.84099  0.82572  1.0000
  Fe  Fe368     1.0  0.43817  0.86169  0.85502  1.0000
  S   S738      1.0  0.45009  0.84591  0.86919  1.0000
  S   S739      1.0  0.43032  0.88270  0.85921  1.0000
  Fe  Fe369     1.0  0.46226  0.83821  0.85040  1.0000
  H   H3187     1.0  0.32728  0.76995  0.83415  1.0000
  Fe  Fe370     1.0  0.43566  0.83311  0.87040  1.0000
  S   S740      1.0  0.42351  0.82160  0.88909  1.0000
  S   S741      1.0  0.45115  0.85502  0.83595  1.0000
  S   S742      1.0  0.42278  0.84952  0.85785  1.0000
  Fe  Fe371     1.0  0.35073  0.83667  0.94253  1.0000
  S   S743      1.0  0.33397  0.84703  0.95761  1.0000
  S   S744      1.0  0.35009  0.82544  0.92714  1.0000
  Fe  Fe372     1.0  0.37124  0.85214  0.94364  1.0000
  S   S745      1.0  0.35603  0.86433  0.95816  1.0000
  S   S746      1.0  0.39260  0.85561  0.93450  1.0000
  Fe  Fe373     1.0  0.35033  0.84435  0.96909  1.0000
  Fe  Fe374     1.0  0.34107  0.86603  0.94564  1.0000
  S   S747      1.0  0.32672  0.88386  0.93577  1.0000
  S   S748      1.0  0.36652  0.83198  0.95505  1.0000
  S   S749      1.0  0.35691  0.85593  0.93017  1.0000
  Fe  Fe375     1.0  0.33969  0.92619  0.84977  1.0000
  S   S750      1.0  0.33602  0.93839  0.86564  1.0000
  S   S751      1.0  0.32337  0.91584  0.84928  1.0000
  Fe  Fe376     1.0  0.36892  0.92952  0.83868  1.0000
  S   S752      1.0  0.36789  0.94199  0.85332  1.0000
  S   S753      1.0  0.38838  0.92181  0.82438  1.0000
  Fe  Fe377     1.0  0.35690  0.92681  0.86870  1.0000
  S   S754      1.0  0.36339  0.91899  0.88863  1.0000
  Fe  Fe378     1.0  0.34723  0.95288  0.84913  1.0000
  C   C2659     1.0  0.28301  0.83231  0.75308  1.0000
  S   S755      1.0  0.35967  0.91337  0.85445  1.0000
  S   S756      1.0  0.34908  0.94166  0.83286  1.0000
  H   H3188     1.0  0.27750  0.86423  0.73286  1.0000
  H   H3189     1.0  0.34766  0.86091  0.87149  1.0000
  C   C2660     1.0  0.29642  0.79249  0.84019  1.0000
  H   H3190     1.0  0.13787  0.75043  0.77579  1.0000
  H   H3191     1.0  0.34445  0.88417  0.85696  1.0000
  C   C2661     1.0  0.29209  0.83420  0.75965  1.0000
  N   N177      1.0  0.30664  0.77963  0.84314  1.0000
  H   H3192     1.0  0.40287  0.78438  0.75086  1.0000
  H   H3193     1.0  0.17636  0.80341  0.74864  1.0000
  H   H3194     1.0  0.40756  0.81279  0.87605  1.0000
  H   H3195     1.0  0.31017  0.80592  0.83742  1.0000
  C   C2662     1.0  0.33650  0.89410  0.92277  1.0000
  C   C2663     1.0  0.33224  0.90050  0.91057  1.0000
  C   C2664     1.0  0.34043  0.90820  0.89996  1.0000
  C   C2665     1.0  0.35267  0.90980  0.90173  1.0000
  C   C2666     1.0  0.35672  0.90367  0.91404  1.0000
  C   C2667     1.0  0.34881  0.89560  0.92442  1.0000
  H   H3196     1.0  0.32273  0.89935  0.90925  1.0000
  H   H3197     1.0  0.33723  0.91295  0.89048  1.0000
  H   H3198     1.0  0.36617  0.90490  0.91545  1.0000
  H   H3199     1.0  0.35214  0.89068  0.93382  1.0000
  C   C2668     1.0  0.41919  0.89383  0.84913  1.0000
  C   C2669     1.0  0.42097  0.89330  0.83555  1.0000
  C   C2670     1.0  0.41180  0.90229  0.82776  1.0000
  C   C2671     1.0  0.40055  0.91141  0.83371  1.0000
  C   C2672     1.0  0.39877  0.91183  0.84730  1.0000
  C   C2673     1.0  0.40827  0.90333  0.85487  1.0000
  H   H3200     1.0  0.42955  0.88613  0.83101  1.0000
  H   H3201     1.0  0.41332  0.90205  0.81720  1.0000
  H   H3202     1.0  0.39023  0.91888  0.85196  1.0000
  H   H3203     1.0  0.40706  0.90409  0.86522  1.0000
  C   C2674     1.0  0.41550  0.83068  0.90211  1.0000
  C   C2675     1.0  0.40411  0.82695  0.91186  1.0000
  C   C2676     1.0  0.39697  0.83465  0.92173  1.0000
  C   C2677     1.0  0.40154  0.84578  0.92226  1.0000
  C   C2678     1.0  0.41316  0.84929  0.91276  1.0000
  C   C2679     1.0  0.42001  0.84187  0.90257  1.0000
  H   H3204     1.0  0.40058  0.81830  0.91157  1.0000
  H   H3205     1.0  0.38798  0.83189  0.92897  1.0000
  H   H3206     1.0  0.41672  0.85790  0.91311  1.0000
  H   H3207     1.0  0.42882  0.84478  0.89513  1.0000
  C   C2680     1.0  0.37763  0.83062  0.83493  1.0000
  C   C2681     1.0  0.30207  0.76736  0.84330  1.0000
  C   C2682     1.0  0.29069  0.85715  0.74655  1.0000
  C   C2683     1.0  0.13402  0.75355  0.75005  1.0000
  H   H3208     1.0  0.37400  0.94407  0.87857  1.0000
  C   C2684     1.0  0.37806  0.75368  0.75371  1.0000
  H   H3209     1.0  0.38399  0.78459  0.87847  1.0000
  H   H3210     1.0  0.36832  0.78264  0.75465  1.0000
  H   H3211     1.0  0.24811  0.88935  0.73997  1.0000
  C   C2685     1.0  0.14709  0.74671  0.76821  1.0000
  C   C2686     1.0  0.24764  0.87312  0.75776  1.0000
  H   H3212     1.0  0.39162  0.80592  0.74679  1.0000
  C   C2687     1.0  0.31328  0.81086  0.92529  1.0000
  C   C2688     1.0  0.32293  0.81455  0.91344  1.0000
  C   C2689     1.0  0.33422  0.81893  0.91420  1.0000
  C   C2690     1.0  0.33575  0.81993  0.92674  1.0000
  C   C2691     1.0  0.32603  0.81639  0.93855  1.0000
  C   C2692     1.0  0.31491  0.81173  0.93783  1.0000
  H   H3213     1.0  0.32178  0.81382  0.90376  1.0000
  H   H3214     1.0  0.34181  0.82151  0.90506  1.0000
  H   H3215     1.0  0.32727  0.81693  0.94828  1.0000
  H   H3216     1.0  0.30752  0.80876  0.94703  1.0000
  C   C2693     1.0  0.27317  0.76346  0.88272  1.0000
  C   C2694     1.0  0.25938  0.77044  0.86575  1.0000
  C   C2695     1.0  0.26781  0.77339  0.87245  1.0000
  H   H3217     1.0  0.25531  0.77818  0.85779  1.0000
  H   H3218     1.0  0.27012  0.78334  0.86972  1.0000
  C   C2696     1.0  0.32713  0.89496  0.81485  1.0000
  C   C2697     1.0  0.33863  0.89851  0.81624  1.0000
  C   C2698     1.0  0.33750  0.90543  0.82640  1.0000
  C   C2699     1.0  0.32491  0.90860  0.83542  1.0000
  C   C2700     1.0  0.31337  0.90524  0.83388  1.0000
  C   C2701     1.0  0.31444  0.89851  0.82360  1.0000
  H   H3219     1.0  0.34843  0.89600  0.80937  1.0000
  H   H3220     1.0  0.34635  0.90830  0.82728  1.0000
  H   H3221     1.0  0.30354  0.90795  0.84063  1.0000
  H   H3222     1.0  0.30547  0.89600  0.82250  1.0000
  C   C2702     1.0  0.26243  0.86667  0.84559  1.0000
  C   C2703     1.0  0.27247  0.85457  0.84692  1.0000
  C   C2704     1.0  0.27083  0.84436  0.85879  1.0000
  C   C2705     1.0  0.25899  0.84616  0.86914  1.0000
  C   C2706     1.0  0.24891  0.85817  0.86767  1.0000
  C   C2707     1.0  0.25068  0.86844  0.85598  1.0000
  H   H3223     1.0  0.28145  0.85305  0.83884  1.0000
  H   H3224     1.0  0.27861  0.83505  0.85985  1.0000
  H   H3225     1.0  0.23977  0.85957  0.87566  1.0000
  H   H3226     1.0  0.24290  0.87777  0.85498  1.0000
  C   C2708     1.0  0.26983  0.88105  0.76165  1.0000
  C   C2709     1.0  0.26394  0.88779  0.75038  1.0000
  C   C2710     1.0  0.25287  0.88384  0.74842  1.0000
  H   H3227     1.0  0.21544  0.73778  0.81237  1.0000
  C   C2711     1.0  0.25387  0.86611  0.76869  1.0000
  C   C2712     1.0  0.26488  0.87003  0.77062  1.0000
  H   H3228     1.0  0.26776  0.89627  0.74330  1.0000
  Fe  Fe379     1.0  0.22411  0.87155  0.73851  1.0000
  H   H3229     1.0  0.26950  0.86449  0.77910  1.0000
  C   C2713     1.0  0.42322  0.80267  0.81274  1.0000
  C   C2714     1.0  0.41352  0.81475  0.80991  1.0000
  C   C2715     1.0  0.41386  0.82645  0.81381  1.0000
  C   C2716     1.0  0.42367  0.82609  0.82085  1.0000
  C   C2717     1.0  0.43321  0.81396  0.82386  1.0000
  C   C2718     1.0  0.43305  0.80234  0.81972  1.0000
  H   H3230     1.0  0.40598  0.81515  0.80444  1.0000
  H   H3231     1.0  0.40663  0.83585  0.81122  1.0000
  H   H3232     1.0  0.44085  0.81355  0.82922  1.0000
  H   H3233     1.0  0.44059  0.79304  0.82195  1.0000
  C   C2719     1.0  0.35504  0.81774  0.78059  1.0000
  C   C2720     1.0  0.35017  0.80927  0.79281  1.0000
  C   C2721     1.0  0.33668  0.81290  0.80012  1.0000
  C   C2722     1.0  0.32807  0.82508  0.79527  1.0000
  C   C2723     1.0  0.33276  0.83331  0.78278  1.0000
  C   C2724     1.0  0.34625  0.82964  0.77542  1.0000
  H   H3234     1.0  0.35686  0.80007  0.79683  1.0000
  H   H3235     1.0  0.33304  0.80645  0.80972  1.0000
  H   H3236     1.0  0.32600  0.84245  0.77873  1.0000
  H   H3237     1.0  0.34994  0.83618  0.76590  1.0000
  C   C2725     1.0  0.35436  0.78125  0.83882  1.0000
  C   C2726     1.0  0.34738  0.77864  0.85245  1.0000
  C   C2727     1.0  0.33757  0.78907  0.85799  1.0000
  C   C2728     1.0  0.33455  0.80205  0.84985  1.0000
  C   C2729     1.0  0.34163  0.80465  0.83627  1.0000
  C   C2730     1.0  0.35157  0.79430  0.83079  1.0000
  H   H3238     1.0  0.34955  0.76854  0.85871  1.0000
  H   H3239     1.0  0.33226  0.78701  0.86853  1.0000
  H   H3240     1.0  0.37700  0.89119  0.81692  1.0000
  H   H3241     1.0  0.22796  0.88532  0.78208  1.0000
  C   C2731     1.0  0.39795  0.74722  0.76371  1.0000
  C   C2732     1.0  0.38482  0.75508  0.76293  1.0000
  C   C2733     1.0  0.17040  0.75660  0.85640  1.0000
  C   C2734     1.0  0.40418  0.80083  0.85048  1.0000
  H   H3242     1.0  0.37990  0.76226  0.76941  1.0000
  H   H3243     1.0  0.37712  0.81677  0.74105  1.0000
  H   H3244     1.0  0.15929  0.73810  0.74473  1.0000
  C   C2735     1.0  0.11974  0.76064  0.73317  1.0000
  C   C2736     1.0  0.16244  0.84532  0.73719  1.0000
  H   H3245     1.0  0.14099  0.86913  0.73807  1.0000
  H   H3246     1.0  0.14649  0.77510  0.74309  1.0000
  C   C2737     1.0  0.38625  0.83912  0.97340  1.0000
  H   H3247     1.0  0.16108  0.83973  0.74764  1.0000
  C   C2738     1.0  0.14823  0.75537  0.84679  1.0000
  C   C2739     1.0  0.14772  0.76660  0.85177  1.0000
  C   C2740     1.0  0.15878  0.76726  0.85645  1.0000
  H   H3248     1.0  0.22798  0.90737  0.78055  1.0000
  H   H3249     1.0  0.13879  0.77491  0.85190  1.0000
  H   H3250     1.0  0.15835  0.77610  0.86008  1.0000
  C   C2741     1.0  0.11011  0.76772  0.78235  1.0000
  C   C2742     1.0  0.11722  0.77524  0.78589  1.0000
  C   C2743     1.0  0.11813  0.78841  0.77836  1.0000
  C   C2744     1.0  0.11247  0.79389  0.76686  1.0000
  C   C2745     1.0  0.10590  0.78614  0.76293  1.0000
  C   C2746     1.0  0.10447  0.77321  0.77083  1.0000
  H   H3251     1.0  0.12147  0.77118  0.79476  1.0000
  H   H3252     1.0  0.12311  0.79443  0.78149  1.0000
  H   H3253     1.0  0.10139  0.79036  0.75414  1.0000
  H   H3254     1.0  0.09883  0.76753  0.76809  1.0000
  H   H3255     1.0  0.24476  0.89815  0.77329  1.0000
  H   H3256     1.0  0.22128  0.86382  0.79035  1.0000
  H   H3257     1.0  0.47933  0.84665  0.87505  1.0000
  H   H3258     1.0  0.33909  0.81455  0.82981  1.0000
  H   H3259     1.0  0.26934  0.82698  0.83469  1.0000
  C   C2747     1.0  0.36811  0.82692  0.84680  1.0000
  N   N178      1.0  0.14620  0.75437  0.75417  1.0000
  H   H3260     1.0  0.38722  0.76705  0.86786  1.0000
  C   C2748     1.0  0.39072  0.79112  0.87202  1.0000
  S   S757      1.0  0.20281  0.88298  0.73597  1.0000
  C   C2749     1.0  0.30926  0.77806  0.85670  1.0000
  C   C2750     1.0  0.35438  0.82906  0.84643  1.0000
  C   C2751     1.0  0.39178  0.78453  0.73596  1.0000
  S   S758      1.0  0.33887  0.97555  0.84867  1.0000
  S   S759      1.0  0.22238  0.74518  0.84611  1.0000
  Fe  Fe380     1.0  0.12219  0.74047  0.80622  1.0000
  H   H3261     1.0  0.21084  0.74049  0.79642  1.0000
  H   H3262     1.0  0.27395  0.74291  0.89429  1.0000
  H   H3263     1.0  0.10147  0.75284  0.73869  1.0000
  S   S760      1.0  0.24543  0.75463  0.86041  1.0000
  S   S761      1.0  0.23267  0.86879  0.75705  1.0000
  C   C2752     1.0  0.40405  0.73755  0.75554  1.0000
  H   H3264     1.0  0.31803  0.78251  0.82235  1.0000
  C   C2753     1.0  0.27721  0.84296  0.74323  1.0000
  H   H3265     1.0  0.29615  0.82605  0.76738  1.0000
  H   H3266     1.0  0.16825  0.74899  0.74773  1.0000
  H   H3267     1.0  0.37250  0.78051  0.86430  1.0000
  H   H3268     1.0  0.29986  0.77697  0.86484  1.0000
  C   C2754     1.0  0.48135  0.85483  0.87815  1.0000
  H   H3269     1.0  0.48397  0.85969  0.84159  1.0000
  H   H3270     1.0  0.37548  0.79914  0.84381  1.0000
  H   H3271     1.0  0.13618  0.77346  0.75991  1.0000
  S   S762      1.0  0.10749  0.75183  0.79260  1.0000
  Fe  Fe381     1.0  0.13606  0.74090  0.82784  1.0000
  C   C2755     1.0  0.29587  0.84662  0.75643  1.0000
  H   H3272     1.0  0.36797  0.75992  0.75304  1.0000
  C   C2756     1.0  0.31977  0.77988  0.83284  1.0000
  S   S763      1.0  0.22057  0.85180  0.73734  1.0000
  H   H3273     1.0  0.37141  0.82222  0.85626  1.0000
  H   H3274     1.0  0.14771  0.83736  0.73268  1.0000
  H   H3275     1.0  0.33902  0.96107  0.89157  1.0000
  H   H3276     1.0  0.36818  0.97334  0.84555  1.0000
  C   C2757     1.0  0.47139  0.86683  0.87876  1.0000
  N   N179      1.0  0.26737  0.84078  0.73664  1.0000
  C   C2758     1.0  0.35400  0.87676  0.85483  1.0000
  S   S764      1.0  0.14015  0.74856  0.80528  1.0000
  H   H3277     1.0  0.16020  0.73584  0.84302  1.0000
  H   H3278     1.0  0.38835  0.82882  0.83521  1.0000
  C   C2759     1.0  0.27681  0.81744  0.83612  1.0000
  C   C2760     1.0  0.38250  0.77443  0.85967  1.0000
  C   C2761     1.0  0.17086  0.74514  0.85173  1.0000
  H   H3279     1.0  0.30272  0.84817  0.76169  1.0000
  H   H3280     1.0  0.35675  0.79632  0.82024  1.0000
  H   H3281     1.0  0.25002  0.85770  0.77586  1.0000
  H   H3282     1.0  0.39159  0.79789  0.88938  1.0000
  H   H3283     1.0  0.38198  0.78594  0.83443  1.0000
  C   C2762     1.0  0.40279  0.77996  0.74274  1.0000
  H   H3284     1.0  0.38002  0.76826  0.85392  1.0000
  S   S765      1.0  0.18423  0.75848  0.86173  1.0000
  C   C2763     1.0  0.26121  0.74776  0.87979  1.0000
  H   H3285     1.0  0.38666  0.86393  0.96035  1.0000
  Fe  Fe382     1.0  0.20027  0.86360  0.73284  1.0000
  C   C2764     1.0  0.36813  0.85434  0.86028  1.0000
  H   H3286     1.0  0.10573  0.73943  0.76112  1.0000
  S   S766      1.0  0.48544  0.83044  0.84820  1.0000
  C   C2765     1.0  0.26983  0.75065  0.88635  1.0000
  H   H3287     1.0  0.29311  0.76560  0.85184  1.0000
  H   H3288     1.0  0.29334  0.82703  0.83356  1.0000
  C   C2766     1.0  0.14586  0.76876  0.75354  1.0000
  H   H3289     1.0  0.35165  0.95557  0.90991  1.0000
  H   H3290     1.0  0.18462  0.77272  0.82877  1.0000
  H   H3291     1.0  0.37993  0.97055  0.89324  1.0000
  H   H3292     1.0  0.36954  0.84426  0.86674  1.0000
  C   C2767     1.0  0.35579  0.86373  0.86299  1.0000
  H   H3293     1.0  0.34823  0.96401  0.87397  1.0000
  H   H3294     1.0  0.36215  0.80927  0.73333  1.0000
  C   C2768     1.0  0.25574  0.83611  0.74713  1.0000
  C   C2769     1.0  0.18779  0.81855  0.73687  1.0000
  H   H3295     1.0  0.28045  0.82248  0.75586  1.0000
  C   C2770     1.0  0.28142  0.85546  0.74007  1.0000
  H   H3296     1.0  0.38288  0.95433  0.88215  1.0000
  H   H3297     1.0  0.34700  0.82588  0.85562  1.0000
  H   H3298     1.0  0.38704  0.84099  0.96228  1.0000
  H   H3299     1.0  0.31242  0.78703  0.85747  1.0000
  H   H3300     1.0  0.40890  0.84612  0.95819  1.0000
  N   N180      1.0  0.38508  0.87553  0.88724  1.0000
  C   C2771     1.0  0.38242  0.87909  0.90061  1.0000
  C   C2772     1.0  0.40001  0.87408  0.88125  1.0000
  C   C2773     1.0  0.37776  0.88700  0.87815  1.0000
  C   C2774     1.0  0.38008  0.86310  0.88914  1.0000
  C   C2775     1.0  0.36594  0.86304  0.89446  1.0000
  C   C2776     1.0  0.38899  0.85062  0.88656  1.0000
  C   C2777     1.0  0.36119  0.85108  0.89762  1.0000
  C   C2778     1.0  0.38411  0.83876  0.88972  1.0000
  C   C2779     1.0  0.37029  0.83893  0.89543  1.0000
  H   H3301     1.0  0.37143  0.88050  0.90583  1.0000
  H   H3302     1.0  0.38813  0.87091  0.90759  1.0000
  H   H3303     1.0  0.38554  0.88869  0.89964  1.0000
  H   H3304     1.0  0.40628  0.86596  0.88775  1.0000
  H   H3305     1.0  0.40347  0.88348  0.88029  1.0000
  H   H3306     1.0  0.40279  0.87194  0.87090  1.0000
  H   H3307     1.0  0.36667  0.89011  0.88277  1.0000
  H   H3308     1.0  0.38191  0.89628  0.87584  1.0000
  H   H3309     1.0  0.37872  0.88437  0.86830  1.0000
  H   H3310     1.0  0.35860  0.87209  0.89692  1.0000
  H   H3311     1.0  0.39991  0.84956  0.88269  1.0000
  H   H3312     1.0  0.35055  0.85102  0.90253  1.0000
  H   H3313     1.0  0.39128  0.82923  0.88842  1.0000
  H   H3314     1.0  0.36671  0.82954  0.89859  1.0000
  C   C2780     1.0  0.40455  0.77435  0.84450  1.0000
  C   C2781     1.0  0.40833  0.80843  0.85699  1.0000
  H   H3315     1.0  0.41025  0.76772  0.85232  1.0000
  H   H3316     1.0  0.40230  0.76768  0.83915  1.0000
  H   H3317     1.0  0.41172  0.78019  0.83673  1.0000
  H   H3318     1.0  0.39178  0.79821  0.83173  1.0000
  H   H3319     1.0  0.40820  0.80181  0.83968  1.0000
  H   H3320     1.0  0.41539  0.81497  0.85124  1.0000
  N   N181      1.0  0.30957  0.86435  0.85636  1.0000
  C   C2782     1.0  0.29700  0.87487  0.85409  1.0000
  C   C2783     1.0  0.32102  0.86672  0.84446  1.0000
  C   C2784     1.0  0.30675  0.85102  0.85712  1.0000
  C   C2785     1.0  0.31342  0.86513  0.86863  1.0000
  C   C2786     1.0  0.31580  0.87747  0.86967  1.0000
  C   C2787     1.0  0.31565  0.85371  0.87945  1.0000
  C   C2788     1.0  0.32021  0.87828  0.88076  1.0000
  C   C2789     1.0  0.32012  0.85463  0.89048  1.0000
  C   C2790     1.0  0.32241  0.86688  0.89114  1.0000
  H   H3321     1.0  0.29852  0.88536  0.85193  1.0000
  H   H3322     1.0  0.29352  0.87419  0.84522  1.0000
  H   H3323     1.0  0.28834  0.87374  0.86310  1.0000
  H   H3324     1.0  0.32363  0.87666  0.84302  1.0000
  H   H3325     1.0  0.31847  0.86681  0.83484  1.0000
  H   H3326     1.0  0.33051  0.85876  0.84562  1.0000
  H   H3327     1.0  0.29810  0.84865  0.86580  1.0000
  H   H3328     1.0  0.30377  0.85077  0.84782  1.0000
  H   H3329     1.0  0.31593  0.84260  0.85809  1.0000
  H   H3330     1.0  0.31447  0.88659  0.86179  1.0000
  H   H3331     1.0  0.31406  0.84390  0.87966  1.0000
  H   H3332     1.0  0.32194  0.88786  0.88127  1.0000
  H   H3333     1.0  0.32178  0.84573  0.89856  1.0000
  H   H3334     1.0  0.32583  0.86759  0.89971  1.0000
  N   N182      1.0  0.38874  0.87470  0.82948  1.0000
  C   C2791     1.0  0.40113  0.87268  0.83473  1.0000
  C   C2792     1.0  0.39192  0.86580  0.81970  1.0000
  C   C2793     1.0  0.38576  0.88901  0.82187  1.0000
  C   C2794     1.0  0.37730  0.87113  0.84088  1.0000
  C   C2795     1.0  0.36456  0.88046  0.84393  1.0000
  C   C2796     1.0  0.37874  0.85793  0.84940  1.0000
  H   H3335     1.0  0.40489  0.86192  0.83946  1.0000
  H   H3336     1.0  0.40992  0.87551  0.82647  1.0000
  H   H3337     1.0  0.39911  0.87889  0.84244  1.0000
  H   H3338     1.0  0.39530  0.85491  0.82440  1.0000
  H   H3339     1.0  0.40053  0.86823  0.81098  1.0000
  H   H3340     1.0  0.38283  0.86688  0.81561  1.0000
  H   H3341     1.0  0.38339  0.89621  0.82867  1.0000
  H   H3342     1.0  0.39470  0.89158  0.81367  1.0000
  H   H3343     1.0  0.36251  0.89075  0.83814  1.0000
  H   H3344     1.0  0.38816  0.85031  0.84776  1.0000
  N   N183      1.0  0.10034  0.78476  0.82252  1.0000
  C   C2797     1.0  0.10128  0.76984  0.82636  1.0000
  C   C2798     1.0  0.11450  0.78687  0.81970  1.0000
  C   C2799     1.0  0.09196  0.79062  0.83436  1.0000
  C   C2800     1.0  0.09405  0.79157  0.81066  1.0000
  C   C2801     1.0  0.09439  0.80534  0.80427  1.0000
  C   C2802     1.0  0.08713  0.78499  0.80534  1.0000
  C   C2803     1.0  0.08892  0.81180  0.79280  1.0000
  C   C2804     1.0  0.08155  0.79164  0.79395  1.0000
  C   C2805     1.0  0.08259  0.80494  0.78760  1.0000
  H   H3345     1.0  0.10676  0.76483  0.83478  1.0000
  H   H3346     1.0  0.09099  0.76732  0.83006  1.0000
  H   H3347     1.0  0.10700  0.76494  0.81762  1.0000
  H   H3348     1.0  0.11476  0.79761  0.81866  1.0000
  H   H3349     1.0  0.12088  0.78361  0.81023  1.0000
  H   H3350     1.0  0.11980  0.78098  0.82807  1.0000
  H   H3351     1.0  0.08123  0.78928  0.83681  1.0000
  H   H3352     1.0  0.09627  0.78568  0.84358  1.0000
  H   H3353     1.0  0.09144  0.80170  0.83245  1.0000
  H   H3354     1.0  0.09907  0.81118  0.80792  1.0000
  H   H3355     1.0  0.08632  0.77454  0.80940  1.0000
  H   H3356     1.0  0.08992  0.82208  0.78762  1.0000
  H   H3357     1.0  0.07689  0.78622  0.78969  1.0000
  H   H3358     1.0  0.07883  0.80983  0.77840  1.0000
  N   N184      1.0  0.21696  0.77850  0.88789  1.0000
  C   C2806     1.0  0.20273  0.78360  0.89513  1.0000
  C   C2807     1.0  0.21722  0.78066  0.87324  1.0000
  C   C2808     1.0  0.22060  0.76362  0.89334  1.0000
  C   C2809     1.0  0.22629  0.78600  0.88958  1.0000
  C   C2810     1.0  0.23752  0.77951  0.89598  1.0000
  C   C2811     1.0  0.22426  0.80030  0.88471  1.0000
  C   C2812     1.0  0.24599  0.78698  0.89751  1.0000
  C   C2813     1.0  0.23286  0.80764  0.88623  1.0000
  C   C2814     1.0  0.24367  0.80099  0.89265  1.0000
  H   H3359     1.0  0.19548  0.77799  0.89425  1.0000
  H   H3360     1.0  0.20218  0.78242  0.90613  1.0000
  H   H3361     1.0  0.19874  0.79452  0.89100  1.0000
  H   H3362     1.0  0.22795  0.77838  0.86725  1.0000
  H   H3363     1.0  0.21248  0.79126  0.86885  1.0000
  H   H3364     1.0  0.21163  0.77397  0.87135  1.0000
  H   H3365     1.0  0.23095  0.75895  0.88792  1.0000
  H   H3366     1.0  0.22031  0.76120  0.90440  1.0000
  H   H3367     1.0  0.21335  0.75831  0.89202  1.0000
  H   H3368     1.0  0.24020  0.76865  0.89968  1.0000
  H   H3369     1.0  0.21602  0.80592  0.87964  1.0000
  H   H3370     1.0  0.25461  0.78182  0.90228  1.0000
  H   H3371     1.0  0.23124  0.81856  0.88243  1.0000
  C   C2815     1.0  0.40796  0.84482  0.96931  1.0000
  C   C2816     1.0  0.37091  0.97808  0.89100  1.0000
  S   S767      1.0  0.21344  0.73668  0.87935  1.0000
  H   H3372     1.0  0.41386  0.85164  0.97040  1.0000
  H   H3373     1.0  0.31745  0.76894  0.85916  1.0000
  H   H3374     1.0  0.29354  0.86687  0.74421  1.0000
  H   H3375     1.0  0.32512  0.78735  0.83356  1.0000
  H   H3376     1.0  0.17210  0.74520  0.80448  1.0000
  C   C2817     1.0  0.18129  0.80808  0.73856  1.0000
  H   H3377     1.0  0.19957  0.75075  0.82606  1.0000
  H   H3378     1.0  0.25071  0.84340  0.75397  1.0000
  C   C2818     1.0  0.35993  0.97440  0.88837  1.0000
  H   H3379     1.0  0.25579  0.86147  0.73295  1.0000
  H   H3380     1.0  0.42177  0.76561  0.74525  1.0000
  C   C2819     1.0  0.37257  0.79154  0.75369  1.0000
  C   C2820     1.0  0.11055  0.75290  0.74176  1.0000
  H   H3381     1.0  0.37007  0.95179  0.90587  1.0000
  N   N185      1.0  0.39340  0.84785  0.97663  1.0000
  C   C2821     1.0  0.27293  0.80514  0.83866  1.0000
  C   C2822     1.0  0.37038  0.80041  0.73061  1.0000
  C   C2823     1.0  0.12455  0.74556  0.75848  1.0000
  Fe  Fe383     1.0  0.20336  0.74192  0.86175  1.0000
  C   C2824     1.0  0.29031  0.81747  0.83554  1.0000
  H   H3382     1.0  0.18783  0.82210  0.74564  1.0000
  H   H3383     1.0  0.37511  0.84114  0.97831  1.0000
  N   N186      1.0  0.36069  0.96005  0.88853  1.0000
  C   C2825     1.0  0.34894  0.95811  0.88443  1.0000
  H   H3384     1.0  0.15614  0.74782  0.77113  1.0000
  C   C2826     1.0  0.36093  0.95174  0.90243  1.0000
  H   H3385     1.0  0.37392  0.96106  0.86859  1.0000
  H   H3386     1.0  0.15200  0.88736  0.73728  1.0000
  C   C2827     1.0  0.39542  0.79177  0.85779  1.0000
  Fe  Fe384     1.0  0.12132  0.81351  0.73571  1.0000
  H   H3387     1.0  0.48787  0.88444  0.88897  1.0000
  C   C2828     1.0  0.49346  0.85446  0.84479  1.0000
  H   H3388     1.0  0.46609  0.88668  0.88316  1.0000
  H   H3389     1.0  0.25889  0.82598  0.75357  1.0000
  C   C2829     1.0  0.13136  0.76091  0.73717  1.0000
  H   H3390     1.0  0.36385  0.79981  0.75695  1.0000
  H   H3391     1.0  0.29931  0.76819  0.83356  1.0000
  C   C2830     1.0  0.17540  0.75085  0.80969  1.0000
  C   C2831     1.0  0.38558  0.80783  0.73898  1.0000
  H   H3392     1.0  0.36120  0.94088  0.90301  1.0000
  H   H3393     1.0  0.27880  0.78370  0.84270  1.0000
  C   C2832     1.0  0.15885  0.74881  0.74479  1.0000
  H   H3394     1.0  0.26238  0.80515  0.83923  1.0000
  C   C2833     1.0  0.15981  0.74458  0.84677  1.0000
  H   H3395     1.0  0.25031  0.80671  0.89378  1.0000
  C   C2834     1.0  0.47391  0.87737  0.88268  1.0000
  N   N187      1.0  0.30175  0.85653  0.93410  1.0000
  C   C2835     1.0  0.29794  0.86247  0.94634  1.0000
  C   C2836     1.0  0.29624  0.84404  0.93806  1.0000
  C   C2837     1.0  0.31690  0.85244  0.93019  1.0000
  C   C2838     1.0  0.29664  0.86666  0.92266  1.0000
  C   C2839     1.0  0.29974  0.87973  0.91862  1.0000
  C   C2840     1.0  0.28898  0.86379  0.91489  1.0000
  C   C2841     1.0  0.29514  0.88944  0.90779  1.0000
  C   C2842     1.0  0.28449  0.87356  0.90403  1.0000
  C   C2843     1.0  0.28750  0.88637  0.90053  1.0000
  H   H3396     1.0  0.28669  0.86666  0.94903  1.0000
  H   H3397     1.0  0.30093  0.85480  0.95533  1.0000
  H   H3398     1.0  0.30322  0.87076  0.94499  1.0000
  H   H3399     1.0  0.28482  0.84643  0.94092  1.0000
  H   H3400     1.0  0.29989  0.83681  0.94696  1.0000
  H   H3401     1.0  0.29968  0.83830  0.92977  1.0000
  H   H3402     1.0  0.32191  0.86109  0.92815  1.0000
  H   H3403     1.0  0.32115  0.84452  0.93834  1.0000
  H   H3404     1.0  0.32029  0.84803  0.92101  1.0000
  H   H3405     1.0  0.30582  0.88254  0.92378  1.0000
  H   H3406     1.0  0.28631  0.85407  0.91699  1.0000
  H   H3407     1.0  0.29757  0.89939  0.90500  1.0000
  H   H3408     1.0  0.27858  0.87117  0.89832  1.0000
  H   H3409     1.0  0.28397  0.89393  0.89212  1.0000
  C   C2844     1.0  0.18223  0.76676  0.82312  1.0000
  C   C2845     1.0  0.16693  0.76351  0.81141  1.0000
  C   C2846     1.0  0.17031  0.77141  0.81815  1.0000
  N   N188      1.0  0.38026  0.79588  0.73964  1.0000
  H   H3410     1.0  0.15752  0.76709  0.80776  1.0000
  H   H3411     1.0  0.16352  0.78102  0.81981  1.0000
  N   N189      1.0  0.35549  0.84461  0.80866  1.0000
  C   C2847     1.0  0.35875  0.85823  0.80302  1.0000
  C   C2848     1.0  0.36320  0.83567  0.79897  1.0000
  C   C2849     1.0  0.34063  0.84627  0.80953  1.0000
  C   C2850     1.0  0.35955  0.83871  0.82188  1.0000
  C   C2851     1.0  0.37345  0.83643  0.82264  1.0000
  C   C2852     1.0  0.35008  0.83494  0.83421  1.0000
  H   H3412     1.0  0.36993  0.85779  0.80045  1.0000
  H   H3413     1.0  0.35504  0.86335  0.79347  1.0000
  H   H3414     1.0  0.37447  0.83472  0.79669  1.0000
  H   H3415     1.0  0.36017  0.83958  0.78900  1.0000
  H   H3416     1.0  0.36130  0.82522  0.80303  1.0000
  H   H3417     1.0  0.33418  0.85338  0.81618  1.0000
  H   H3418     1.0  0.33796  0.85067  0.79940  1.0000
  H   H3419     1.0  0.33744  0.83637  0.81322  1.0000
  H   H3420     1.0  0.38124  0.83894  0.81366  1.0000
  H   H3421     1.0  0.33932  0.83610  0.83468  1.0000
  N   N190      1.0  0.24103  0.89709  0.79478  1.0000
  C   C2853     1.0  0.23316  0.90608  0.80436  1.0000
  C   C2854     1.0  0.25584  0.89468  0.79449  1.0000
  C   C2855     1.0  0.23901  0.90445  0.78095  1.0000
  C   C2856     1.0  0.23660  0.88401  0.79943  1.0000
  C   C2857     1.0  0.22996  0.87956  0.79184  1.0000
  C   C2858     1.0  0.23873  0.87534  0.81203  1.0000
  C   C2859     1.0  0.22602  0.86710  0.79652  1.0000
  C   C2860     1.0  0.23476  0.86289  0.81661  1.0000
  C   C2861     1.0  0.22845  0.85876  0.80885  1.0000
  H   H3422     1.0  0.23510  0.90167  0.81477  1.0000
  H   H3423     1.0  0.23600  0.91615  0.80106  1.0000
  H   H3424     1.0  0.22192  0.90782  0.80522  1.0000
  H   H3425     1.0  0.26196  0.88687  0.78855  1.0000
  H   H3426     1.0  0.25806  0.89110  0.80479  1.0000
  H   H3427     1.0  0.25996  0.90402  0.78977  1.0000
  H   H3428     1.0  0.24285  0.91400  0.77754  1.0000
  N   N191      1.0  0.39185  0.78329  0.85068  1.0000
  C   C2862     1.0  0.38500  0.79211  0.83972  1.0000
  H   H3429     1.0  0.46169  0.86796  0.87615  1.0000
  H   H3430     1.0  0.34995  0.94728  0.88434  1.0000
  H   H3431     1.0  0.15457  0.76978  0.75707  1.0000
  H   H3432     1.0  0.31021  0.75795  0.84490  1.0000
  C   C2863     1.0  0.36263  0.98305  0.84801  1.0000
  H   H3433     1.0  0.25875  0.73786  0.88265  1.0000
  C   C2864     1.0  0.19072  0.75411  0.82155  1.0000
  C   C2865     1.0  0.39726  0.73610  0.74632  1.0000
  H   H3434     1.0  0.33956  0.98335  0.88363  1.0000
  H   H3435     1.0  0.36506  0.79226  0.73147  1.0000
  H   H3436     1.0  0.15949  0.75473  0.73415  1.0000
  C   C2866     1.0  0.18755  0.74573  0.81482  1.0000
  H   H3437     1.0  0.41311  0.83417  0.97321  1.0000
  S   S768      1.0  0.37573  0.74404  0.73305  1.0000
  H   H3438     1.0  0.39078  0.82812  0.97662  1.0000
  H   H3439     1.0  0.17977  0.73685  0.85181  1.0000
  C   C2867     1.0  0.38432  0.74436  0.74523  1.0000
  H   H3440     1.0  0.14828  0.73560  0.76931  1.0000
  C   C2868     1.0  0.38710  0.86220  0.97120  1.0000
  H   H3441     1.0  0.24773  0.83522  0.74248  1.0000
  C   C2869     1.0  0.48646  0.87601  0.88589  1.0000
  H   H3442     1.0  0.39288  0.86946  0.97155  1.0000
  H   H3443     1.0  0.27813  0.82024  0.73486  1.0000
  H   H3444     1.0  0.37643  0.86516  0.97706  1.0000
  C   C2870     1.0  0.11299  0.74531  0.75435  1.0000
  H   H3445     1.0  0.12561  0.73966  0.76848  1.0000
  C   C2871     1.0  0.49400  0.85340  0.88119  1.0000
  H   H3446     1.0  0.35203  0.73593  0.80418  1.0000
  C   C2872     1.0  0.13927  0.87863  0.73072  1.0000
  Fe  Fe385     1.0  0.71275  0.19506  0.09440  1.0000
  S   S769      1.0  0.71400  0.17953  0.08250  1.0000
  Fe  Fe386     1.0  0.71815  0.19555  0.12121  1.0000
  S   S770      1.0  0.70769  0.21744  0.12000  1.0000
  S   S771      1.0  0.72657  0.18479  0.13977  1.0000
  Fe  Fe387     1.0  0.69185  0.21255  0.11261  1.0000
  H   H3447     1.0  0.72286  0.16667  0.12524  1.0000
  H   H3448     1.0  0.71173  0.13700  0.22197  1.0000
  S   S772      1.0  0.70118  0.19026  0.11602  1.0000
  S   S773      1.0  0.73082  0.19850  0.09994  1.0000
  Fe  Fe388     1.0  0.71459  0.11908  0.18074  1.0000
  S   S774      1.0  0.72010  0.12596  0.19655  1.0000
  S   S775      1.0  0.72267  0.12329  0.15814  1.0000
  Fe  Fe389     1.0  0.69081  0.10799  0.20015  1.0000
  S   S776      1.0  0.67190  0.10182  0.19931  1.0000
  H   H3449     1.0  0.68303  0.17542  0.15057  1.0000
  S   S777      1.0  0.69229  0.12835  0.18659  1.0000
  S   S778      1.0  0.71303  0.09826  0.19340  1.0000
  C   C2873     1.0  0.80085  0.12214  0.22802  1.0000
  S   S779      1.0  0.63381  0.19398  0.19969  1.0000
  Fe  Fe390     1.0  0.59652  0.19583  0.19902  1.0000
  S   S780      1.0  0.57631  0.19284  0.19773  1.0000
  H   H3450     1.0  0.57784  0.08464  0.11522  1.0000
  S   S781      1.0  0.61269  0.17674  0.19892  1.0000
  C   C2874     1.0  0.89748  0.21199  0.20517  1.0000
  N   N192      1.0  0.79926  0.13405  0.21656  1.0000
  H   H3451     1.0  0.57294  0.09973  0.12199  1.0000
  Fe  Fe391     1.0  0.65934  0.16806  0.05067  1.0000
  S   S782      1.0  0.64332  0.17355  0.03837  1.0000
  S   S783      1.0  0.66522  0.18569  0.05446  1.0000
  Fe  Fe392     1.0  0.65939  0.13812  0.05653  1.0000
  S   S784      1.0  0.64319  0.14103  0.04501  1.0000
  S   S785      1.0  0.66971  0.11755  0.06690  1.0000
  Fe  Fe393     1.0  0.65482  0.15553  0.02907  1.0000
  S   S786      1.0  0.65973  0.15822  0.00592  1.0000
  Fe  Fe394     1.0  0.63298  0.15882  0.05506  1.0000
  S   S787      1.0  0.61055  0.16665  0.06319  1.0000
  S   S788      1.0  0.67193  0.15130  0.03994  1.0000
  S   S789      1.0  0.64807  0.15456  0.06806  1.0000
  Fe  Fe395     1.0  0.56777  0.13437  0.13028  1.0000
  S   S790      1.0  0.57886  0.13021  0.14688  1.0000
  S   S791      1.0  0.58055  0.12663  0.11163  1.0000
  Fe  Fe396     1.0  0.54034  0.14626  0.14731  1.0000
  S   S792      1.0  0.54967  0.14362  0.16512  1.0000
  S   S793      1.0  0.51709  0.15392  0.15113  1.0000
  Fe  Fe397     1.0  0.56732  0.15116  0.14976  1.0000
  S   S794      1.0  0.58164  0.16385  0.15004  1.0000
  Fe  Fe398     1.0  0.56050  0.12308  0.16065  1.0000
  S   S795      1.0  0.56021  0.10464  0.17774  1.0000
  S   S796      1.0  0.55714  0.15578  0.13217  1.0000
  S   S797      1.0  0.55027  0.12518  0.14384  1.0000
  Fe  Fe399     1.0  0.65923  0.05952  0.15413  1.0000
  S   S798      1.0  0.64994  0.04111  0.16304  1.0000
  S   S799      1.0  0.67697  0.06237  0.16092  1.0000
  Fe  Fe400     1.0  0.64021  0.07210  0.13455  1.0000
  S   S800      1.0  0.62925  0.05489  0.14176  1.0000
  S   S801      1.0  0.63169  0.09138  0.12063  1.0000
  Fe  Fe401     1.0  0.62982  0.05622  0.16245  1.0000
  S   S802      1.0  0.61149  0.05504  0.17983  1.0000
  Fe  Fe402     1.0  0.65006  0.04097  0.14163  1.0000
  S   S803      1.0  0.65691  0.02175  0.13291  1.0000
  S   S804      1.0  0.63905  0.07448  0.15545  1.0000
  S   S805      1.0  0.66117  0.05828  0.13254  1.0000
  N   N193      1.0  0.59188  0.08598  0.12618  1.0000
  H   H3452     1.0  0.92889  0.21906  0.21705  1.0000
  C   C2875     1.0  0.66526  0.19588  0.13311  1.0000
  H   H3453     1.0  0.60437  0.99474  0.10613  1.0000
  H   H3454     1.0  0.68754  0.10974  0.04091  1.0000
  C   C2876     1.0  0.50659  0.14819  0.14421  1.0000
  C   C2877     1.0  0.51073  0.11378  0.15979  1.0000
  C   C2878     1.0  0.66356  0.06756  0.21456  1.0000
  C   C2879     1.0  0.65104  0.17287  0.22297  1.0000
  C   C2880     1.0  0.51177  0.14309  0.13236  1.0000
  H   H3455     1.0  0.79077  0.15566  0.21448  1.0000
  H   H3456     1.0  0.66256  0.05699  0.20056  1.0000
  H   H3457     1.0  0.52252  0.14223  0.12742  1.0000
  C   C2881     1.0  0.57508  0.09154  0.17819  1.0000
  C   C2882     1.0  0.57454  0.08011  0.18885  1.0000
  C   C2883     1.0  0.58581  0.06907  0.18925  1.0000
  C   C2884     1.0  0.59772  0.06930  0.17897  1.0000
  C   C2885     1.0  0.59843  0.08080  0.16835  1.0000
  C   C2886     1.0  0.58711  0.09196  0.16799  1.0000
  H   H3458     1.0  0.56529  0.07972  0.19675  1.0000
  H   H3459     1.0  0.58521  0.06023  0.19748  1.0000
  H   H3460     1.0  0.60761  0.08102  0.16037  1.0000
  H   H3461     1.0  0.58760  0.10076  0.15976  1.0000
  C   C2887     1.0  0.62472  0.14263  0.17979  1.0000
  H   H3462     1.0  0.55817  0.07997  0.16610  1.0000
  C   C2888     1.0  0.52573  0.11927  0.17585  1.0000
  C   C2889     1.0  0.65402  0.15180  0.99495  1.0000
  C   C2890     1.0  0.64478  0.14321  0.99987  1.0000
  C   C2891     1.0  0.64024  0.13877  0.99071  1.0000
  H   H3463     1.0  0.62132  0.07392  0.18714  1.0000
  H   H3464     1.0  0.88851  0.18312  0.22538  1.0000
  H   H3465     1.0  0.64101  0.14010  0.01068  1.0000
  N   N194      1.0  0.51122  0.11853  0.18220  1.0000
  C   C2892     1.0  0.65914  0.11016  0.08174  1.0000
  C   C2893     1.0  0.64519  0.11615  0.08526  1.0000
  C   C2894     1.0  0.63686  0.11014  0.09713  1.0000
  C   C2895     1.0  0.64245  0.09825  0.10564  1.0000
  C   C2896     1.0  0.65641  0.09228  0.10217  1.0000
  C   C2897     1.0  0.66473  0.09820  0.09018  1.0000
  H   H3466     1.0  0.64077  0.12529  0.07873  1.0000
  H   H3467     1.0  0.62602  0.11466  0.09966  1.0000
  H   H3468     1.0  0.66080  0.08308  0.10865  1.0000
  H   H3469     1.0  0.67552  0.09352  0.08747  1.0000
  C   C2898     1.0  0.60274  0.15546  0.07701  1.0000
  C   C2899     1.0  0.59135  0.16071  0.08644  1.0000
  C   C2900     1.0  0.58465  0.15193  0.09730  1.0000
  C   C2901     1.0  0.58912  0.13787  0.09853  1.0000
  C   C2902     1.0  0.60055  0.13261  0.08912  1.0000
  C   C2903     1.0  0.60749  0.14139  0.07848  1.0000
  H   H3470     1.0  0.58761  0.17160  0.08528  1.0000
  H   H3471     1.0  0.57578  0.15606  0.10445  1.0000
  H   H3472     1.0  0.60403  0.12173  0.09004  1.0000
  H   H3473     1.0  0.61626  0.13727  0.07120  1.0000
  C   C2904     1.0  0.61987  0.16071  0.02615  1.0000
  H   H3474     1.0  0.65014  0.21660  0.17581  1.0000
  C   C2905     1.0  0.65458  0.99681  0.13108  1.0000
  C   C2906     1.0  0.64902  0.00759  0.13798  1.0000
  C   C2907     1.0  0.63749  0.00673  0.14869  1.0000
  C   C2908     1.0  0.63167  0.99523  0.15247  1.0000
  N   N195      1.0  0.64762  0.19555  0.09738  1.0000
  C   C2909     1.0  0.64243  0.08080  0.22539  1.0000
  H   H3475     1.0  0.63309  0.01491  0.15410  1.0000
  C   C2910     1.0  0.78348  0.14125  0.18598  1.0000
  C   C2911     1.0  0.57778  0.18454  0.18464  1.0000
  C   C2912     1.0  0.58956  0.18361  0.17416  1.0000
  C   C2913     1.0  0.59049  0.17733  0.16361  1.0000
  C   C2914     1.0  0.57981  0.17165  0.16358  1.0000
  C   C2915     1.0  0.56810  0.17235  0.17417  1.0000
  C   C2916     1.0  0.56705  0.17890  0.18461  1.0000
  H   H3476     1.0  0.59786  0.18796  0.17403  1.0000
  H   H3477     1.0  0.59954  0.17691  0.15544  1.0000
  H   H3478     1.0  0.55979  0.16805  0.17421  1.0000
  H   H3479     1.0  0.55791  0.17960  0.19268  1.0000
  Fe  Fe403     1.0  0.71666  0.10599  0.20998  1.0000
  H   H3480     1.0  0.72121  0.14247  0.13263  1.0000
  H   H3481     1.0  0.63414  0.20936  0.16016  1.0000
  C   C2917     1.0  0.67356  0.09126  0.18816  1.0000
  C   C2918     1.0  0.66225  0.09191  0.18302  1.0000
  C   C2919     1.0  0.66321  0.08327  0.17447  1.0000
  C   C2920     1.0  0.67533  0.07363  0.17138  1.0000
  C   C2921     1.0  0.68662  0.07302  0.17649  1.0000
  C   C2922     1.0  0.68580  0.08189  0.18473  1.0000
  H   H3482     1.0  0.65273  0.09910  0.18567  1.0000
  H   H3483     1.0  0.65460  0.08404  0.17029  1.0000
  H   H3484     1.0  0.69604  0.06559  0.17414  1.0000
  H   H3485     1.0  0.69453  0.08120  0.18874  1.0000
  H   H3486     1.0  0.77336  0.11193  0.20308  1.0000
  C   C2923     1.0  0.70589  0.13848  0.01904  1.0000
  H   H3487     1.0  0.59479  0.17129  0.03993  1.0000
  H   H3488     1.0  0.64067  0.21505  0.08498  1.0000
  C   C2924     1.0  0.70032  0.18125  0.07487  1.0000
  C   C2925     1.0  0.69188  0.19395  0.07111  1.0000
  C   C2926     1.0  0.68146  0.19517  0.06448  1.0000
  C   C2927     1.0  0.67909  0.18367  0.06195  1.0000
  C   C2928     1.0  0.68738  0.17090  0.06588  1.0000
  C   C2929     1.0  0.69808  0.16974  0.07217  1.0000
  H   H3489     1.0  0.69365  0.20290  0.07294  1.0000
  H   H3490     1.0  0.67527  0.20511  0.06123  1.0000
  H   H3491     1.0  0.68566  0.16198  0.06395  1.0000
  H   H3492     1.0  0.70465  0.15990  0.07497  1.0000
  C   C2930     1.0  0.64273  0.20557  0.15257  1.0000
  S   S806      1.0  0.70238  0.21725  0.09063  1.0000
  H   H3493     1.0  0.69770  0.13845  0.00279  1.0000
  H   H3494     1.0  0.75242  0.13174  0.21967  1.0000
  C   C2931     1.0  0.72702  0.16734  0.14400  1.0000
  C   C2932     1.0  0.72915  0.15989  0.15678  1.0000
  C   C2933     1.0  0.72805  0.14630  0.16101  1.0000
  C   C2934     1.0  0.72504  0.14001  0.15241  1.0000
  C   C2935     1.0  0.72341  0.14730  0.13940  1.0000
  C   C2936     1.0  0.72431  0.16101  0.13522  1.0000
  H   H3495     1.0  0.73140  0.16471  0.16353  1.0000
  H   H3496     1.0  0.72974  0.14065  0.17086  1.0000
  C   C2937     1.0  0.58561  0.07738  0.13885  1.0000
  C   C2938     1.0  0.81326  0.13600  0.20927  1.0000
  H   H3497     1.0  0.66232  0.07974  0.22847  1.0000
  H   H3498     1.0  0.85921  0.22358  0.21417  1.0000
  C   C2939     1.0  0.77835  0.12036  0.20072  1.0000
  S   S807      1.0  0.66940  0.22132  0.11986  1.0000
  H   H3499     1.0  0.50876  0.11007  0.14127  1.0000
  C   C2940     1.0  0.79185  0.13247  0.20712  1.0000
  H   H3500     1.0  0.65171  0.20271  0.07547  1.0000
  H   H3501     1.0  0.51613  0.09747  0.19200  1.0000
  H   H3502     1.0  0.50063  0.10710  0.20073  1.0000
  H   H3503     1.0  0.71252  0.13712  0.03712  1.0000
  C   C2941     1.0  0.66045  0.21283  0.17031  1.0000
  H   H3504     1.0  0.60862  0.08519  0.10848  1.0000
  H   H3505     1.0  0.71076  0.14681  0.01322  1.0000
  H   H3506     1.0  0.63847  0.21005  0.11035  1.0000
  C   C2942     1.0  0.89348  0.19164  0.22175  1.0000
  C   C2943     1.0  0.60727  0.23485  0.22643  1.0000
  C   C2944     1.0  0.51117  0.10758  0.19464  1.0000
  H   H3507     1.0  0.81315  0.14566  0.20155  1.0000
  C   C2945     1.0  0.64875  0.98532  0.13484  1.0000
  C   C2946     1.0  0.70033  0.12261  0.04016  1.0000
  H   H3508     1.0  0.74023  0.11908  0.21210  1.0000
  C   C2947     1.0  0.79087  0.23074  0.08684  1.0000
  H   H3509     1.0  0.90965  0.22315  0.20864  1.0000
  H   H3510     1.0  0.79854  0.22557  0.06157  1.0000
  Fe  Fe404     1.0  0.62607  0.18977  0.18381  1.0000
  C   C2948     1.0  0.75573  0.23007  0.11463  1.0000
  H   H3511     1.0  0.50335  0.14008  0.17694  1.0000
  S   S808      1.0  0.68972  0.15381  0.20876  1.0000
  H   H3512     1.0  0.79232  0.21969  0.08742  1.0000
  C   C2949     1.0  0.57388  0.06186  0.16405  1.0000
  C   C2950     1.0  0.61085  0.17172  0.00620  1.0000
  C   C2951     1.0  0.57320  0.08300  0.14729  1.0000
  H   H3513     1.0  0.64548  0.18323  0.22306  1.0000
  C   C2952     1.0  0.58184  0.09241  0.11739  1.0000
  H   H3514     1.0  0.59126  0.04566  0.15967  1.0000
  Fe  Fe405     1.0  0.69751  0.13319  0.20365  1.0000
  H   H3515     1.0  0.64571  0.22553  0.14152  1.0000
  C   C2953     1.0  0.66082  0.20985  0.13253  1.0000
  C   C2954     1.0  0.62701  0.14130  0.19289  1.0000
  H   H3516     1.0  0.63381  0.08281  0.18687  1.0000
  H   H3517     1.0  0.61781  0.05329  0.20622  1.0000
  C   C2955     1.0  0.61217  0.18688  0.11084  1.0000
  C   C2956     1.0  0.61081  0.18281  0.09980  1.0000
  C   C2957     1.0  0.65214  0.13504  0.18380  1.0000
  H   H3518     1.0  0.88467  0.19956  0.20417  1.0000
  H   H3519     1.0  0.52126  0.11445  0.15528  1.0000
  N   N196      1.0  0.70133  0.10190  0.14114  1.0000
  C   C2958     1.0  0.69346  0.10576  0.15418  1.0000
  C   C2959     1.0  0.70669  0.08694  0.14366  1.0000
  C   C2960     1.0  0.71340  0.10829  0.13632  1.0000
  C   C2961     1.0  0.69222  0.10603  0.13142  1.0000
  C   C2962     1.0  0.69415  0.11616  0.11927  1.0000
  C   C2963     1.0  0.68091  0.09990  0.13402  1.0000
  C   C2964     1.0  0.68559  0.11948  0.11012  1.0000
  C   C2965     1.0  0.67246  0.10327  0.12478  1.0000
  C   C2966     1.0  0.67487  0.11296  0.11281  1.0000
  H   H3520     1.0  0.68459  0.10083  0.15880  1.0000
  H   H3521     1.0  0.69995  0.10277  0.16181  1.0000
  H   H3522     1.0  0.68942  0.11694  0.15275  1.0000
  H   H3523     1.0  0.69848  0.08118  0.14852  1.0000
  H   H3524     1.0  0.71389  0.08354  0.15065  1.0000
  H   H3525     1.0  0.71225  0.08357  0.13401  1.0000
  H   H3526     1.0  0.71032  0.11952  0.13533  1.0000
  H   H3527     1.0  0.72028  0.10457  0.14365  1.0000
  H   H3528     1.0  0.71977  0.10593  0.12644  1.0000
  H   H3529     1.0  0.70230  0.12156  0.11649  1.0000
  H   H3530     1.0  0.67862  0.09227  0.14315  1.0000
  H   H3531     1.0  0.68744  0.12700  0.10075  1.0000
  H   H3532     1.0  0.66417  0.09811  0.12680  1.0000
  H   H3533     1.0  0.66849  0.11535  0.10551  1.0000
  N   N197      1.0  0.61990  0.14075  0.12084  1.0000
  C   C2967     1.0  0.62155  0.12589  0.12634  1.0000
  C   C2968     1.0  0.60498  0.14694  0.12377  1.0000
  C   C2969     1.0  0.62486  0.14320  0.10585  1.0000
  C   C2970     1.0  0.62795  0.14623  0.12684  1.0000
  C   C2971     1.0  0.64242  0.14155  0.12467  1.0000
  C   C2972     1.0  0.62184  0.15610  0.13504  1.0000
  C   C2973     1.0  0.65027  0.14645  0.13031  1.0000
  C   C2974     1.0  0.62979  0.16089  0.14066  1.0000
  C   C2975     1.0  0.64395  0.15608  0.13830  1.0000
  H   H3534     1.0  0.63231  0.12018  0.12351  1.0000
  H   H3535     1.0  0.61831  0.12356  0.13763  1.0000
  H   H3536     1.0  0.61525  0.12148  0.12241  1.0000
  H   H3537     1.0  0.60280  0.15809  0.11964  1.0000
  H   H3538     1.0  0.60049  0.14505  0.13488  1.0000
  H   H3539     1.0  0.59916  0.14257  0.11925  1.0000
  H   H3540     1.0  0.63555  0.13752  0.10264  1.0000
  H   H3541     1.0  0.61849  0.13992  0.10098  1.0000
  H   H3542     1.0  0.62451  0.15417  0.10137  1.0000
  H   H3543     1.0  0.64774  0.13401  0.11863  1.0000
  H   H3544     1.0  0.61091  0.16028  0.13733  1.0000
  H   H3545     1.0  0.66132  0.14271  0.12849  1.0000
  H   H3546     1.0  0.62493  0.16836  0.14696  1.0000
  H   H3547     1.0  0.64999  0.15984  0.14276  1.0000
  N   N198      1.0  0.68317  0.11745  0.01494  1.0000
  C   C2976     1.0  0.68811  0.10251  0.01641  1.0000
  C   C2977     1.0  0.66867  0.12039  0.02244  1.0000
  C   C2978     1.0  0.68355  0.12345  0.00028  1.0000
  C   C2979     1.0  0.69155  0.12280  0.02067  1.0000
  C   C2980     1.0  0.90564  0.21405  0.21263  1.0000
  C   C2981     1.0  0.69277  0.11755  0.03437  1.0000
  H   H3548     1.0  0.74398  0.21913  0.10928  1.0000
  C   C2982     1.0  0.64722  0.20117  0.10906  1.0000
  H   H3549     1.0  0.60130  0.05840  0.13793  1.0000
  H   H3550     1.0  0.68664  0.09700  0.02722  1.0000
  H   H3551     1.0  0.68250  0.09828  0.01153  1.0000
  H   H3552     1.0  0.69924  0.09984  0.01165  1.0000
  H   H3553     1.0  0.66479  0.13150  0.02184  1.0000
  H   H3554     1.0  0.66732  0.11542  0.03342  1.0000
  H   H3555     1.0  0.66186  0.11696  0.01820  1.0000
  H   H3556     1.0  0.69417  0.12142  0.99399  1.0000
  H   H3557     1.0  0.67710  0.11931  0.99626  1.0000
  H   H3558     1.0  0.67939  0.13462  0.99846  1.0000
  H   H3559     1.0  0.62043  0.17919  0.07974  1.0000
  C   C2983     1.0  0.50411  0.11579  0.17316  1.0000
  Fe  Fe406     1.0  0.61895  0.18248  0.21482  1.0000
  C   C2984     1.0  0.70690  0.13304  0.03251  1.0000
  C   C2985     1.0  0.61488  0.99042  0.10808  1.0000
  C   C2986     1.0  0.74321  0.11509  0.22171  1.0000
  C   C2987     1.0  0.62374  0.05665  0.21156  1.0000
  H   H3560     1.0  0.61881  0.15074  0.02527  1.0000
  H   H3561     1.0  0.60315  0.09231  0.13672  1.0000
  C   C2988     1.0  0.86515  0.22687  0.21911  1.0000
  H   H3562     1.0  0.76101  0.22105  0.12065  1.0000
  H   H3563     1.0  0.71143  0.15393  0.22260  1.0000
  H   H3564     1.0  0.63058  0.17777  0.99879  1.0000
  H   H3565     1.0  0.77185  0.12937  0.18190  1.0000
  C   C2989     1.0  0.63503  0.19095  0.09856  1.0000
  Fe  Fe407     1.0  0.61606  0.21203  0.20038  1.0000
  H   H3566     1.0  0.78257  0.14899  0.17678  1.0000
  H   H3567     1.0  0.59307  0.14903  0.20926  1.0000
  N   N199      1.0  0.63398  0.06406  0.20179  1.0000
  C   C2990     1.0  0.62661  0.07645  0.19366  1.0000
  C   C2991     1.0  0.64263  0.05512  0.19235  1.0000
  C   C2992     1.0  0.64191  0.06795  0.20924  1.0000
  C   C2993     1.0  0.65641  0.06344  0.20752  1.0000
  C   C2994     1.0  0.79162  0.14612  0.22238  1.0000
  C   C2995     1.0  0.63347  0.18628  0.08771  1.0000
  C   C2996     1.0  0.89134  0.20087  0.20976  1.0000
  H   H3568     1.0  0.61503  0.99285  0.11769  1.0000
  H   H3569     1.0  0.61270  0.07417  0.12357  1.0000
  H   H3570     1.0  0.79482  0.15130  0.19245  1.0000
  H   H3571     1.0  0.78099  0.14509  0.22787  1.0000
  H   H3572     1.0  0.65885  0.21047  0.08406  1.0000
  H   H3573     1.0  0.66265  0.23255  0.15808  1.0000
  H   H3574     1.0  0.61604  0.14350  0.21353  1.0000
  C   C2997     1.0  0.63514  0.07668  0.21847  1.0000
  H   H3575     1.0  0.59240  0.16416  0.00877  1.0000
  C   C2998     1.0  0.75021  0.12222  0.22602  1.0000
  H   H3576     1.0  0.63287  0.13236  0.99458  1.0000
  H   H3577     1.0  0.67053  0.17836  0.21361  1.0000
  H   H3578     1.0  0.58649  0.09848  0.10750  1.0000
  C   C2999     1.0  0.64751  0.19159  0.15336  1.0000
  C   C3000     1.0  0.60144  0.16715  0.00190  1.0000
  H   H3579     1.0  0.66209  0.17598  0.14388  1.0000
  C   C3001     1.0  0.79055  0.14242  0.19498  1.0000
  H   H3580     1.0  0.65310  0.12469  0.20930  1.0000
  C   C3002     1.0  0.77742  0.13022  0.18883  1.0000
  H   H3581     1.0  0.50953  0.13451  0.19229  1.0000
  N   N200      1.0  0.68652  0.17902  0.16836  1.0000
  C   C3003     1.0  0.59182  0.06356  0.14355  1.0000
  H   H3582     1.0  0.62204  0.99606  0.10001  1.0000
  H   H3583     1.0  0.65021  0.06021  0.18427  1.0000
  H   H3584     1.0  0.69509  0.18104  0.18391  1.0000
  N   N201      1.0  0.60940  0.17200  0.02058  1.0000
  H   H3585     1.0  0.56966  0.05609  0.17387  1.0000
  C   C3004     1.0  0.71470  0.14305  0.22743  1.0000
  H   H3586     1.0  0.78523  0.11367  0.21904  1.0000
  H   H3587     1.0  0.64653  0.19339  0.11873  1.0000
  C   C3005     1.0  0.62255  0.17497  0.99621  1.0000
  H   H3588     1.0  0.63300  0.14153  0.17100  1.0000
  H   H3589     1.0  0.80634  0.11263  0.22435  1.0000
  H   H3590     1.0  0.63047  0.16182  0.02070  1.0000
  H   H3591     1.0  0.52647  0.12766  0.16670  1.0000
  H   H3592     1.0  0.65668  0.20489  0.10763  1.0000
  H   H3593     1.0  0.60146  0.17997  0.10013  1.0000
  H   H3594     1.0  0.67465  0.06431  0.21282  1.0000
  H   H3595     1.0  0.64148  0.18573  0.07857  1.0000
  S   S809      1.0  0.60955  0.20886  0.18282  1.0000
  H   H3596     1.0  0.72572  0.22665  0.13545  1.0000
  H   H3597     1.0  0.62438  0.19406  0.11916  1.0000
  H   H3598     1.0  0.53084  0.12134  0.18284  1.0000
  C   C3006     1.0  0.59600  0.09677  0.12971  1.0000
  H   H3599     1.0  0.60016  0.22977  0.22512  1.0000
  C   C3007     1.0  0.65962  0.18394  0.09640  1.0000
  C   C3008     1.0  0.67237  0.15679  0.21699  1.0000
  H   H3600     1.0  0.70354  0.16622  0.17697  1.0000
  H   H3601     1.0  0.69670  0.16300  0.15731  1.0000
  Fe  Fe408     1.0  0.71926  0.22031  0.09835  1.0000
  C   C3009     1.0  0.60428  0.07842  0.11800  1.0000
  H   H3602     1.0  0.63549  0.12929  0.21694  1.0000
  C   C3010     1.0  0.50295  0.13947  0.12662  1.0000
  S   S810      1.0  0.64017  0.17991  0.16686  1.0000
  C   C3011     1.0  0.69838  0.17714  0.17438  1.0000
  H   H3603     1.0  0.70632  0.18251  0.16728  1.0000
  H   H3604     1.0  0.68260  0.15936  0.17948  1.0000
  H   H3605     1.0  0.69922  0.17932  0.14804  1.0000
  H   H3606     1.0  0.69714  0.20007  0.15018  1.0000
  H   H3607     1.0  0.65843  0.17556  0.10553  1.0000
  C   C3012     1.0  0.69155  0.17399  0.15555  1.0000
  C   C3013     1.0  0.65852  0.18677  0.14342  1.0000
  S   S811      1.0  0.69410  0.11369  0.21803  1.0000
  C   C3014     1.0  0.67731  0.17029  0.17788  1.0000
  H   H3608     1.0  0.62234  0.18619  0.01717  1.0000
  H   H3609     1.0  0.58733  0.17828  0.02533  1.0000
  C   C3015     1.0  0.68681  0.20321  0.15587  1.0000
  C   C3016     1.0  0.66641  0.19892  0.17288  1.0000
  S   S812      1.0  0.60149  0.20062  0.21663  1.0000
  H   H3610     1.0  0.62883  0.04742  0.21810  1.0000
  H   H3611     1.0  0.67393  0.17276  0.18812  1.0000
  C   C3017     1.0  0.59574  0.17038  0.02934  1.0000
  C   C3018     1.0  0.61518  0.14356  0.20349  1.0000
  H   H3612     1.0  0.66808  0.17137  0.17396  1.0000
  C   C3019     1.0  0.61161  0.18502  0.02168  1.0000
  H   H3613     1.0  0.60972  0.18572  0.03250  1.0000
  H   H3614     1.0  0.59396  0.16013  0.03038  1.0000
  H   H3615     1.0  0.67367  0.19210  0.12544  1.0000
  H   H3616     1.0  0.64105  0.11767  0.20561  1.0000
  H   H3617     1.0  0.91373  0.22837  0.22684  1.0000
  C   C3020     1.0  0.67978  0.19365  0.16565  1.0000
  H   H3618     1.0  0.66023  0.19250  0.18044  1.0000
  H   H3619     1.0  0.60467  0.19387  0.01659  1.0000
  H   H3620     1.0  0.81909  0.12749  0.20408  1.0000
  C   C3021     1.0  0.50403  0.13173  0.18612  1.0000
  H   H3621     1.0  0.58979  0.15080  0.18642  1.0000
  C   C3022     1.0  0.69832  0.13351  0.01315  1.0000
  H   H3622     1.0  0.65327  0.14945  0.20001  1.0000
  C   C3023     1.0  0.56740  0.07529  0.15963  1.0000
  C   C3024     1.0  0.64976  0.20639  0.08496  1.0000
  H   H3623     1.0  0.63633  0.05226  0.18708  1.0000
  H   H3624     1.0  0.60133  0.10317  0.12052  1.0000
  C   C3025     1.0  0.60195  0.14684  0.20115  1.0000
  N   N202      1.0  0.64091  0.13855  0.19550  1.0000
  C   C3026     1.0  0.64276  0.15079  0.19856  1.0000
  H   H3625     1.0  0.65117  0.12603  0.18081  1.0000
  H   H3626     1.0  0.56814  0.09357  0.14467  1.0000
  C   C3027     1.0  0.62459  0.17392  0.98277  1.0000
  C   C3028     1.0  0.73999  0.10293  0.22990  1.0000
  C   C3029     1.0  0.78535  0.12146  0.20983  1.0000
  C   C3030     1.0  0.92221  0.21909  0.22741  1.0000
  H   H3627     1.0  0.64105  0.15978  0.19018  1.0000
  S   S813      1.0  0.62236  0.23090  0.20100  1.0000
  C   C3031     1.0  0.58606  0.05602  0.15603  1.0000
  H   H3628     1.0  0.60383  0.18711  0.11981  1.0000
  C   C3032     1.0  0.62408  0.19090  0.11030  1.0000
  H   H3629     1.0  0.51690  0.10904  0.20144  1.0000
  S   S814      1.0  0.72977  0.09461  0.22542  1.0000
  H   H3630     1.0  0.61896  0.16024  0.03707  1.0000
  C   C3033     1.0  0.60007  0.14795  0.18825  1.0000
  C   C3034     1.0  0.61141  0.14587  0.17759  1.0000
  C   C3035     1.0  0.64929  0.21471  0.14204  1.0000
  H   H3631     1.0  0.53198  0.10955  0.17299  1.0000
  C   C3036     1.0  0.60372  0.16592  0.98846  1.0000
  H   H3632     1.0  0.79673  0.14752  0.22976  1.0000
  C   C3037     1.0  0.66550  0.14612  0.22238  1.0000
  H   H3633     1.0  0.62279  0.99468  0.16081  1.0000
  H   H3634     1.0  0.62415  0.08049  0.22031  1.0000
  H   H3635     1.0  0.50701  0.13576  0.11731  1.0000
  C   C3038     1.0  0.66749  0.22185  0.16036  1.0000
  H   H3636     1.0  0.61605  0.06301  0.21834  1.0000
  H   H3637     1.0  0.59666  0.16206  0.98542  1.0000
  H   H3638     1.0  0.66935  0.18700  0.09545  1.0000
  H   H3639     1.0  0.70072  0.11866  0.05078  1.0000
  H   H3640     1.0  0.81925  0.13646  0.21638  1.0000
  H   H3641     1.0  0.66239  0.13233  0.18635  1.0000
  H   H3642     1.0  0.65240  0.14377  0.17490  1.0000
  C   C3039     1.0  0.74606  0.22895  0.10822  1.0000
  C   C3040     1.0  0.64262  0.12707  0.20734  1.0000
  C   C3041     1.0  0.66522  0.17010  0.21768  1.0000
  H   H3643     1.0  0.67098  0.13581  0.22196  1.0000
  C   C3042     1.0  0.68064  0.21705  0.15316  1.0000
  H   H3644     1.0  0.66114  0.17969  0.08735  1.0000
  H   H3645     1.0  0.66347  0.99739  0.12275  1.0000
  C   C3043     1.0  0.62148  0.18241  0.08831  1.0000
  H   H3646     1.0  0.60197  0.07005  0.11504  1.0000
  H   H3647     1.0  0.60979  0.14713  0.16751  1.0000
  H   H3648     1.0  0.64819  0.04539  0.19781  1.0000
  H   H3649     1.0  0.61851  0.08288  0.20010  1.0000
  H   H3650     1.0  0.63541  0.15340  0.20793  1.0000
  H   H3651     1.0  0.58706  0.10376  0.13471  1.0000
  H   H3652     1.0  0.80083  0.23233  0.08727  1.0000
  C   C3044     1.0  0.65662  0.07628  0.22338  1.0000
  H   H3653     1.0  0.77577  0.22383  0.07447  1.0000
  C   C3045     1.0  0.65135  0.14887  0.22800  1.0000
  H   H3654     1.0  0.93458  0.19358  0.22323  1.0000
  C   C3046     1.0  0.90801  0.20483  0.22496  1.0000
  C   C3047     1.0  0.64405  0.16231  0.22778  1.0000
  H   H3655     1.0  0.72607  0.14065  0.22545  1.0000
  H   H3656     1.0  0.68599  0.22409  0.14530  1.0000
  H   H3657     1.0  0.89552  0.21934  0.19600  1.0000
  C   C3048     1.0  0.90176  0.19350  0.22921  1.0000
  H   H3658     1.0  0.73920  0.23231  0.14761  1.0000
  H   H3659     1.0  0.78341  0.23312  0.09625  1.0000
  H   H3660     1.0  0.83735  0.23285  0.22815  1.0000
  C   C3049     1.0  0.50366  0.11121  0.15157  1.0000
  C   C3050     1.0  0.65899  0.15548  0.98082  1.0000
  C   C3051     1.0  0.77358  0.23487  0.07433  1.0000
  Fe  Fe409     1.0  0.77188  0.12470  0.26117  1.0000
  S   S815      1.0  0.79260  0.11141  0.26355  1.0000
  S   S816      1.0  0.76180  0.12760  0.24361  1.0000
  Fe  Fe410     1.0  0.77222  0.14201  0.28052  1.0000
  S   S817      1.0  0.79275  0.13023  0.28425  1.0000
  S   S818      1.0  0.76337  0.16146  0.28792  1.0000
  Fe  Fe411     1.0  0.79880  0.13070  0.26198  1.0000
  S   S819      1.0  0.81732  0.13782  0.24793  1.0000
  Fe  Fe412     1.0  0.78467  0.11208  0.28573  1.0000
  S   S820      1.0  0.78888  0.09434  0.30302  1.0000
  S   S821      1.0  0.77886  0.14393  0.25812  1.0000
  S   S822      1.0  0.76331  0.12394  0.28362  1.0000
  H   H3661     1.0  0.84019  0.02619  0.31409  1.0000
  H   H3662     1.0  0.85255  0.19633  0.38376  1.0000
  C   C3052     1.0  0.87273  0.19298  0.33718  1.0000
  C   C3053     1.0  0.83639  0.01150  0.35656  1.0000
  Fe  Fe413     1.0  0.86487  0.19241  0.25919  1.0000
  S   S823      1.0  0.87841  0.17217  0.25594  1.0000
  S   S824      1.0  0.85742  0.20740  0.24129  1.0000
  Fe  Fe414     1.0  0.86324  0.18470  0.28956  1.0000
  S   S825      1.0  0.87684  0.16423  0.28853  1.0000
  S   S826      1.0  0.85493  0.18756  0.31097  1.0000
  Fe  Fe415     1.0  0.88948  0.17500  0.27015  1.0000
  S   S827      1.0  0.91251  0.17002  0.26517  1.0000
  Fe  Fe416     1.0  0.86437  0.16336  0.27475  1.0000
  S   S828      1.0  0.85677  0.14410  0.28075  1.0000
  S   S829      1.0  0.87697  0.19588  0.27215  1.0000
  S   S830      1.0  0.84984  0.18320  0.27692  1.0000
  H   H3663     1.0  0.89209  0.10361  0.43003  1.0000
  C   C3054     1.0  0.84473  0.99888  0.35421  1.0000
  Fe  Fe417     1.0  0.78142  0.19308  0.34033  1.0000
  S   S831      1.0  0.75889  0.19385  0.34753  1.0000
  H   H3664     1.0  0.76088  0.17130  0.40548  1.0000
  Fe  Fe418     1.0  0.78861  0.17263  0.36545  1.0000
  S   S832      1.0  0.76664  0.17182  0.37507  1.0000
  S   S833      1.0  0.80540  0.15708  0.37425  1.0000
  Fe  Fe419     1.0  0.76544  0.17122  0.35427  1.0000
  S   S834      1.0  0.75788  0.15482  0.35074  1.0000
  Fe  Fe420     1.0  0.76219  0.19452  0.36750  1.0000
  C   C3055     1.0  0.77768  0.17508  0.41983  1.0000
  S   S835      1.0  0.78766  0.17047  0.34519  1.0000
  S   S836      1.0  0.78448  0.19540  0.35979  1.0000
  Fe  Fe421     1.0  0.92781  0.15994  0.35632  1.0000
  S   S837      1.0  0.93408  0.14006  0.37021  1.0000
  S   S838      1.0  0.91468  0.17667  0.36673  1.0000
  Fe  Fe422     1.0  0.94166  0.14837  0.33142  1.0000
  S   S839      1.0  0.94854  0.12740  0.34359  1.0000
  S   S840      1.0  0.94929  0.15196  0.30875  1.0000
  Fe  Fe423     1.0  0.92725  0.13134  0.35671  1.0000
  S   S841      1.0  0.91116  0.11920  0.36798  1.0000
  Fe  Fe424     1.0  0.95458  0.13845  0.35588  1.0000
  S   S842      1.0  0.97402  0.13021  0.36413  1.0000
  S   S843      1.0  0.91994  0.15140  0.34347  1.0000
  S   S844      1.0  0.94889  0.15918  0.34296  1.0000
  Fe  Fe425     1.0  0.85149  0.07943  0.33520  1.0000
  S   S845      1.0  0.87052  0.06311  0.33635  1.0000
  S   S846      1.0  0.84687  0.08867  0.31450  1.0000
  Fe  Fe426     1.0  0.84713  0.08175  0.36439  1.0000
  S   S847      1.0  0.86582  0.06530  0.36799  1.0000
  S   S848      1.0  0.83409  0.09710  0.37707  1.0000
  Fe  Fe427     1.0  0.87609  0.07549  0.34740  1.0000
  S   S849      1.0  0.89735  0.07971  0.34037  1.0000
  Fe  Fe428     1.0  0.85867  0.05398  0.35665  1.0000
  S   S850      1.0  0.85805  0.09260  0.34453  1.0000
  S   S851      1.0  0.83896  0.06971  0.35475  1.0000
  Fe  Fe429     1.0  0.85158  0.12202  0.43283  1.0000
  S   S852      1.0  0.85813  0.13933  0.41651  1.0000
  S   S853      1.0  0.85357  0.10191  0.42748  1.0000
  H   H3665     1.0  0.63708  0.08761  0.23225  1.0000
  S   S854      1.0  0.85373  0.15527  0.44104  1.0000
  Fe  Fe430     1.0  0.84084  0.15251  0.42853  1.0000
  S   S855      1.0  0.82729  0.17077  0.41803  1.0000
  Fe  Fe431     1.0  0.87034  0.14030  0.43057  1.0000
  S   S856      1.0  0.89246  0.14172  0.42353  1.0000
  S   S857      1.0  0.83317  0.13515  0.44393  1.0000
  S   S858      1.0  0.86509  0.12205  0.44623  1.0000
  H   H3666     1.0  0.84290  0.06043  0.32689  1.0000
  C   C3056     1.0  0.85598  0.01885  0.35819  1.0000
  H   H3667     1.0  0.87529  0.21937  0.24887  1.0000
  C   C3057     1.0  0.85872  0.99627  0.35396  1.0000
  C   C3058     1.0  0.86427  0.00617  0.35600  1.0000
  H   H3668     1.0  0.65333  0.20170  0.28971  1.0000
  H   H3669     1.0  0.87509  0.00399  0.35589  1.0000
  C   C3059     1.0  0.83994  0.09842  0.39081  1.0000
  C   C3060     1.0  0.84827  0.08733  0.39770  1.0000
  C   C3061     1.0  0.85213  0.08850  0.40906  1.0000
  C   C3062     1.0  0.84824  0.10091  0.41327  1.0000
  C   C3063     1.0  0.84015  0.11209  0.40619  1.0000
  C   C3064     1.0  0.83579  0.11074  0.39518  1.0000
  H   H3670     1.0  0.85133  0.07771  0.39458  1.0000
  H   H3671     1.0  0.85808  0.07969  0.41468  1.0000
  H   H3672     1.0  0.83696  0.12164  0.40943  1.0000
  H   H3673     1.0  0.82920  0.11925  0.38998  1.0000
  H   H3674     1.0  0.76082  0.22295  0.31612  1.0000
  H   H3675     1.0  0.97257  0.13927  0.32364  1.0000
  H   H3676     1.0  0.77140  0.19681  0.39054  1.0000
  H   H3677     1.0  0.97299  0.15950  0.35676  1.0000
  C   C3065     1.0  0.77733  0.18874  0.39735  1.0000
  C   C3066     1.0  0.90618  0.16825  0.38230  1.0000
  C   C3067     1.0  0.90350  0.15567  0.38318  1.0000
  C   C3068     1.0  0.89864  0.14780  0.39583  1.0000
  C   C3069     1.0  0.89622  0.15256  0.40766  1.0000
  C   C3070     1.0  0.89836  0.16540  0.40676  1.0000
  C   C3071     1.0  0.90326  0.17331  0.39405  1.0000
  H   H3678     1.0  0.90539  0.15185  0.37410  1.0000
  H   H3679     1.0  0.89720  0.13785  0.39641  1.0000
  H   H3680     1.0  0.89661  0.16905  0.41594  1.0000
  H   H3681     1.0  0.90534  0.18303  0.39341  1.0000
  C   C3072     1.0  0.90731  0.10857  0.35992  1.0000
  C   C3073     1.0  0.89499  0.10411  0.36526  1.0000
  C   C3074     1.0  0.89170  0.09545  0.35916  1.0000
  C   C3075     1.0  0.90088  0.09101  0.34787  1.0000
  C   C3076     1.0  0.91314  0.09557  0.34246  1.0000
  C   C3077     1.0  0.91629  0.10447  0.34838  1.0000
  H   H3682     1.0  0.88802  0.10722  0.37423  1.0000
  H   H3683     1.0  0.88225  0.09191  0.36344  1.0000
  H   H3684     1.0  0.92030  0.09205  0.33378  1.0000
  H   H3685     1.0  0.92584  0.10784  0.34424  1.0000
  C   C3078     1.0  0.81146  0.16116  0.38626  1.0000
  C   C3079     1.0  0.81020  0.17466  0.38666  1.0000
  C   C3080     1.0  0.81479  0.17760  0.39667  1.0000
  C   C3081     1.0  0.82095  0.16702  0.40603  1.0000
  C   C3082     1.0  0.82258  0.15355  0.40535  1.0000
  C   C3083     1.0  0.81777  0.15063  0.39552  1.0000
  H   H3686     1.0  0.80568  0.18282  0.37927  1.0000
  H   H3687     1.0  0.81368  0.18804  0.39711  1.0000
  H   H3688     1.0  0.82732  0.14536  0.41257  1.0000
  H   H3689     1.0  0.81867  0.14019  0.39531  1.0000
  N   N203      1.0  0.89742  0.10174  0.40907  1.0000
  H   H3690     1.0  0.88916  0.11782  0.39384  1.0000
  S   S859      1.0  0.86350  0.03076  0.36111  1.0000
  H   H3691     1.0  0.73069  0.20097  0.36952  1.0000
  N   N204      1.0  0.99056  0.14781  0.31738  1.0000
  C   C3084     1.0  0.93823  0.15684  0.29740  1.0000
  C   C3085     1.0  0.94429  0.15780  0.28358  1.0000
  C   C3086     1.0  0.93619  0.16179  0.27397  1.0000
  C   C3087     1.0  0.92189  0.16494  0.27801  1.0000
  C   C3088     1.0  0.91565  0.16397  0.29188  1.0000
  C   C3089     1.0  0.92386  0.15987  0.30162  1.0000
  H   H3692     1.0  0.95535  0.15545  0.28025  1.0000
  H   H3693     1.0  0.94107  0.16245  0.26332  1.0000
  H   H3694     1.0  0.90459  0.16645  0.29506  1.0000
  H   H3695     1.0  0.91913  0.15921  0.31228  1.0000
  C   C3090     1.0  0.83703  0.19270  0.31355  1.0000
  C   C3091     1.0  0.82880  0.18862  0.32631  1.0000
  C   C3092     1.0  0.81447  0.19213  0.32822  1.0000
  C   C3093     1.0  0.91338  0.07801  0.38404  1.0000
  C   C3094     1.0  0.89961  0.09123  0.40124  1.0000
  H   H3696     1.0  0.92054  0.09229  0.38948  1.0000
  H   H3697     1.0  0.83347  0.18260  0.33466  1.0000
  H   H3698     1.0  0.80820  0.18881  0.33805  1.0000
  H   H3699     1.0  0.83290  0.13898  0.37034  1.0000
  H   H3700     1.0  0.79610  0.14200  0.42257  1.0000
  C   C3095     1.0  0.86656  0.22014  0.23235  1.0000
  C   C3096     1.0  0.84196  0.02141  0.35860  1.0000
  H   H3701     1.0  0.84359  0.18663  0.35956  1.0000
  H   H3702     1.0  0.87647  0.11038  0.40696  1.0000
  C   C3097     1.0  0.78179  0.17805  0.43032  1.0000
  C   C3098     1.0  0.71227  0.21691  0.37001  1.0000
  H   H3703     1.0  0.97664  0.16646  0.32167  1.0000
  H   H3704     1.0  0.73852  0.19378  0.31803  1.0000
  H   H3705     1.0  0.75656  0.19641  0.42671  1.0000
  C   C3099     1.0  0.80494  0.09267  0.30638  1.0000
  C   C3100     1.0  0.80788  0.08523  0.31894  1.0000
  C   C3101     1.0  0.82062  0.08416  0.32174  1.0000
  C   C3102     1.0  0.83063  0.09003  0.31174  1.0000
  C   C3103     1.0  0.82777  0.09721  0.29911  1.0000
  C   C3104     1.0  0.81491  0.09865  0.29649  1.0000
  H   H3706     1.0  0.80025  0.08041  0.32652  1.0000
  H   H3707     1.0  0.82269  0.07874  0.33156  1.0000
  H   H3708     1.0  0.83553  0.10164  0.29130  1.0000
  H   H3709     1.0  0.81286  0.10404  0.28666  1.0000
  C   C3105     1.0  0.82814  0.13978  0.25708  1.0000
  C   C3106     1.0  0.82963  0.13093  0.26951  1.0000
  C   C3107     1.0  0.83856  0.13228  0.27661  1.0000
  C   C3108     1.0  0.84573  0.14273  0.27152  1.0000
  C   C3109     1.0  0.84406  0.15179  0.25924  1.0000
  C   C3110     1.0  0.83541  0.15019  0.25192  1.0000
  H   H3710     1.0  0.82417  0.12280  0.27346  1.0000
  H   H3711     1.0  0.83991  0.12521  0.28607  1.0000
  H   H3712     1.0  0.84961  0.15987  0.25525  1.0000
  H   H3713     1.0  0.83428  0.15707  0.24232  1.0000
  C   C3111     1.0  0.76192  0.15936  0.30537  1.0000
  C   C3112     1.0  0.76004  0.14709  0.31438  1.0000
  C   C3113     1.0  0.75845  0.14582  0.32838  1.0000
  C   C3114     1.0  0.75930  0.15661  0.33331  1.0000
  C   C3115     1.0  0.76154  0.16874  0.32424  1.0000
  C   C3116     1.0  0.76262  0.17018  0.31032  1.0000
  H   H3714     1.0  0.75948  0.13870  0.31059  1.0000
  H   H3715     1.0  0.75677  0.13640  0.33538  1.0000
  H   H3716     1.0  0.76225  0.17708  0.32796  1.0000
  H   H3717     1.0  0.76411  0.17965  0.30334  1.0000
  C   C3117     1.0  0.75415  0.11731  0.23851  1.0000
  C   C3118     1.0  0.75140  0.10490  0.24655  1.0000
  C   C3119     1.0  0.90884  0.20713  0.24712  1.0000
  H   H3718     1.0  0.60452  0.20878  0.25093  1.0000
  C   C3120     1.0  0.85900  0.19235  0.34231  1.0000
  C   C3121     1.0  0.72635  0.16122  0.26051  1.0000
  H   H3719     1.0  0.75443  0.10097  0.25619  1.0000
  C   C3122     1.0  0.83091  0.20051  0.30278  1.0000
  H   H3720     1.0  0.88511  0.17863  0.36551  1.0000
  C   C3123     1.0  0.63443  0.21317  0.26555  1.0000
  N   N205      1.0  0.80896  0.16281  0.29930  1.0000
  C   C3124     1.0  0.80272  0.15846  0.29054  1.0000
  C   C3125     1.0  0.79770  0.17117  0.30779  1.0000
  C   C3126     1.0  0.81847  0.17143  0.29026  1.0000
  C   C3127     1.0  0.81656  0.15136  0.30813  1.0000
  C   C3128     1.0  0.82268  0.15390  0.31744  1.0000
  C   C3129     1.0  0.81825  0.13752  0.30776  1.0000
  C   C3130     1.0  0.82989  0.14328  0.32591  1.0000
  C   C3131     1.0  0.82545  0.12699  0.31631  1.0000
  C   C3132     1.0  0.83125  0.12984  0.32536  1.0000
  H   H3721     1.0  0.79519  0.15217  0.29670  1.0000
  H   H3722     1.0  0.79691  0.16728  0.28417  1.0000
  H   H3723     1.0  0.81066  0.15268  0.28333  1.0000
  H   H3724     1.0  0.79078  0.16485  0.31528  1.0000
  H   H3725     1.0  0.79130  0.17951  0.30155  1.0000
  H   H3726     1.0  0.80152  0.17622  0.31353  1.0000
  H   H3727     1.0  0.82742  0.16532  0.28416  1.0000
  H   H3728     1.0  0.81334  0.17988  0.28303  1.0000
  H   H3729     1.0  0.82257  0.17623  0.29602  1.0000
  H   H3730     1.0  0.82201  0.16418  0.31813  1.0000
  H   H3731     1.0  0.81413  0.13452  0.30095  1.0000
  H   H3732     1.0  0.83447  0.14551  0.33289  1.0000
  H   H3733     1.0  0.82655  0.11652  0.31588  1.0000
  H   H3734     1.0  0.83683  0.12158  0.33191  1.0000
  H   H3735     1.0  0.79406  0.17078  0.44546  1.0000
  C   C3133     1.0  0.72750  0.20937  0.32928  1.0000
  N   N206      1.0  0.94834  0.15368  0.39679  1.0000
  C   C3134     1.0  0.94585  0.16129  0.38323  1.0000
  C   C3135     1.0  0.94510  0.14016  0.39931  1.0000
  C   C3136     1.0  0.93859  0.16087  0.40726  1.0000
  C   C3137     1.0  0.96265  0.15293  0.39721  1.0000
  C   C3138     1.0  0.96720  0.16502  0.39532  1.0000
  C   C3139     1.0  0.97247  0.14044  0.39922  1.0000
  C   C3140     1.0  0.73246  0.21753  0.37686  1.0000
  C   C3141     1.0  0.75121  0.21970  0.31968  1.0000
  C   C3142     1.0  0.84700  0.04945  0.32683  1.0000
  H   H3736     1.0  0.95296  0.15616  0.37510  1.0000
  H   H3737     1.0  0.93518  0.16209  0.38255  1.0000
  H   H3738     1.0  0.94724  0.17188  0.38077  1.0000
  H   H3739     1.0  0.94655  0.13393  0.40946  1.0000
  H   H3740     1.0  0.95159  0.13443  0.39135  1.0000
  H   H3741     1.0  0.93422  0.14109  0.39909  1.0000
  H   H3742     1.0  0.93917  0.17167  0.40526  1.0000
  H   H3743     1.0  0.92774  0.16098  0.40768  1.0000
  H   H3744     1.0  0.94062  0.15585  0.41755  1.0000
  C   C3143     1.0  0.92863  0.19475  0.23362  1.0000
  H   H3745     1.0  0.97018  0.13074  0.40029  1.0000
  H   H3746     1.0  0.71420  0.17945  0.25071  1.0000
  H   H3747     1.0  0.89263  0.18848  0.34177  1.0000
  C   C3144     1.0  0.80834  0.19997  0.31745  1.0000
  C   C3145     1.0  0.73981  0.22661  0.32826  1.0000
  C   C3146     1.0  0.91197  0.08758  0.39165  1.0000
  H   H3748     1.0  0.78135  0.17979  0.39253  1.0000
  H   H3749     1.0  0.81947  0.05431  0.33131  1.0000
  C   C3147     1.0  0.78316  0.16179  0.41722  1.0000
  H   H3750     1.0  0.82552  0.01352  0.35700  1.0000
  H   H3751     1.0  0.78112  0.15895  0.40895  1.0000
  H   H3752     1.0  0.88296  0.09345  0.42664  1.0000
  H   H3753     1.0  0.88289  0.16064  0.34327  1.0000
  H   H3754     1.0  0.77076  0.20366  0.41563  1.0000
  N   N207      1.0  0.76889  0.18540  0.41123  1.0000
  C   C3148     1.0  0.78873  0.10674  0.33991  1.0000
  H   H3755     1.0  0.85800  0.04813  0.32160  1.0000
  H   H3756     1.0  0.75582  0.20557  0.40967  1.0000
  C   C3149     1.0  0.85438  0.18671  0.35602  1.0000
  C   C3150     1.0  0.87742  0.18224  0.35948  1.0000
  N   N208      1.0  0.88021  0.10835  0.30198  1.0000
  C   C3151     1.0  0.87838  0.10778  0.28862  1.0000
  C   C3152     1.0  0.88286  0.09411  0.30988  1.0000
  C   C3153     1.0  0.86722  0.11592  0.30925  1.0000
  C   C3154     1.0  0.89133  0.11535  0.30030  1.0000
  C   C3155     1.0  0.89253  0.12749  0.29030  1.0000
  C   C3156     1.0  0.90077  0.11080  0.30897  1.0000
  C   C3157     1.0  0.90308  0.13409  0.28850  1.0000
  C   C3158     1.0  0.91117  0.11758  0.30720  1.0000
  C   C3159     1.0  0.91242  0.12910  0.29688  1.0000
  H   H3757     1.0  0.88827  0.10336  0.28224  1.0000
  H   H3758     1.0  0.87085  0.10156  0.28979  1.0000
  H   H3759     1.0  0.87407  0.11790  0.28279  1.0000
  H   H3760     1.0  0.89316  0.08823  0.30564  1.0000
  H   H3761     1.0  0.87516  0.08855  0.30998  1.0000
  H   H3762     1.0  0.88215  0.09362  0.32074  1.0000
  H   H3763     1.0  0.86473  0.12673  0.30389  1.0000
  H   H3764     1.0  0.85840  0.11151  0.31005  1.0000
  H   H3765     1.0  0.86774  0.11576  0.31972  1.0000
  H   H3766     1.0  0.88534  0.13205  0.28376  1.0000
  H   H3767     1.0  0.90045  0.10192  0.31713  1.0000
  H   H3768     1.0  0.90403  0.14314  0.28053  1.0000
  H   H3769     1.0  0.91843  0.11374  0.31376  1.0000
  H   H3770     1.0  0.92066  0.13418  0.29535  1.0000
  N   N209      1.0  0.79732  0.12255  0.36444  1.0000
  C   C3160     1.0  0.79848  0.11010  0.37541  1.0000
  C   C3161     1.0  0.81051  0.12692  0.36071  1.0000
  H   H3771     1.0  0.78865  0.10663  0.37937  1.0000
  H   H3772     1.0  0.80121  0.11181  0.38425  1.0000
  H   H3773     1.0  0.80678  0.10166  0.37184  1.0000
  H   H3774     1.0  0.81010  0.13700  0.35362  1.0000
  H   H3775     1.0  0.81336  0.12793  0.36979  1.0000
  H   H3776     1.0  0.81903  0.11935  0.35595  1.0000
  H   H3777     1.0  0.79442  0.14133  0.34073  1.0000
  C   C3162     1.0  0.78995  0.12994  0.32927  1.0000
  H   H3778     1.0  0.83865  0.19091  0.38136  1.0000
  C   C3163     1.0  0.72790  0.22104  0.33302  1.0000
  C   C3164     1.0  0.79186  0.15201  0.42488  1.0000
  H   H3779     1.0  0.87669  0.13549  0.32081  1.0000
  C   C3165     1.0  0.98070  0.16462  0.39545  1.0000
  H   H3780     1.0  0.89334  0.16038  0.32646  1.0000
  H   H3781     1.0  0.75030  0.18785  0.40459  1.0000
  S   S860      1.0  0.74907  0.21004  0.37973  1.0000
  H   H3782     1.0  0.77853  0.18794  0.43282  1.0000
  C   C3166     1.0  0.85533  0.15457  0.34461  1.0000
  H   H3783     1.0  0.60580  0.20285  0.26846  1.0000
  H   H3784     1.0  0.78513  0.11650  0.31995  1.0000
  H   H3785     1.0  0.82639  0.03771  0.34009  1.0000
  H   H3786     1.0  0.83723  0.20394  0.29298  1.0000
  H   H3787     1.0  0.81188  0.21025  0.29640  1.0000
  H   H3788     1.0  0.78877  0.13849  0.32080  1.0000
  H   H3789     1.0  0.96042  0.17490  0.39346  1.0000
  H   H3790     1.0  0.72789  0.12922  0.25886  1.0000
  C   C3167     1.0  0.88309  0.15929  0.33307  1.0000
  N   N210      1.0  0.62518  0.20073  0.25401  1.0000
  C   C3168     1.0  0.61078  0.20805  0.25825  1.0000
  H   H3791     1.0  0.84694  0.02342  0.32884  1.0000
  C   C3169     1.0  0.63320  0.20070  0.26365  1.0000
  C   C3170     1.0  0.64703  0.18897  0.28072  1.0000
  C   C3171     1.0  0.72571  0.21088  0.37178  1.0000
  C   C3172     1.0  0.82534  0.04397  0.32987  1.0000
  S   S861      1.0  0.79043  0.20422  0.31976  1.0000
  C   C3173     1.0  0.86618  0.13136  0.35343  1.0000
  C   C3174     1.0  0.88642  0.11336  0.40492  1.0000
  C   C3175     1.0  0.83786  0.05327  0.30683  1.0000
  C   C3176     1.0  0.82514  0.05910  0.30280  1.0000
  C   C3177     1.0  0.84985  0.05613  0.29710  1.0000
  C   C3178     1.0  0.82452  0.06755  0.29001  1.0000
  C   C3179     1.0  0.84911  0.06469  0.28437  1.0000
  C   C3180     1.0  0.83645  0.07045  0.28087  1.0000
  H   H3792     1.0  0.85650  0.02982  0.31243  1.0000
  H   H3793     1.0  0.85517  0.16423  0.33745  1.0000
  H   H3794     1.0  0.83399  0.16098  0.35423  1.0000
  C   C3181     1.0  0.79567  0.15525  0.43508  1.0000
  C   C3182     1.0  0.89249  0.13533  0.33716  1.0000
  C   C3183     1.0  0.69343  0.14499  0.24427  1.0000
  H   H3795     1.0  0.89208  0.12510  0.33634  1.0000
  H   H3796     1.0  0.98889  0.17270  0.35788  1.0000
  H   H3797     1.0  0.86528  0.98663  0.35219  1.0000
  H   H3798     1.0  0.81542  0.05759  0.30942  1.0000
  H   H3799     1.0  0.85990  0.05187  0.29932  1.0000
  H   H3800     1.0  0.81464  0.07224  0.28736  1.0000
  H   H3801     1.0  0.85837  0.06698  0.27723  1.0000
  H   H3802     1.0  0.83585  0.07729  0.27111  1.0000
  H   H3803     1.0  0.84814  0.16016  0.39217  1.0000
  C   C3184     1.0  0.62477  0.18695  0.25318  1.0000
  C   C3185     1.0  0.73882  0.20294  0.32073  1.0000
  H   H3804     1.0  0.98832  0.14142  0.30041  1.0000
  H   H3805     1.0  0.85827  0.15700  0.37600  1.0000
  H   H3806     1.0  0.79258  0.09921  0.35962  1.0000
  H   H3807     1.0  0.70734  0.12228  0.25835  1.0000
  N   N211      1.0  0.88021  0.14591  0.33405  1.0000
  H   H3808     1.0  0.87571  0.16798  0.32838  1.0000
  H   H3809     1.0  0.62972  0.22285  0.25995  1.0000
  C   C3186     1.0  0.75065  0.20811  0.31593  1.0000
  C   C3187     1.0  0.98190  0.16140  0.31296  1.0000
  N   N212      1.0  0.70856  0.14012  0.24219  1.0000
  C   C3188     1.0  0.99147  0.16172  0.36062  1.0000
  C   C3189     1.0  0.71137  0.12513  0.24719  1.0000
  H   H3810     1.0  0.73777  0.14153  0.26849  1.0000
  C   C3190     1.0  0.71435  0.14715  0.24899  1.0000
  H   H3811     1.0  0.73106  0.16655  0.26483  1.0000
  C   C3191     1.0  0.71102  0.16156  0.24677  1.0000
  C   C3192     1.0  0.71685  0.16844  0.25257  1.0000
  C   C3193     1.0  0.63983  0.18855  0.27146  1.0000
  H   H3812     1.0  0.61852  0.18748  0.24593  1.0000
  H   H3813     1.0  0.63956  0.17859  0.27067  1.0000
  H   H3814     1.0  0.70672  0.12005  0.24215  1.0000
  H   H3815     1.0  0.74840  0.22645  0.34990  1.0000
  H   H3816     1.0  0.72250  0.12055  0.24489  1.0000
  C   C3194     1.0  0.73005  0.14711  0.26266  1.0000
  C   C3195     1.0  0.70574  0.22980  0.37283  1.0000
  H   H3817     1.0  0.62565  0.20766  0.23250  1.0000
  H   H3818     1.0  0.89983  0.21583  0.24719  1.0000
  H   H3819     1.0  0.68887  0.13912  0.23999  1.0000
  C   C3196     1.0  0.72420  0.14011  0.25702  1.0000
  H   H3820     1.0  0.63081  0.21852  0.23955  1.0000
  N   N213      1.0  0.91677  0.20653  0.23305  1.0000
  H   H3821     1.0  0.63518  0.18094  0.24946  1.0000
  C   C3197     1.0  0.98590  0.14017  0.39950  1.0000
  C   C3198     1.0  0.84310  0.15279  0.35404  1.0000
  C   C3199     1.0  0.98138  0.13950  0.32757  1.0000
  H   H3822     1.0  0.87917  0.08713  0.40966  1.0000
  H   H3823     1.0  0.86451  0.16700  0.39866  1.0000
  H   H3824     1.0  0.84177  0.16859  0.37731  1.0000
  C   C3200     1.0  0.63120  0.20770  0.24015  1.0000
  H   H3825     1.0  0.71840  0.20517  0.33322  1.0000
  H   H3826     1.0  0.91519  0.20822  0.25353  1.0000
  H   H3827     1.0  0.64215  0.20270  0.23678  1.0000
  H   H3828     1.0  0.88454  0.12148  0.41057  1.0000
  C   C3201     1.0  0.84241  0.14038  0.36311  1.0000
  C   C3202     1.0  0.81658  0.20417  0.30474  1.0000
  C   C3203     1.0  0.85128  0.16507  0.38128  1.0000
  Fe  Fe432     1.0  0.84740  0.13694  0.45584  1.0000
  C   C3204     1.0  0.86739  0.14399  0.34426  1.0000
  H   H3829     1.0  0.75122  0.17669  0.42093  1.0000
  C   C3205     1.0  0.64786  0.20140  0.28244  1.0000
  H   H3830     1.0  0.74202  0.08825  0.24859  1.0000
  H   H3831     1.0  0.92273  0.07568  0.37647  1.0000
  H   H3832     1.0  0.90071  0.08679  0.42724  1.0000
  H   H3833     1.0  0.90215  0.13748  0.32994  1.0000
  H   H3834     1.0  0.90359  0.06479  0.37946  1.0000
  C   C3206     1.0  0.86886  0.17084  0.38770  1.0000
  H   H3835     1.0  0.87650  0.16212  0.38401  1.0000
  H   H3836     1.0  0.84445  0.18418  0.39678  1.0000
  C   C3207     1.0  0.79315  0.13146  0.34077  1.0000
  H   H3837     1.0  0.78790  0.13482  0.37954  1.0000
  H   H3838     1.0  0.85322  0.11989  0.36959  1.0000
  H   H3839     1.0  0.89370  0.13467  0.34755  1.0000
  H   H3840     1.0  0.91302  0.11239  0.39624  1.0000
  H   H3841     1.0  0.91852  0.09888  0.40992  1.0000
  H   H3842     1.0  0.61999  0.18115  0.26314  1.0000
  C   C3208     1.0  0.87856  0.14546  0.32066  1.0000
  H   H3843     1.0  0.75959  0.20290  0.30958  1.0000
  H   H3844     1.0  0.80279  0.14779  0.44070  1.0000
  H   H3845     1.0  0.83536  0.03088  0.36083  1.0000
  H   H3846     1.0  0.88189  0.07062  0.39611  1.0000
  N   N214      1.0  0.85809  0.17627  0.37966  1.0000
  H   H3847     1.0  0.87421  0.17876  0.38743  1.0000
  C   C3209     1.0  0.79430  0.12056  0.35223  1.0000
  H   H3848     1.0  0.88789  0.14704  0.31256  1.0000
  C   C3210     1.0  0.87446  0.22428  0.23856  1.0000
  H   H3849     1.0  0.90781  0.11483  0.41321  1.0000
  C   C3211     1.0  0.88193  0.18791  0.34574  1.0000
  C   C3212     1.0  0.75737  0.18004  0.41057  1.0000
  C   C3213     1.0  0.84800  0.18740  0.38559  1.0000
  N   N215      1.0  0.83890  0.04446  0.32038  1.0000
  H   H3850     1.0  0.86971  0.15347  0.31759  1.0000
  H   H3851     1.0  0.64596  0.14067  0.23180  1.0000
  H   H3852     1.0  0.78624  0.19252  0.39750  1.0000
  C   C3214     1.0  0.86343  0.18156  0.36506  1.0000
  C   C3215     1.0  0.78621  0.13323  0.37012  1.0000
  C   C3216     1.0  0.89037  0.07522  0.39501  1.0000
  H   H3853     1.0  0.87621  0.19742  0.32653  1.0000
  C   C3217     1.0  0.84594  0.03039  0.31884  1.0000
  C   C3218     1.0  0.79070  0.16824  0.43776  1.0000
  H   H3854     1.0  0.87456  0.12257  0.35358  1.0000
  C   C3219     1.0  0.90980  0.10712  0.40699  1.0000
  C   C3220     1.0  0.76277  0.19828  0.41612  1.0000
  C   C3221     1.0  0.89316  0.09611  0.42385  1.0000
  C   C3222     1.0  0.88890  0.08470  0.40271  1.0000
  C   C3223     1.0  0.90260  0.07189  0.38568  1.0000
  H   H3855     1.0  0.84693  0.04388  0.33753  1.0000
  H   H3856     1.0  0.85185  0.19640  0.33563  1.0000
  C   C3224     1.0  0.98242  0.15424  0.36001  1.0000
  H   H3857     1.0  0.78673  0.09725  0.33959  1.0000
  H   H3858     1.0  0.70698  0.21164  0.36631  1.0000
  H   H3859     1.0  0.78544  0.14325  0.36293  1.0000
  H   H3860     1.0  0.64218  0.22315  0.27625  1.0000
  C   C3225     1.0  0.78777  0.11761  0.32882  1.0000
  C   C3226     1.0  0.64160  0.21347  0.27485  1.0000
  C   C3227     1.0  0.79203  0.10807  0.35144  1.0000
  H   H3861     1.0  0.77601  0.13062  0.37251  1.0000
  H   H3862     1.0  0.81909  0.03922  0.32627  1.0000
  C   C3228     1.0  0.85388  0.12966  0.36272  1.0000
  H   H3863     1.0  0.92539  0.18503  0.23893  1.0000
  H   H3864     1.0  0.97360  0.16066  0.30858  1.0000
  H   H3865     1.0  0.69028  0.15572  0.23898  1.0000
  C   C3229     1.0  0.72588  0.23033  0.37983  1.0000
  H   H3866     1.0  0.86904  0.13353  0.47509  1.0000
  C   C3230     1.0  0.98552  0.14005  0.36382  1.0000
  H   H3867     1.0  0.61003  0.21861  0.25895  1.0000
  H   H3868     1.0  0.97716  0.14368  0.33690  1.0000
  H   H3869     1.0  0.90493  0.19781  0.25243  1.0000
  H   H3870     1.0  0.70414  0.16763  0.24026  1.0000
  C   C3231     1.0  0.74438  0.09771  0.24221  1.0000
  H   H3871     1.0  0.68849  0.14405  0.25527  1.0000
  H   H3872     1.0  0.65193  0.17961  0.28667  1.0000
  S   S862      1.0  0.83730  0.98689  0.35130  1.0000
  H   H3873     1.0  0.98803  0.16812  0.30493  1.0000
  C   C3232     1.0  0.99001  0.15222  0.39759  1.0000
  H   H3874     1.0  0.99333  0.13058  0.40071  1.0000
  H   H3875     1.0  0.98667  0.12876  0.33076  1.0000
  H   H3876     1.0  0.90315  0.18600  0.23842  1.0000
  H   H3877     1.0  0.71881  0.22537  0.33982  1.0000
  H   H3878     1.0  0.98412  0.17396  0.39356  1.0000
  S   S863      1.0  0.83952  0.13729  0.47837  1.0000
  H   H3879     1.0  0.93572  0.19578  0.23930  1.0000
  S   S864      1.0  0.62610  0.16603  0.23185  1.0000
  H   H3880     1.0  0.80683  0.12341  0.23470  1.0000
  H   H3881     1.0  0.92854  0.22021  0.23382  1.0000
  H   H3882     1.0  0.79075  0.12070  0.23470  1.0000
  H   H3883     1.0  0.76158  0.23020  0.33516  1.0000
  C   C3233     1.0  0.75116  0.23446  0.34079  1.0000
  H   H3884     1.0  0.90487  0.20393  0.52242  1.0000
  C   C3234     1.0  0.98787  0.16232  0.68530  1.0000
  H   H3885     1.0  0.90599  0.18112  0.53695  1.0000
  Fe  Fe433     1.0  0.83129  0.12656  0.70978  1.0000
  S   S865      1.0  0.81019  0.13946  0.70887  1.0000
  S   S866      1.0  0.84649  0.11749  0.69266  1.0000
  Fe  Fe434     1.0  0.81706  0.15459  0.71541  1.0000
  S   S867      1.0  0.81385  0.17708  0.70732  1.0000
  C   C3235     1.0  0.84342  0.99197  0.63707  1.0000
  S   S868      1.0  0.83852  0.14255  0.71469  1.0000
  H   H3886     1.0  0.82768  0.17948  0.72796  1.0000
  H   H3887     1.0  0.89625  0.11975  0.68685  1.0000
  H   H3888     1.0  0.80955  0.18274  0.62550  1.0000
  Fe  Fe435     1.0  0.88321  0.20873  0.72068  1.0000
  C   C3236     1.0  0.81783  0.00535  0.66228  1.0000
  S   S869      1.0  0.90303  0.20386  0.70535  1.0000
  C   C3237     1.0  0.81590  0.02716  0.66717  1.0000
  Fe  Fe436     1.0  0.94071  0.13815  0.64656  1.0000
  H   H3889     1.0  0.95408  0.17612  0.69623  1.0000
  H   H3890     1.0  0.95863  0.07164  0.63177  1.0000
  C   C3238     1.0  0.89607  0.19627  0.54947  1.0000
  H   H3891     1.0  0.75879  0.20324  0.71892  1.0000
  H   H3892     1.0  0.82208  0.19667  0.71936  1.0000
  C   C3239     1.0  0.87851  0.16025  0.71503  1.0000
  S   S870      1.0  0.80679  0.19713  0.64682  1.0000
  C   C3240     1.0  0.87801  0.99518  0.60596  1.0000
  H   H3893     1.0  0.90322  0.19259  0.58053  1.0000
  C   C3241     1.0  0.87157  0.13801  0.49305  1.0000
  C   C3242     1.0  0.91269  0.17856  0.56732  1.0000
  C   C3243     1.0  0.94460  0.09780  0.65914  1.0000
  S   S871      1.0  0.92516  0.13271  0.66591  1.0000
  Fe  Fe437     1.0  0.91869  0.15104  0.62999  1.0000
  S   S872      1.0  0.90201  0.14617  0.64791  1.0000
  S   S873      1.0  0.90961  0.16411  0.61234  1.0000
  Fe  Fe438     1.0  0.91251  0.15348  0.65940  1.0000
  S   S874      1.0  0.89519  0.16603  0.67212  1.0000
  Fe  Fe439     1.0  0.91568  0.12595  0.65293  1.0000
  S   S875      1.0  0.90512  0.10857  0.66298  1.0000
  S   S876      1.0  0.92866  0.15973  0.64109  1.0000
  S   S877      1.0  0.93180  0.12994  0.63389  1.0000
  Fe  Fe440     1.0  0.85339  0.14196  0.56669  1.0000
  S   S878      1.0  0.87355  0.13178  0.55521  1.0000
  S   S879      1.0  0.83890  0.13282  0.58482  1.0000
  Fe  Fe441     1.0  0.85798  0.17005  0.55326  1.0000
  S   S880      1.0  0.87871  0.16247  0.54063  1.0000
  S   S881      1.0  0.84758  0.19184  0.55394  1.0000
  Fe  Fe442     1.0  0.86848  0.14790  0.53698  1.0000
  S   S882      1.0  0.87532  0.14233  0.51624  1.0000
  Fe  Fe443     1.0  0.88209  0.14704  0.55970  1.0000
  S   S883      1.0  0.90184  0.13944  0.56711  1.0000
  S   S884      1.0  0.84739  0.15675  0.54821  1.0000
  S   S885      1.0  0.86231  0.15590  0.57254  1.0000
  Fe  Fe444     1.0  0.84967  0.06460  0.65267  1.0000
  S   S886      1.0  0.86915  0.04992  0.65678  1.0000
  S   S887      1.0  0.83357  0.07389  0.66909  1.0000
  Fe  Fe445     1.0  0.85681  0.06249  0.62304  1.0000
  S   S888      1.0  0.87670  0.04774  0.62495  1.0000
  S   S889      1.0  0.85298  0.06893  0.60200  1.0000
  Fe  Fe446     1.0  0.86460  0.03767  0.64454  1.0000
  S   S890      1.0  0.86721  0.01469  0.65097  1.0000
  Fe  Fe447     1.0  0.87912  0.06152  0.63669  1.0000
  S   S891      1.0  0.89858  0.06945  0.63006  1.0000
  S   S892      1.0  0.84438  0.05160  0.64182  1.0000
  S   S893      1.0  0.85989  0.07697  0.63349  1.0000
  C   C3244     1.0  0.88826  0.21350  0.65273  1.0000
  C   C3245     1.0  0.85788  0.00619  0.64553  1.0000
  C   C3246     1.0  0.84796  0.01332  0.63799  1.0000
  C   C3247     1.0  0.84075  0.00624  0.63382  1.0000
  H   H3894     1.0  0.94512  0.10204  0.63181  1.0000
  H   H3895     1.0  0.86371  0.12559  0.59816  1.0000
  C   C3248     1.0  0.98348  0.15650  0.64912  1.0000
  H   H3896     1.0  0.84587  0.02430  0.63530  1.0000
  H   H3897     1.0  0.83312  0.01187  0.62795  1.0000
  H   H3898     1.0  0.83351  0.19548  0.60945  1.0000
  H   H3899     1.0  0.81562  0.10574  0.58581  1.0000
  C   C3249     1.0  0.84339  0.11509  0.58959  1.0000
  C   C3250     1.0  0.83765  0.10863  0.60268  1.0000
  C   C3251     1.0  0.84081  0.09442  0.60660  1.0000
  C   C3252     1.0  0.84945  0.08667  0.59731  1.0000
  C   C3253     1.0  0.85526  0.09313  0.58423  1.0000
  C   C3254     1.0  0.85237  0.10736  0.58043  1.0000
  H   H3900     1.0  0.83069  0.11460  0.60978  1.0000
  H   H3901     1.0  0.83627  0.08945  0.61669  1.0000
  H   H3902     1.0  0.86194  0.08712  0.57705  1.0000
  H   H3903     1.0  0.85662  0.11230  0.57025  1.0000
  C   C3255     1.0  0.90268  0.09862  0.65323  1.0000
  C   C3256     1.0  0.89349  0.08998  0.65927  1.0000
  C   C3257     1.0  0.89177  0.08139  0.65202  1.0000
  C   C3258     1.0  0.89955  0.08109  0.63883  1.0000
  C   C3259     1.0  0.90872  0.08977  0.63275  1.0000
  C   C3260     1.0  0.91014  0.09867  0.63986  1.0000
  H   H3904     1.0  0.88777  0.08984  0.66964  1.0000
  H   H3905     1.0  0.88475  0.07467  0.65679  1.0000
  H   H3906     1.0  0.91484  0.08948  0.62259  1.0000
  H   H3907     1.0  0.91725  0.10528  0.63515  1.0000
  C   C3261     1.0  0.90681  0.15616  0.60095  1.0000
  C   C3262     1.0  0.89528  0.16184  0.59524  1.0000
  C   C3263     1.0  0.89354  0.15668  0.58498  1.0000
  C   C3264     1.0  0.90344  0.14590  0.58025  1.0000
  C   C3265     1.0  0.91484  0.14002  0.58618  1.0000
  C   C3266     1.0  0.91646  0.14504  0.59661  1.0000
  H   H3908     1.0  0.88784  0.17045  0.59857  1.0000
  H   H3909     1.0  0.88478  0.16135  0.58043  1.0000
  H   H3910     1.0  0.92252  0.13164  0.58259  1.0000
  H   H3911     1.0  0.92544  0.14067  0.60090  1.0000
  C   C3267     1.0  0.88644  0.00249  0.60830  1.0000
  C   C3268     1.0  0.84301  0.14436  0.50036  1.0000
  C   C3269     1.0  0.85072  0.14560  0.50889  1.0000
  C   C3270     1.0  0.86506  0.14222  0.50536  1.0000
  C   C3271     1.0  0.77960  0.17182  0.72308  1.0000
  H   H3912     1.0  0.89166  0.13187  0.60521  1.0000
  H   H3913     1.0  0.83192  0.14677  0.50325  1.0000
  H   H3914     1.0  0.84557  0.14902  0.51824  1.0000
  H   H3915     1.0  0.94551  0.05607  0.63079  1.0000
  C   C3272     1.0  0.92518  0.06737  0.65869  1.0000
  H   H3916     1.0  0.86524  0.19269  0.64479  1.0000
  C   C3273     1.0  0.84397  0.21210  0.58291  1.0000
  C   C3274     1.0  0.84163  0.20805  0.57223  1.0000
  C   C3275     1.0  0.85057  0.19688  0.56725  1.0000
  S   S894      1.0  0.96350  0.12915  0.64634  1.0000
  H   H3917     1.0  0.84781  0.03520  0.68288  1.0000
  H   H3918     1.0  0.83701  0.22069  0.58678  1.0000
  H   H3919     1.0  0.83281  0.21349  0.56791  1.0000
  C   C3276     1.0  0.76213  0.19250  0.72310  1.0000
  S   S895      1.0  0.83328  0.22138  0.71753  1.0000
  C   C3277     1.0  0.89821  0.17764  0.67957  1.0000
  C   C3278     1.0  0.88698  0.18724  0.68471  1.0000
  C   C3279     1.0  0.88855  0.19558  0.69225  1.0000
  C   C3280     1.0  0.90137  0.19434  0.69475  1.0000
  C   C3281     1.0  0.91279  0.18514  0.68910  1.0000
  C   C3282     1.0  0.91121  0.17676  0.68149  1.0000
  H   H3920     1.0  0.87699  0.18820  0.68292  1.0000
  H   H3921     1.0  0.87984  0.20308  0.69603  1.0000
  H   H3922     1.0  0.92275  0.18427  0.69092  1.0000
  H   H3923     1.0  0.91993  0.16939  0.67748  1.0000
  H   H3924     1.0  0.96290  0.15684  0.64806  1.0000
  C   C3283     1.0  0.97312  0.15070  0.64828  1.0000
  C   C3284     1.0  0.94194  0.06175  0.63880  1.0000
  N   N216      1.0  0.88393  0.19998  0.63858  1.0000
  H   H3925     1.0  0.88737  0.19119  0.52838  1.0000
  H   H3926     1.0  0.83010  0.16902  0.59478  1.0000
  C   C3285     1.0  0.85088  0.22525  0.69276  1.0000
  C   C3286     1.0  0.84272  0.10527  0.68641  1.0000
  C   C3287     1.0  0.85288  0.09883  0.67679  1.0000
  C   C3288     1.0  0.85019  0.08927  0.67132  1.0000
  C   C3289     1.0  0.83729  0.08600  0.67556  1.0000
  C   C3290     1.0  0.82714  0.09241  0.68524  1.0000
  C   C3291     1.0  0.82982  0.10203  0.69065  1.0000
  H   H3927     1.0  0.86293  0.10114  0.67370  1.0000
  H   H3928     1.0  0.85812  0.08432  0.66395  1.0000
  H   H3929     1.0  0.81714  0.08993  0.68858  1.0000
  H   H3930     1.0  0.82192  0.10692  0.69808  1.0000
  C   C3292     1.0  0.81139  0.18253  0.69068  1.0000
  C   C3293     1.0  0.81065  0.19620  0.68428  1.0000
  C   C3294     1.0  0.80921  0.20070  0.67080  1.0000
  C   C3295     1.0  0.80806  0.19162  0.66383  1.0000
  C   C3296     1.0  0.80840  0.17801  0.67035  1.0000
  C   C3297     1.0  0.81023  0.17343  0.68373  1.0000
  H   H3931     1.0  0.81155  0.20328  0.68962  1.0000
  H   H3932     1.0  0.90163  0.11619  0.59244  1.0000
  H   H3933     1.0  0.80741  0.17098  0.66503  1.0000
  H   H3934     1.0  0.81069  0.16291  0.68861  1.0000
  N   N217      1.0  0.82951  0.02922  0.68300  1.0000
  H   H3935     1.0  0.92391  0.05344  0.64766  1.0000
  S   S896      1.0  0.85888  0.21004  0.60155  1.0000
  H   H3936     1.0  0.88833  0.02169  0.61056  1.0000
  C   C3298     1.0  0.94446  0.07883  0.64939  1.0000
  H   H3937     1.0  0.87240  0.22072  0.63370  1.0000
  C   C3299     1.0  0.82744  0.22630  0.69247  1.0000
  C   C3300     1.0  0.87744  0.21668  0.54540  1.0000
  Fe  Fe448     1.0  0.81622  0.21525  0.63758  1.0000
  C   C3301     1.0  0.88607  0.13067  0.62649  1.0000
  C   C3302     1.0  0.89321  0.20319  0.64508  1.0000
  H   H3938     1.0  0.91182  0.18812  0.63881  1.0000
  C   C3303     1.0  0.90713  0.19612  0.64437  1.0000
  H   H3939     1.0  0.81703  0.22578  0.69785  1.0000
  H   H3940     1.0  0.88225  0.22371  0.54778  1.0000
  H   H3941     1.0  0.90360  0.15455  0.70046  1.0000
  H   H3942     1.0  0.86918  0.18157  0.56879  1.0000
  Fe  Fe449     1.0  0.85222  0.21630  0.72586  1.0000
  C   C3304     1.0  0.83000  0.14758  0.64476  1.0000
  H   H3943     1.0  0.91566  0.06619  0.66602  1.0000
  H   H3944     1.0  0.96381  0.07472  0.66327  1.0000
  H   H3945     1.0  0.80888  0.21122  0.66587  1.0000
  H   H3946     1.0  0.97137  0.08879  0.65316  1.0000
  H   H3947     1.0  0.84711  0.12839  0.62136  1.0000
  H   H3948     1.0  0.89431  0.17912  0.63802  1.0000
  H   H3949     1.0  0.85864  0.22396  0.69828  1.0000
  H   H3950     1.0  0.90294  0.21761  0.53041  1.0000
  H   H3951     1.0  0.95025  0.10562  0.65852  1.0000
  H   H3952     1.0  0.88724  0.21596  0.62088  1.0000
  S   S897      1.0  0.86742  0.19656  0.72438  1.0000
  C   C3305     1.0  0.89567  0.19918  0.56207  1.0000
  H   H3953     1.0  0.87980  0.12682  0.64832  1.0000
  H   H3954     1.0  0.94315  0.09200  0.66985  1.0000
  H   H3955     1.0  0.90481  0.15748  0.71582  1.0000
  H   H3956     1.0  0.82898  0.02942  0.70364  1.0000
  C   C3306     1.0  0.90388  0.19038  0.57082  1.0000
  H   H3957     1.0  0.87575  0.18713  0.65721  1.0000
  C   C3307     1.0  0.92984  0.06013  0.64836  1.0000
  H   H3958     1.0  0.83206  0.18600  0.59167  1.0000
  C   C3308     1.0  0.83233  0.16205  0.62176  1.0000
  H   H3959     1.0  0.89104  0.13873  0.62575  1.0000
  N   N218      1.0  0.88784  0.20549  0.53974  1.0000
  C   C3309     1.0  0.93230  0.07662  0.65925  1.0000
  C   C3310     1.0  0.83709  0.13611  0.63946  1.0000
  C   C3311     1.0  0.96538  0.08156  0.65302  1.0000
  H   H3960     1.0  0.91970  0.16582  0.55276  1.0000
  N   N219      1.0  0.95207  0.08885  0.64937  1.0000
  C   C3312     1.0  0.86202  0.18996  0.57278  1.0000
  C   C3313     1.0  0.87386  0.10949  0.62835  1.0000
  H   H3961     1.0  0.82597  0.14648  0.65563  1.0000
  H   H3962     1.0  0.81803  0.12789  0.57044  1.0000
  N   N220      1.0  0.85660  0.15555  0.67116  1.0000
  C   C3314     1.0  0.86353  0.15862  0.65656  1.0000
  C   C3315     1.0  0.86587  0.14374  0.67799  1.0000
  C   C3316     1.0  0.84372  0.15146  0.67243  1.0000
  C   C3317     1.0  0.85324  0.16773  0.67701  1.0000
  C   C3318     1.0  0.85611  0.16725  0.68963  1.0000
  C   C3319     1.0  0.84634  0.18046  0.67037  1.0000
  C   C3320     1.0  0.85253  0.17891  0.69499  1.0000
  C   C3321     1.0  0.84333  0.19212  0.67556  1.0000
  C   C3322     1.0  0.84635  0.19131  0.68788  1.0000
  H   H3963     1.0  0.87265  0.16282  0.65520  1.0000
  H   H3964     1.0  0.86711  0.14937  0.65218  1.0000
  H   H3965     1.0  0.85666  0.16597  0.65018  1.0000
  H   H3966     1.0  0.86874  0.13489  0.67306  1.0000
  H   H3967     1.0  0.86084  0.13984  0.68868  1.0000
  H   H3968     1.0  0.87556  0.14639  0.67783  1.0000
  H   H3969     1.0  0.83659  0.15955  0.66682  1.0000
  H   H3970     1.0  0.84573  0.14203  0.66859  1.0000
  H   H3971     1.0  0.83815  0.14929  0.68327  1.0000
  H   H3972     1.0  0.86097  0.15798  0.69560  1.0000
  H   H3973     1.0  0.84296  0.18151  0.66123  1.0000
  H   H3974     1.0  0.85454  0.17843  0.70470  1.0000
  H   H3975     1.0  0.83821  0.20180  0.67024  1.0000
  H   H3976     1.0  0.84369  0.20026  0.69207  1.0000
  C   C3323     1.0  0.97607  0.13701  0.64761  1.0000
  C   C3324     1.0  0.90254  0.14998  0.71149  1.0000
  C   C3325     1.0  0.87890  0.11718  0.70338  1.0000
  C   C3326     1.0  0.97023  0.17510  0.70578  1.0000
  H   H3977     1.0  0.88341  0.18674  0.62622  1.0000
  C   C3327     1.0  0.83954  0.15012  0.61668  1.0000
  H   H3978     1.0  0.84330  0.15027  0.60594  1.0000
  H   H3979     1.0  0.87236  0.20440  0.53007  1.0000
  C   C3328     1.0  0.86465  0.00250  0.60430  1.0000
  C   C3329     1.0  0.86453  0.19423  0.58319  1.0000
  C   C3330     1.0  0.87868  0.21219  0.62874  1.0000
  C   C3331     1.0  0.86388  0.13695  0.48444  1.0000
  C   C3332     1.0  0.87216  0.19577  0.64916  1.0000
  H   H3980     1.0  0.97189  0.07517  0.64569  1.0000
  C   C3333     1.0  0.82546  0.02126  0.67569  1.0000
  S   S898      1.0  0.83870  0.20997  0.63655  1.0000
  H   H3981     1.0  0.87630  0.10972  0.69971  1.0000
  C   C3334     1.0  0.89011  0.12287  0.69615  1.0000
  H   H3982     1.0  0.86570  0.20412  0.65431  1.0000
  S   S899      1.0  0.81253  0.23466  0.64469  1.0000
  C   C3335     1.0  0.89059  0.18882  0.63112  1.0000
  C   C3336     1.0  0.84185  0.13739  0.62546  1.0000
  H   H3983     1.0  0.83871  0.12616  0.64620  1.0000
  H   H3984     1.0  0.89939  0.19138  0.62274  1.0000
  H   H3985     1.0  0.88895  0.20804  0.56555  1.0000
  H   H3986     1.0  0.86482  0.10130  0.60971  1.0000
  H   H3987     1.0  0.86784  0.15911  0.71997  1.0000
  C   C3337     1.0  0.95473  0.09778  0.63564  1.0000
  H   H3988     1.0  0.89651  0.99773  0.61026  1.0000
  H   H3989     1.0  0.82334  0.22950  0.67260  1.0000
  C   C3338     1.0  0.82658  0.02331  0.69780  1.0000
  C   C3339     1.0  0.85548  0.20521  0.58834  1.0000
  H   H3990     1.0  0.83894  0.00201  0.68278  1.0000
  H   H3991     1.0  0.89794  0.10352  0.58670  1.0000
  H   H3992     1.0  0.90200  0.13683  0.69440  1.0000
  C   C3340     1.0  0.88554  0.13687  0.71294  1.0000
  C   C3341     1.0  0.98431  0.17098  0.70545  1.0000
  H   H3993     1.0  0.87523  0.11921  0.58392  1.0000
  H   H3994     1.0  0.82457  0.04910  0.67017  1.0000
  H   H3995     1.0  0.80908  0.17395  0.61323  1.0000
  C   C3342     1.0  0.84442  0.02876  0.67818  1.0000
  C   C3343     1.0  0.83120  0.00711  0.67694  1.0000
  N   N221      1.0  0.84915  0.10791  0.53586  1.0000
  C   C3344     1.0  0.84119  0.11515  0.52527  1.0000
  C   C3345     1.0  0.85952  0.11555  0.53492  1.0000
  C   C3346     1.0  0.85670  0.09447  0.53268  1.0000
  C   C3347     1.0  0.83978  0.10704  0.54947  1.0000
  C   C3348     1.0  0.83210  0.11908  0.55407  1.0000
  C   C3349     1.0  0.83808  0.09446  0.55857  1.0000
  H   H3996     1.0  0.98766  0.17311  0.71333  1.0000
  C   C3350     1.0  0.82931  0.09408  0.57145  1.0000
  H   H3997     1.0  0.84602  0.17234  0.59553  1.0000
  H   H3998     1.0  0.83591  0.12571  0.52634  1.0000
  H   H3999     1.0  0.84790  0.11602  0.51484  1.0000
  H   H4000     1.0  0.83317  0.10983  0.52570  1.0000
  H   H4001     1.0  0.86524  0.11087  0.54318  1.0000
  H   H4002     1.0  0.85491  0.12633  0.53559  1.0000
  H   H4003     1.0  0.86718  0.11591  0.52504  1.0000
  H   H4004     1.0  0.84954  0.08832  0.53272  1.0000
  H   H4005     1.0  0.86363  0.09557  0.52237  1.0000
  H   H4006     1.0  0.86329  0.08864  0.54001  1.0000
  H   H4007     1.0  0.83297  0.12902  0.54782  1.0000
  H   H4008     1.0  0.84358  0.08476  0.55613  1.0000
  H   H4009     1.0  0.91887  0.17168  0.57425  1.0000
  H   H4010     1.0  0.78976  0.16642  0.71885  1.0000
  H   H4011     1.0  0.86534  0.03401  0.60664  1.0000
  H   H4012     1.0  0.81126  0.03789  0.66524  1.0000
  C   C3351     1.0  0.87394  0.13113  0.71983  1.0000
  H   H4013     1.0  0.81556  0.02289  0.70169  1.0000
  S   S900      1.0  0.81818  0.22487  0.61541  1.0000
  C   C3352     1.0  0.82221  0.04374  0.68102  1.0000
  H   H4014     1.0  0.96976  0.16472  0.67804  1.0000
  C   C3353     1.0  0.82735  0.99931  0.67039  1.0000
  H   H4015     1.0  0.83279  0.01284  0.70036  1.0000
  H   H4016     1.0  0.81158  0.19111  0.60812  1.0000
  H   H4017     1.0  0.82853  0.08440  0.57844  1.0000
  H   H4018     1.0  0.85002  0.02174  0.60308  1.0000
  H   H4019     1.0  0.80506  0.02395  0.65397  1.0000
  H   H4020     1.0  0.86840  0.10860  0.64985  1.0000
  C   C3354     1.0  0.81425  0.18105  0.61502  1.0000
  H   H4021     1.0  0.78211  0.19088  0.70950  1.0000
  H   H4022     1.0  0.86919  0.10110  0.62989  1.0000
  C   C3355     1.0  0.88188  0.01634  0.60848  1.0000
  H   H4023     1.0  0.84706  0.03250  0.66701  1.0000
  C   C3356     1.0  0.91320  0.17532  0.55517  1.0000
  H   H4024     1.0  0.96331  0.18014  0.71368  1.0000
  H   H4025     1.0  0.91061  0.14047  0.71281  1.0000
  H   H4026     1.0  0.93437  0.10338  0.65705  1.0000
  C   C3357     1.0  0.86037  0.99192  0.64901  1.0000
  C   C3358     1.0  0.94927  0.07082  0.63937  1.0000
  H   H4027     1.0  0.95891  0.10649  0.63564  1.0000
  C   C3359     1.0  0.86890  0.02331  0.60633  1.0000
  H   H4028     1.0  0.88123  0.09018  0.61197  1.0000
  H   H4029     1.0  0.87191  0.21006  0.62339  1.0000
  S   S901      1.0  0.84954  0.23162  0.65351  1.0000
  H   H4030     1.0  0.87721  0.09587  0.59560  1.0000
  C   C3360     1.0  0.83100  0.22836  0.67820  1.0000
  H   H4031     1.0  0.90246  0.09935  0.60294  1.0000
  H   H4032     1.0  0.87934  0.13140  0.59014  1.0000
  H   H4033     1.0  0.87916  0.16382  0.70389  1.0000
  H   H4034     1.0  0.87350  0.18899  0.58727  1.0000
  H   H4035     1.0  0.87536  0.19096  0.54434  1.0000
  C   C3361     1.0  0.89716  0.21172  0.52760  1.0000
  Fe  Fe450     1.0  0.84060  0.22100  0.61490  1.0000
  H   H4036     1.0  0.96240  0.09239  0.62803  1.0000
  H   H4037     1.0  0.87782  0.21934  0.65366  1.0000
  C   C3362     1.0  0.87959  0.12415  0.63913  1.0000
  C   C3363     1.0  0.87329  0.11378  0.64001  1.0000
  C   C3364     1.0  0.91538  0.19906  0.65117  1.0000
  C   C3365     1.0  0.89337  0.13265  0.70072  1.0000
  H   H4038     1.0  0.83134  0.18660  0.62666  1.0000
  H   H4039     1.0  0.84688  0.18154  0.61457  1.0000
  C   C3366     1.0  0.82772  0.16038  0.63609  1.0000
  H   H4040     1.0  0.85082  0.01831  0.68032  1.0000
  C   C3367     1.0  0.88651  0.12657  0.61475  1.0000
  C   C3368     1.0  0.83463  0.17566  0.59810  1.0000
  H   H4041     1.0  0.82204  0.16897  0.64067  1.0000
  C   C3369     1.0  0.99359  0.16441  0.69515  1.0000
  C   C3370     1.0  0.83555  0.18515  0.61605  1.0000
  N   N222      1.0  0.82932  0.17567  0.61280  1.0000
  H   H4042     1.0  0.82538  0.04944  0.68673  1.0000
  H   H4043     1.0  0.81091  0.04493  0.68461  1.0000
  N   N223      1.0  0.88194  0.11113  0.60276  1.0000
  C   C3371     1.0  0.87475  0.12233  0.59338  1.0000
  C   C3372     1.0  0.89662  0.10740  0.59596  1.0000
  C   C3373     1.0  0.87603  0.09911  0.60519  1.0000
  C   C3374     1.0  0.88071  0.11565  0.61532  1.0000
  C   C3375     1.0  0.90514  0.18407  0.54629  1.0000
  C   C3376     1.0  0.89654  0.21629  0.65957  1.0000
  H   H4044     1.0  0.87032  0.21264  0.55480  1.0000
  C   C3377     1.0  0.91006  0.20905  0.65884  1.0000
  H   H4045     1.0  0.92776  0.08220  0.66726  1.0000
  H   H4046     1.0  0.85726  0.99747  0.60349  1.0000
  C   C3378     1.0  0.88049  0.19772  0.53542  1.0000
  S   S902      1.0  0.86804  0.22886  0.72024  1.0000
  C   C3379     1.0  0.97381  0.16645  0.68573  1.0000
  C   C3380     1.0  0.82339  0.11856  0.56696  1.0000
  C   C3381     1.0  0.84955  0.13994  0.48814  1.0000
  C   C3382     1.0  0.82202  0.10609  0.57564  1.0000
  C   C3383     1.0  0.77526  0.18560  0.71779  1.0000
  H   H4047     1.0  0.98110  0.16712  0.64954  1.0000
  H   H4048     1.0  0.92585  0.19331  0.65077  1.0000
  C   C3384     1.0  0.81219  0.01925  0.66060  1.0000
  H   H4049     1.0  0.86197  0.11701  0.72070  1.0000
  C   C3385     1.0  0.87082  0.12133  0.71519  1.0000
  N   N224      1.0  0.88861  0.14734  0.71796  1.0000
  H   H4050     1.0  0.91632  0.21102  0.66445  1.0000
  C   C3386     1.0  0.86031  0.01640  0.60423  1.0000
  C   C3387     1.0  0.96499  0.17285  0.69595  1.0000
  H   H4051     1.0  0.88032  0.16846  0.71869  1.0000
  H   H4052     1.0  0.87092  0.22303  0.53816  1.0000
  C   C3388     1.0  0.98947  0.12922  0.64787  1.0000
  C   C3389     1.0  0.83742  0.22471  0.69973  1.0000
  H   H4053     1.0  0.88266  0.13542  0.49021  1.0000
  H   H4054     1.0  0.89140  0.21874  0.51997  1.0000
  H   H4055     1.0  0.99188  0.11863  0.64737  1.0000
  H   H4056     1.0  0.89235  0.22393  0.66571  1.0000
  H   H4057     1.0  0.79781  0.19565  0.72770  1.0000
  H   H4058     1.0  0.86704  0.13423  0.72882  1.0000
  H   H4059     1.0  0.81518  0.99930  0.65692  1.0000
  C   C3390     1.0  0.85436  0.22755  0.67857  1.0000
  H   H4060     1.0  0.86791  0.98632  0.65498  1.0000
  C   C3391     1.0  0.84448  0.22904  0.67126  1.0000
  Fe  Fe451     1.0  0.83548  0.23014  0.64148  1.0000
  H   H4061     1.0  0.86476  0.22819  0.67328  1.0000
  H   H4062     1.0  0.83208  0.98857  0.67126  1.0000
  C   C3392     1.0  0.82424  0.19018  0.72923  1.0000
  H   H4063     1.0  0.66337  0.14166  0.82921  1.0000
  S   S903      1.0  0.66389  0.13179  0.92953  1.0000
  Fe  Fe452     1.0  0.62971  0.15019  0.91800  1.0000
  S   S904      1.0  0.64906  0.14303  0.90366  1.0000
  S   S905      1.0  0.61200  0.16129  0.90783  1.0000
  Fe  Fe453     1.0  0.65181  0.12411  0.91965  1.0000
  S   S906      1.0  0.66113  0.10525  0.91093  1.0000
  Fe  Fe454     1.0  0.65963  0.15134  0.91433  1.0000
  S   S907      1.0  0.67610  0.16112  0.89901  1.0000
  S   S908      1.0  0.63989  0.16043  0.92748  1.0000
  Fe  Fe455     1.0  0.56135  0.16031  0.85418  1.0000
  S   S909      1.0  0.55082  0.15402  0.87599  1.0000
  S   S910      1.0  0.56424  0.18141  0.84346  1.0000
  Fe  Fe456     1.0  0.56661  0.13224  0.84875  1.0000
  S   S911      1.0  0.55689  0.12345  0.87009  1.0000
  S   S912      1.0  0.57388  0.12092  0.83187  1.0000
  Fe  Fe457     1.0  0.54030  0.14249  0.86815  1.0000
  S   S913      1.0  0.51729  0.14323  0.87514  1.0000
  Fe  Fe458     1.0  0.56827  0.13565  0.87586  1.0000
  S   S914      1.0  0.58091  0.12587  0.89182  1.0000
  S   S915      1.0  0.54942  0.15054  0.84634  1.0000
  S   S916      1.0  0.57946  0.14270  0.85449  1.0000
  Fe  Fe459     1.0  0.63990  0.06930  0.84348  1.0000
  S   S917      1.0  0.62917  0.05686  0.86240  1.0000
  S   S918      1.0  0.63216  0.08101  0.82482  1.0000
  Fe  Fe460     1.0  0.66631  0.06293  0.85291  1.0000
  S   S919      1.0  0.65812  0.04982  0.87278  1.0000
  S   S920      1.0  0.68767  0.06688  0.84474  1.0000
  Fe  Fe461     1.0  0.64916  0.04121  0.86052  1.0000
  S   S921      1.0  0.65307  0.01817  0.86301  1.0000
  Fe  Fe462     1.0  0.63892  0.06640  0.87302  1.0000
  S   S922      1.0  0.62666  0.07739  0.88981  1.0000
  S   S923      1.0  0.65904  0.05305  0.84067  1.0000
  S   S924      1.0  0.64782  0.08007  0.85417  1.0000
  H   H4064     1.0  0.66493  0.21716  0.89022  1.0000
  Fe  Fe463     1.0  0.62466  0.20974  0.83141  1.0000
  S   S925      1.0  0.61892  0.21035  0.81218  1.0000
  S   S926      1.0  0.61416  0.19894  0.85168  1.0000
  H   H4065     1.0  0.80529  0.16684  0.75519  1.0000
  H   H4066     1.0  0.74307  0.15544  0.73547  1.0000
  H   H4067     1.0  0.62463  0.12195  0.88860  1.0000
  Fe  Fe464     1.0  0.83073  0.13333  0.73638  1.0000
  Fe  Fe465     1.0  0.64127  0.20164  0.80527  1.0000
  S   S927      1.0  0.64882  0.18249  0.79739  1.0000
  S   S928      1.0  0.64672  0.19978  0.82488  1.0000
  C   C3393     1.0  0.61422  0.13141  0.86629  1.0000
  H   H4068     1.0  0.62657  0.02507  0.85525  1.0000
  Fe  Fe466     1.0  0.74045  0.13393  0.81082  1.0000
  S   S929      1.0  0.72949  0.13018  0.83279  1.0000
  S   S930      1.0  0.76202  0.12250  0.80388  1.0000
  Fe  Fe467     1.0  0.71909  0.15843  0.80304  1.0000
  S   S931      1.0  0.70628  0.15734  0.82419  1.0000
  S   S932      1.0  0.71286  0.17473  0.78571  1.0000
  Fe  Fe468     1.0  0.72605  0.15262  0.83061  1.0000
  S   S933      1.0  0.72692  0.15878  0.84917  1.0000
  Fe  Fe469     1.0  0.71031  0.13505  0.82506  1.0000
  S   S934      1.0  0.69111  0.12767  0.83686  1.0000
  S   S935      1.0  0.73861  0.15608  0.80930  1.0000
  S   S936      1.0  0.72159  0.13649  0.80312  1.0000
  C   C3394     1.0  0.50364  0.16831  0.81356  1.0000
  S   S937      1.0  0.70210  0.21814  0.87243  1.0000
  S   S938      1.0  0.73552  0.21741  0.84430  1.0000
  H   H4069     1.0  0.70256  0.19814  0.79996  1.0000
  H   H4070     1.0  0.84277  0.15712  0.73702  1.0000
  H   H4071     1.0  0.81623  0.21042  0.74222  1.0000
  Fe  Fe470     1.0  0.70684  0.21885  0.89167  1.0000
  S   S939      1.0  0.70199  0.20328  0.91092  1.0000
  C   C3395     1.0  0.64406  0.19548  0.89552  1.0000
  H   H4072     1.0  0.62938  0.10698  0.87326  1.0000
  S   S940      1.0  0.72737  0.22427  0.88168  1.0000
  H   H4073     1.0  0.59084  0.10558  0.87505  1.0000
  H   H4074     1.0  0.64582  0.11092  0.86657  1.0000
  H   H4075     1.0  0.66286  0.19357  0.90135  1.0000
  S   S941      1.0  0.63162  0.13063  0.93359  1.0000
  C   C3396     1.0  0.66687  0.00507  0.82853  1.0000
  C   C3397     1.0  0.82873  0.17780  0.77100  1.0000
  H   H4076     1.0  0.59046  0.16522  0.82976  1.0000
  H   H4077     1.0  0.61308  0.13154  0.85602  1.0000
  C   C3398     1.0  0.72897  0.17528  0.84742  1.0000
  C   C3399     1.0  0.72740  0.17994  0.85916  1.0000
  C   C3400     1.0  0.72934  0.19290  0.85817  1.0000
  C   C3401     1.0  0.73315  0.20116  0.84543  1.0000
  C   C3402     1.0  0.73487  0.19646  0.83364  1.0000
  C   C3403     1.0  0.73257  0.18361  0.83463  1.0000
  H   H4078     1.0  0.72467  0.17353  0.86908  1.0000
  H   H4079     1.0  0.72816  0.19638  0.86731  1.0000
  H   H4080     1.0  0.73771  0.20289  0.82377  1.0000
  H   H4081     1.0  0.73364  0.18012  0.82552  1.0000
  C   C3404     1.0  0.85530  0.13977  0.76505  1.0000
  C   C3405     1.0  0.86068  0.14976  0.76689  1.0000
  H   H4082     1.0  0.85615  0.12995  0.77200  1.0000
  H   H4083     1.0  0.86555  0.14765  0.77532  1.0000
  C   C3406     1.0  0.77804  0.12427  0.75826  1.0000
  C   C3407     1.0  0.76455  0.12287  0.76452  1.0000
  C   C3408     1.0  0.75941  0.12278  0.77843  1.0000
  C   C3409     1.0  0.76791  0.12357  0.78626  1.0000
  C   C3410     1.0  0.78147  0.12471  0.78006  1.0000
  C   C3411     1.0  0.78648  0.12525  0.76606  1.0000
  H   H4084     1.0  0.75807  0.12182  0.75860  1.0000
  H   H4085     1.0  0.74902  0.12162  0.78320  1.0000
  H   H4086     1.0  0.78812  0.12520  0.78608  1.0000
  H   H4087     1.0  0.79694  0.12615  0.76136  1.0000
  C   C3412     1.0  0.56252  0.08754  0.86429  1.0000
  C   C3413     1.0  0.81163  0.17047  0.75931  1.0000
  N   N225      1.0  0.74800  0.16361  0.74974  1.0000
  H   H4088     1.0  0.64837  0.02020  0.82659  1.0000
  H   H4089     1.0  0.89430  0.13301  0.73566  1.0000
  S   S942      1.0  0.63831  0.13732  0.96553  1.0000
  C   C3414     1.0  0.66670  0.17986  0.79293  1.0000
  C   C3415     1.0  0.67469  0.16752  0.79839  1.0000
  C   C3416     1.0  0.68896  0.16579  0.79582  1.0000
  C   C3417     1.0  0.69526  0.17635  0.78764  1.0000
  C   C3418     1.0  0.68729  0.18855  0.78186  1.0000
  C   C3419     1.0  0.67298  0.19038  0.78466  1.0000
  H   H4090     1.0  0.66982  0.15949  0.80502  1.0000
  H   H4091     1.0  0.69504  0.15637  0.80039  1.0000
  H   H4092     1.0  0.69210  0.19679  0.77566  1.0000
  H   H4093     1.0  0.66680  0.19996  0.78049  1.0000
  C   C3420     1.0  0.68941  0.08328  0.84393  1.0000
  C   C3421     1.0  0.70101  0.08783  0.83538  1.0000
  C   C3422     1.0  0.70191  0.10137  0.83345  1.0000
  C   C3423     1.0  0.69123  0.11033  0.84017  1.0000
  C   C3424     1.0  0.67995  0.10561  0.84919  1.0000
  C   C3425     1.0  0.67904  0.09212  0.85108  1.0000
  H   H4094     1.0  0.70914  0.08096  0.82997  1.0000
  H   H4095     1.0  0.71069  0.10495  0.82656  1.0000
  H   H4096     1.0  0.67196  0.11239  0.85479  1.0000
  H   H4097     1.0  0.67034  0.08854  0.85811  1.0000
  C   C3426     1.0  0.50812  0.13524  0.86886  1.0000
  H   H4098     1.0  0.66622  0.16205  0.97689  1.0000
  C   C3427     1.0  0.53764  0.12417  0.82134  1.0000
  C   C3428     1.0  0.52508  0.12231  0.82082  1.0000
  C   C3429     1.0  0.50715  0.12057  0.85493  1.0000
  C   C3430     1.0  0.51482  0.12625  0.86017  1.0000
  H   H4099     1.0  0.51245  0.11348  0.84839  1.0000
  H   H4100     1.0  0.52592  0.12367  0.85746  1.0000
  C   C3431     1.0  0.58985  0.10945  0.83083  1.0000
  C   C3432     1.0  0.59739  0.10614  0.84090  1.0000
  C   C3433     1.0  0.61037  0.09712  0.83936  1.0000
  C   C3434     1.0  0.61579  0.09168  0.82765  1.0000
  C   C3435     1.0  0.60825  0.09515  0.81763  1.0000
  C   C3436     1.0  0.59528  0.10386  0.81928  1.0000
  H   H4101     1.0  0.59320  0.11049  0.84981  1.0000
  H   H4102     1.0  0.61623  0.09452  0.84709  1.0000
  H   H4103     1.0  0.61241  0.09100  0.80857  1.0000
  H   H4104     1.0  0.58950  0.10643  0.81147  1.0000
  C   C3437     1.0  0.57737  0.18660  0.84686  1.0000
  C   C3438     1.0  0.58059  0.19905  0.83947  1.0000
  C   C3439     1.0  0.59166  0.20302  0.84120  1.0000
  C   C3440     1.0  0.59951  0.19461  0.85042  1.0000
  C   C3441     1.0  0.59604  0.18235  0.85816  1.0000
  C   C3442     1.0  0.58508  0.17825  0.85625  1.0000
  H   H4105     1.0  0.57460  0.20557  0.83226  1.0000
  H   H4106     1.0  0.59412  0.21261  0.83538  1.0000
  H   H4107     1.0  0.60197  0.17589  0.86542  1.0000
  H   H4108     1.0  0.58258  0.16868  0.86201  1.0000
  C   C3443     1.0  0.65120  0.09809  0.90485  1.0000
  C   C3444     1.0  0.65794  0.08886  0.89635  1.0000
  C   C3445     1.0  0.65046  0.08269  0.89151  1.0000
  C   C3446     1.0  0.63615  0.08540  0.89547  1.0000
  C   C3447     1.0  0.62935  0.09469  0.90392  1.0000
  C   C3448     1.0  0.63685  0.10114  0.90849  1.0000
  H   H4109     1.0  0.66901  0.08624  0.89367  1.0000
  H   H4110     1.0  0.65581  0.07552  0.88505  1.0000
  H   H4111     1.0  0.61827  0.09683  0.90702  1.0000
  H   H4112     1.0  0.63155  0.10817  0.91512  1.0000
  C   C3449     1.0  0.60318  0.15140  0.90369  1.0000
  C   C3450     1.0  0.59402  0.15769  0.89506  1.0000
  C   C3451     1.0  0.58703  0.14999  0.89144  1.0000
  C   C3452     1.0  0.58911  0.13595  0.89650  1.0000
  C   C3453     1.0  0.59822  0.12967  0.90518  1.0000
  C   C3454     1.0  0.60529  0.13734  0.90871  1.0000
  H   H4113     1.0  0.59223  0.16858  0.89122  1.0000
  H   H4114     1.0  0.57989  0.15495  0.88489  1.0000
  H   H4115     1.0  0.59984  0.11881  0.90918  1.0000
  H   H4116     1.0  0.61228  0.13237  0.91541  1.0000
  C   C3455     1.0  0.68423  0.17144  0.90334  1.0000
  C   C3456     1.0  0.68018  0.17487  0.91609  1.0000
  C   C3457     1.0  0.68593  0.18438  0.91854  1.0000
  C   C3458     1.0  0.69563  0.19054  0.90824  1.0000
  C   C3459     1.0  0.70002  0.18665  0.89573  1.0000
  C   C3460     1.0  0.69440  0.17710  0.89332  1.0000
  H   H4117     1.0  0.67239  0.17048  0.92391  1.0000
  H   H4118     1.0  0.68260  0.18724  0.92830  1.0000
  H   H4119     1.0  0.70790  0.19087  0.88794  1.0000
  H   H4120     1.0  0.69788  0.17419  0.88359  1.0000
  H   H4121     1.0  0.62182  0.15631  0.86347  1.0000
  C   C3461     1.0  0.62384  0.00627  0.85270  1.0000
  C   C3462     1.0  0.63103  0.01440  0.85545  1.0000
  C   C3463     1.0  0.64383  0.00862  0.85876  1.0000
  H   H4122     1.0  0.64059  0.12717  0.88129  1.0000
  H   H4123     1.0  0.61383  0.01079  0.85040  1.0000
  C   C3464     1.0  0.58573  0.07750  0.85427  1.0000
  H   H4124     1.0  0.65833  0.15402  0.96082  1.0000
  H   H4125     1.0  0.50851  0.16611  0.83784  1.0000
  C   C3465     1.0  0.65517  0.20021  0.89599  1.0000
  H   H4126     1.0  0.75694  0.14468  0.74285  1.0000
  H   H4127     1.0  0.71343  0.20549  0.81405  1.0000
  H   H4128     1.0  0.69813  0.22787  0.93853  1.0000
  H   H4129     1.0  0.83584  0.18038  0.77520  1.0000
  H   H4130     1.0  0.77482  0.15421  0.73744  1.0000
  H   H4131     1.0  0.63295  0.17320  0.84628  1.0000
  C   C3466     1.0  0.57516  0.09268  0.89739  1.0000
  C   C3467     1.0  0.71775  0.23199  0.91549  1.0000
  H   H4132     1.0  0.52819  0.15651  0.82557  1.0000
  Fe  Fe471     1.0  0.86646  0.19463  0.74628  1.0000
  C   C3468     1.0  0.52690  0.14713  0.82426  1.0000
  S   S943      1.0  0.66958  0.22650  0.81605  1.0000
  H   H4133     1.0  0.67030  0.01060  0.83383  1.0000
  C   C3469     1.0  0.81570  0.18305  0.75328  1.0000
  H   H4134     1.0  0.76393  0.15149  0.76035  1.0000
  H   H4135     1.0  0.89021  0.19646  0.78923  1.0000
  H   H4136     1.0  0.68244  0.18787  0.81069  1.0000
  H   H4137     1.0  0.68672  0.20944  0.85667  1.0000
  H   H4138     1.0  0.68399  0.98808  0.82983  1.0000
  H   H4139     1.0  0.60835  0.14130  0.86893  1.0000
  C   C3470     1.0  0.69854  0.19681  0.81083  1.0000
  N   N226      1.0  0.67155  0.09260  0.80773  1.0000
  C   C3471     1.0  0.66438  0.08735  0.80054  1.0000
  C   C3472     1.0  0.68564  0.08398  0.80695  1.0000
  C   C3473     1.0  0.66415  0.09081  0.82216  1.0000
  C   C3474     1.0  0.67219  0.10706  0.80218  1.0000
  C   C3475     1.0  0.66622  0.11525  0.79114  1.0000
  C   C3476     1.0  0.67896  0.11340  0.80787  1.0000
  C   C3477     1.0  0.66731  0.12881  0.78602  1.0000
  C   C3478     1.0  0.67999  0.12695  0.80268  1.0000
  C   C3479     1.0  0.67426  0.13461  0.79170  1.0000
  H   H4140     1.0  0.66398  0.07649  0.80513  1.0000
  H   H4141     1.0  0.65346  0.09292  0.80131  1.0000
  H   H4142     1.0  0.66963  0.08791  0.78965  1.0000
  H   H4143     1.0  0.69183  0.08541  0.79633  1.0000
  H   H4144     1.0  0.68554  0.07298  0.81076  1.0000
  H   H4145     1.0  0.69125  0.08622  0.81336  1.0000
  H   H4146     1.0  0.66386  0.07996  0.82669  1.0000
  H   H4147     1.0  0.66911  0.09391  0.82852  1.0000
  H   H4148     1.0  0.65336  0.09671  0.82331  1.0000
  H   H4149     1.0  0.66073  0.11141  0.78623  1.0000
  H   H4150     1.0  0.68362  0.10788  0.81636  1.0000
  H   H4151     1.0  0.66278  0.13487  0.77753  1.0000
  H   H4152     1.0  0.68536  0.13147  0.80718  1.0000
  H   H4153     1.0  0.67519  0.14507  0.78757  1.0000
  N   N227      1.0  0.60910  0.16901  0.81537  1.0000
  C   C3480     1.0  0.59392  0.17099  0.81926  1.0000
  C   C3481     1.0  0.61321  0.17477  0.82464  1.0000
  C   C3482     1.0  0.61277  0.17689  0.80131  1.0000
  C   C3483     1.0  0.61638  0.15460  0.81600  1.0000
  C   C3484     1.0  0.63090  0.15084  0.81402  1.0000
  C   C3485     1.0  0.60948  0.14403  0.81801  1.0000
  C   C3486     1.0  0.63802  0.13734  0.81435  1.0000
  C   C3487     1.0  0.61676  0.13064  0.81797  1.0000
  C   C3488     1.0  0.63095  0.12726  0.81627  1.0000
  H   H4154     1.0  0.58981  0.16793  0.81213  1.0000
  H   H4155     1.0  0.61143  0.16862  0.83521  1.0000
  H   H4156     1.0  0.60724  0.18531  0.82499  1.0000
  H   H4157     1.0  0.62413  0.17556  0.82138  1.0000
  H   H4158     1.0  0.60977  0.17296  0.79400  1.0000
  H   H4159     1.0  0.60764  0.18786  0.80043  1.0000
  H   H4160     1.0  0.62397  0.17642  0.79786  1.0000
  H   H4161     1.0  0.63690  0.15837  0.81201  1.0000
  H   H4162     1.0  0.59847  0.14580  0.81951  1.0000
  H   H4163     1.0  0.64908  0.13474  0.81295  1.0000
  H   H4164     1.0  0.61132  0.12285  0.81914  1.0000
  H   H4165     1.0  0.63641  0.11682  0.81629  1.0000
  H   H4166     1.0  0.65235  0.12446  0.84554  1.0000
  H   H4167     1.0  0.60888  0.12366  0.87375  1.0000
  Fe  Fe472     1.0  0.64340  0.14019  0.94229  1.0000
  H   H4168     1.0  0.65368  0.16609  0.82900  1.0000
  H   H4169     1.0  0.57945  0.09425  0.90531  1.0000
  H   H4170     1.0  0.60272  0.06862  0.88693  1.0000
  H   H4171     1.0  0.59716  0.07446  0.90231  1.0000
  C   C3489     1.0  0.58093  0.08453  0.87594  1.0000
  H   H4172     1.0  0.82866  0.15856  0.78500  1.0000
  N   N228      1.0  0.68168  0.19193  0.85402  1.0000
  H   H4173     1.0  0.58663  0.06593  0.89804  1.0000
  S   S944      1.0  0.88340  0.20537  0.74277  1.0000
  H   H4174     1.0  0.88839  0.21203  0.82658  1.0000
  N   N229      1.0  0.58612  0.08654  0.88685  1.0000
  H   H4175     1.0  0.75462  0.16685  0.76602  1.0000
  H   H4176     1.0  0.81341  0.15203  0.77475  1.0000
  C   C3490     1.0  0.85339  0.16511  0.74707  1.0000
  H   H4177     1.0  0.54670  0.11595  0.82061  1.0000
  H   H4178     1.0  0.61094  0.20316  0.90847  1.0000
  H   H4179     1.0  0.54835  0.13790  0.82346  1.0000
  C   C3491     1.0  0.84782  0.15508  0.74530  1.0000
  H   H4180     1.0  0.73358  0.18008  0.75830  1.0000
  C   C3492     1.0  0.64943  0.99470  0.85903  1.0000
  H   H4181     1.0  0.89648  0.20654  0.80438  1.0000
  C   C3493     1.0  0.87990  0.22472  0.80326  1.0000
  H   H4182     1.0  0.72893  0.17597  0.74472  1.0000
  Fe  Fe473     1.0  0.65024  0.22083  0.81633  1.0000
  N   N230      1.0  0.81205  0.19186  0.74055  1.0000
  C   C3494     1.0  0.65632  0.21350  0.88978  1.0000
  C   C3495     1.0  0.64969  0.00320  0.81812  1.0000
  H   H4183     1.0  0.87708  0.14295  0.73882  1.0000
  H   H4184     1.0  0.50531  0.16500  0.80390  1.0000
  C   C3496     1.0  0.80062  0.18858  0.73708  1.0000
  H   H4185     1.0  0.87117  0.22188  0.83024  1.0000
  H   H4186     1.0  0.72707  0.16533  0.76133  1.0000
  C   C3497     1.0  0.68238  0.23265  0.83219  1.0000
  C   C3498     1.0  0.75726  0.17144  0.73902  1.0000
  H   H4187     1.0  0.88502  0.22700  0.83313  1.0000
  H   H4188     1.0  0.87001  0.20804  0.77920  1.0000
  H   H4189     1.0  0.74690  0.15248  0.77053  1.0000
  H   H4190     1.0  0.71047  0.22642  0.91460  1.0000
  H   H4191     1.0  0.52434  0.11257  0.81977  1.0000
  S   S945      1.0  0.86619  0.17473  0.76128  1.0000
  C   C3499     1.0  0.59019  0.07869  0.86519  1.0000
  H   H4192     1.0  0.58873  0.18185  0.81917  1.0000
  H   H4193     1.0  0.60513  0.09124  0.87379  1.0000
  H   H4194     1.0  0.85582  0.22979  0.78465  1.0000
  C   C3500     1.0  0.81616  0.16183  0.77071  1.0000
  C   C3501     1.0  0.59342  0.07330  0.89382  1.0000
  C   C3502     1.0  0.63362  0.20405  0.88883  1.0000
  H   H4195     1.0  0.60104  0.07540  0.86491  1.0000
  S   S946      1.0  0.84981  0.21328  0.74828  1.0000
  C   C3503     1.0  0.63577  0.13861  0.85623  1.0000
  C   C3504     1.0  0.82452  0.18636  0.75942  1.0000
  N   N231      1.0  0.62890  0.12851  0.86678  1.0000
  H   H4196     1.0  0.62054  0.18594  0.90897  1.0000
  H   H4197     1.0  0.63464  0.11275  0.85534  1.0000
  H   H4198     1.0  0.89079  0.15059  0.73669  1.0000
  C   C3505     1.0  0.73383  0.17168  0.75359  1.0000
  C   C3506     1.0  0.62975  0.12937  0.88038  1.0000
  C   C3507     1.0  0.64630  0.22217  0.88310  1.0000
  C   C3508     1.0  0.63707  0.16248  0.84625  1.0000
  H   H4199     1.0  0.66090  0.19287  0.85296  1.0000
  H   H4200     1.0  0.56958  0.10296  0.89296  1.0000
  H   H4201     1.0  0.61165  0.98762  0.88631  1.0000
  N   N232      1.0  0.77201  0.14482  0.83190  1.0000
  C   C3509     1.0  0.76277  0.13564  0.83374  1.0000
  C   C3510     1.0  0.77352  0.14458  0.84561  1.0000
  C   C3511     1.0  0.76510  0.15874  0.82600  1.0000
  C   C3512     1.0  0.78566  0.14102  0.82295  1.0000
  C   C3513     1.0  0.79579  0.14858  0.82057  1.0000
  C   C3514     1.0  0.78920  0.13014  0.81609  1.0000
  C   C3515     1.0  0.80868  0.14537  0.81198  1.0000
  C   C3516     1.0  0.80209  0.12706  0.80748  1.0000
  C   C3517     1.0  0.81182  0.13463  0.80543  1.0000
  H   H4202     1.0  0.76729  0.12492  0.83812  1.0000
  H   H4203     1.0  0.75269  0.13860  0.84072  1.0000
  H   H4204     1.0  0.76039  0.13599  0.82396  1.0000
  H   H4205     1.0  0.77914  0.13439  0.85019  1.0000
  H   H4206     1.0  0.76333  0.14698  0.85266  1.0000
  H   H4207     1.0  0.77912  0.15222  0.84546  1.0000
  H   H4208     1.0  0.76429  0.15948  0.81545  1.0000
  H   H4209     1.0  0.75453  0.16167  0.83207  1.0000
  H   H4210     1.0  0.77057  0.16656  0.82564  1.0000
  H   H4211     1.0  0.79378  0.15711  0.82526  1.0000
  H   H4212     1.0  0.78218  0.12388  0.81709  1.0000
  H   H4213     1.0  0.81627  0.15124  0.81038  1.0000
  H   H4214     1.0  0.80452  0.11874  0.80232  1.0000
  H   H4215     1.0  0.82179  0.13216  0.79873  1.0000
  H   H4216     1.0  0.82880  0.19527  0.75500  1.0000
  C   C3518     1.0  0.63502  0.11422  0.86531  1.0000
  Fe  Fe474     1.0  0.72150  0.22542  0.86229  1.0000
  H   H4217     1.0  0.56765  0.08615  0.90269  1.0000
  C   C3519     1.0  0.82470  0.16549  0.77653  1.0000
  C   C3520     1.0  0.84881  0.14238  0.75433  1.0000
  C   C3521     1.0  0.85974  0.16245  0.75797  1.0000
  S   S947      1.0  0.84249  0.12929  0.75252  1.0000
  Fe  Fe475     1.0  0.86683  0.22447  0.74274  1.0000
  H   H4218     1.0  0.59955  0.09795  0.88875  1.0000
  S   S948      1.0  0.80975  0.14683  0.73770  1.0000
  H   H4219     1.0  0.62775  0.22492  0.87721  1.0000
  H   H4220     1.0  0.62463  0.13954  0.88273  1.0000
  C   C3522     1.0  0.63512  0.21759  0.88254  1.0000
  C   C3523     1.0  0.64873  0.15850  0.83654  1.0000
  H   H4221     1.0  0.72658  0.22410  0.91864  1.0000
  H   H4222     1.0  0.66211  0.19767  0.86746  1.0000
  C   C3524     1.0  0.63070  0.15272  0.85600  1.0000
  C   C3525     1.0  0.64768  0.13490  0.84617  1.0000
  C   C3526     1.0  0.65409  0.14474  0.83658  1.0000
  S   S949      1.0  0.78386  0.12536  0.74062  1.0000
  H   H4223     1.0  0.83304  0.19307  0.73090  1.0000
  H   H4224     1.0  0.67888  0.17177  0.85601  1.0000
  C   C3527     1.0  0.51332  0.13279  0.82217  1.0000
  H   H4225     1.0  0.69891  0.19360  0.86060  1.0000
  H   H4226     1.0  0.55900  0.09313  0.88304  1.0000
  C   C3528     1.0  0.68766  0.19368  0.83924  1.0000
  H   H4227     1.0  0.63984  0.00770  0.81549  1.0000
  C   C3529     1.0  0.70464  0.20094  0.81878  1.0000
  H   H4228     1.0  0.67338  0.18440  0.83506  1.0000
  H   H4229     1.0  0.49931  0.15319  0.84696  1.0000
  C   C3530     1.0  0.80774  0.20639  0.74151  1.0000
  H   H4230     1.0  0.66479  0.20896  0.85111  1.0000
  H   H4231     1.0  0.65965  0.99419  0.78889  1.0000
  C   C3531     1.0  0.59583  0.09570  0.88081  1.0000
  H   H4232     1.0  0.56859  0.08154  0.84507  1.0000
  C   C3532     1.0  0.68723  0.19099  0.81688  1.0000
  H   H4233     1.0  0.70445  0.20302  0.83829  1.0000
  C   C3533     1.0  0.69932  0.19944  0.83279  1.0000
  H   H4234     1.0  0.63957  0.00704  0.89233  1.0000
  C   C3534     1.0  0.49992  0.16172  0.83798  1.0000
  H   H4235     1.0  0.89203  0.23285  0.75194  1.0000
  H   H4236     1.0  0.59310  0.07343  0.84595  1.0000
  C   C3535     1.0  0.65728  0.99026  0.81557  1.0000
  H   H4237     1.0  0.50386  0.13043  0.82218  1.0000
  S   S950      1.0  0.62863  0.23084  0.82482  1.0000
  H   H4238     1.0  0.69498  0.17232  0.85865  1.0000
  C   C3536     1.0  0.64500  0.14268  0.97655  1.0000
  N   N233      1.0  0.69267  0.12604  0.87974  1.0000
  C   C3537     1.0  0.70030  0.13704  0.87299  1.0000
  C   C3538     1.0  0.67856  0.13129  0.87732  1.0000
  C   C3539     1.0  0.69192  0.12331  0.89454  1.0000
  C   C3540     1.0  0.69900  0.11329  0.87475  1.0000
  C   C3541     1.0  0.69258  0.10207  0.87983  1.0000
  C   C3542     1.0  0.71151  0.11158  0.86484  1.0000
  C   C3543     1.0  0.69810  0.09005  0.87503  1.0000
  C   C3544     1.0  0.71694  0.09952  0.86006  1.0000
  C   C3545     1.0  0.71021  0.08881  0.86510  1.0000
  H   H4239     1.0  0.70096  0.13985  0.86181  1.0000
  H   H4240     1.0  0.69523  0.14646  0.87698  1.0000
  H   H4241     1.0  0.71086  0.13409  0.87483  1.0000
  H   H4242     1.0  0.67863  0.13246  0.86642  1.0000
  H   H4243     1.0  0.67380  0.14134  0.88013  1.0000
  H   H4244     1.0  0.67157  0.12445  0.88351  1.0000
  H   H4245     1.0  0.70228  0.11906  0.89681  1.0000
  H   H4246     1.0  0.68735  0.13270  0.89866  1.0000
  H   H4247     1.0  0.68543  0.11594  0.90050  1.0000
  H   H4248     1.0  0.68316  0.10256  0.88751  1.0000
  H   H4249     1.0  0.71719  0.11947  0.86050  1.0000
  H   H4250     1.0  0.69284  0.08172  0.87886  1.0000
  H   H4251     1.0  0.72629  0.09857  0.85222  1.0000
  H   H4252     1.0  0.71428  0.07959  0.86118  1.0000
  H   H4253     1.0  0.61786  0.18313  0.88180  1.0000
  C   C3546     1.0  0.63664  0.99771  0.89293  1.0000
  H   H4254     1.0  0.55180  0.09120  0.86379  1.0000
  C   C3547     1.0  0.65455  0.15094  0.97166  1.0000
  C   C3548     1.0  0.68382  0.17722  0.86030  1.0000
  H   H4255     1.0  0.68283  0.19730  0.87208  1.0000
  C   C3549     1.0  0.68784  0.19836  0.86109  1.0000
  C   C3550     1.0  0.66674  0.19809  0.85647  1.0000
  H   H4256     1.0  0.67948  0.17544  0.87145  1.0000
  H   H4257     1.0  0.60320  0.20478  0.88120  1.0000
  C   C3551     1.0  0.56685  0.08866  0.87532  1.0000
  H   H4258     1.0  0.64720  0.23258  0.87848  1.0000
  C   C3552     1.0  0.57195  0.08207  0.85375  1.0000
  H   H4259     1.0  0.63301  0.17820  0.88817  1.0000
  C   C3553     1.0  0.68198  0.18923  0.83088  1.0000
  H   H4260     1.0  0.64365  0.18506  0.90058  1.0000
  H   H4261     1.0  0.60492  0.19121  0.90339  1.0000
  H   H4262     1.0  0.60702  0.21806  0.88617  1.0000
  H   H4263     1.0  0.61668  0.21264  0.87055  1.0000
  C   C3554     1.0  0.61177  0.20911  0.88138  1.0000
  C   C3555     1.0  0.61424  0.19467  0.90301  1.0000
  C   C3556     1.0  0.62662  0.18696  0.88237  1.0000
  H   H4264     1.0  0.63266  0.18959  0.87180  1.0000
  N   N234      1.0  0.62175  0.19890  0.88882  1.0000
  H   H4265     1.0  0.79129  0.18916  0.74545  1.0000
  C   C3557     1.0  0.87260  0.21247  0.78609  1.0000
  H   H4266     1.0  0.90582  0.22133  0.80849  1.0000
  C   C3558     1.0  0.86812  0.23085  0.79764  1.0000
  H   H4267     1.0  0.61728  0.16781  0.96864  1.0000
  C   C3559     1.0  0.77086  0.16487  0.73365  1.0000
  H   H4268     1.0  0.69182  0.22905  0.82534  1.0000
  C   C3560     1.0  0.62943  0.99235  0.85300  1.0000
  C   C3561     1.0  0.53855  0.13657  0.82299  1.0000
  C   C3562     1.0  0.70614  0.23297  0.93869  1.0000
  C   C3563     1.0  0.75362  0.15839  0.76217  1.0000
  S   S951      1.0  0.64689  0.22181  0.79591  1.0000
  C   C3564     1.0  0.74693  0.15194  0.74500  1.0000
  H   H4269     1.0  0.73992  0.14589  0.75276  1.0000
  H   H4270     1.0  0.61807  0.00810  0.88618  1.0000
  C   C3565     1.0  0.75319  0.18559  0.73357  1.0000
  H   H4271     1.0  0.79918  0.20797  0.75046  1.0000
  C   C3566     1.0  0.88758  0.21196  0.80025  1.0000
  S   S952      1.0  0.82521  0.11616  0.73168  1.0000
  C   C3567     1.0  0.67450  0.99234  0.82635  1.0000
  C   C3568     1.0  0.86458  0.22474  0.78923  1.0000
  H   H4272     1.0  0.73527  0.22991  0.93370  1.0000
  H   H4273     1.0  0.85250  0.17495  0.74024  1.0000
  C   C3569     1.0  0.51386  0.14553  0.82405  1.0000
  C   C3570     1.0  0.65449  0.01048  0.82444  1.0000
  C   C3571     1.0  0.88402  0.20603  0.79168  1.0000
  C   C3572     1.0  0.89880  0.23150  0.80703  1.0000
  C   C3573     1.0  0.62450  0.99828  0.88949  1.0000
  H   H4274     1.0  0.51267  0.17231  0.81295  1.0000
  C   C3574     1.0  0.66985  0.98497  0.81997  1.0000
  H   H4275     1.0  0.49456  0.17699  0.81404  1.0000
  H   H4276     1.0  0.80440  0.21307  0.73220  1.0000
  N   N235      1.0  0.88409  0.23093  0.81210  1.0000
  H   H4277     1.0  0.64196  0.00076  0.79609  1.0000
  C   C3575     1.0  0.88211  0.22257  0.82611  1.0000
  N   N236      1.0  0.50167  0.15692  0.82542  1.0000
  H   H4278     1.0  0.71444  0.22468  0.94238  1.0000
  H   H4279     1.0  0.65934  0.99015  0.86155  1.0000
  H   H4280     1.0  0.80354  0.17832  0.73472  1.0000
  H   H4281     1.0  0.63376  0.17616  0.97540  1.0000
  C   C3576     1.0  0.66977  0.23266  0.82990  1.0000
  H   H4282     1.0  0.74314  0.19153  0.73714  1.0000
  Fe  Fe476     1.0  0.62496  0.23056  0.80479  1.0000
  C   C3577     1.0  0.64996  0.99126  0.79525  1.0000
  H   H4283     1.0  0.63067  0.98936  0.81861  1.0000
  C   C3578     1.0  0.88768  0.14324  0.73287  1.0000
  C   C3579     1.0  0.61529  0.16924  0.97893  1.0000
  C   C3580     1.0  0.64239  0.98665  0.85595  1.0000
  C   C3581     1.0  0.62094  0.98634  0.88962  1.0000
  Fe  Fe477     1.0  0.80463  0.13052  0.73130  1.0000
  H   H4284     1.0  0.64656  0.98573  0.78957  1.0000
  C   C3582     1.0  0.64531  0.98520  0.89653  1.0000
  Fe  Fe478     1.0  0.80491  0.26546  0.12672  1.0000
  S   S953      1.0  0.78509  0.26044  0.13941  1.0000
  S   S954      1.0  0.82579  0.25562  0.13118  1.0000
  Fe  Fe479     1.0  0.79112  0.28689  0.10592  1.0000
  S   S955      1.0  0.76987  0.28378  0.11664  1.0000
  S   S956      1.0  0.79682  0.30177  0.08639  1.0000
  Fe  Fe480     1.0  0.77669  0.28293  0.13543  1.0000
  S   S957      1.0  0.76379  0.29157  0.15348  1.0000
  Fe  Fe481     1.0  0.77984  0.26143  0.11976  1.0000
  S   S958      1.0  0.77183  0.24315  0.12057  1.0000
  S   S959      1.0  0.79702  0.28791  0.12447  1.0000
  S   S960      1.0  0.80057  0.26462  0.10730  1.0000
  H   H4285     1.0  0.82042  0.30418  0.10804  1.0000
  C   C3583     1.0  0.71514  0.24723  0.12914  1.0000
  Fe  Fe482     1.0  0.85486  0.27869  0.17877  1.0000
  S   S961      1.0  0.85589  0.28092  0.19906  1.0000
  S   S962      1.0  0.83434  0.27515  0.17936  1.0000
  Fe  Fe483     1.0  0.88202  0.28742  0.16482  1.0000
  S   S963      1.0  0.88490  0.29030  0.18411  1.0000
  S   S964      1.0  0.89552  0.29508  0.14472  1.0000
  Fe  Fe484     1.0  0.87802  0.27062  0.19356  1.0000
  H   H4286     1.0  0.82756  0.31688  0.11013  1.0000
  Fe  Fe485     1.0  0.86257  0.30014  0.18753  1.0000
  S   S965      1.0  0.85357  0.32033  0.19327  1.0000
  S   S966      1.0  0.87669  0.26685  0.17389  1.0000
  S   S967      1.0  0.86004  0.29873  0.16763  1.0000
  H   H4287     1.0  0.87311  0.47353  0.16940  1.0000
  H   H4288     1.0  0.88070  0.46281  0.13670  1.0000
  N   N237      1.0  0.88958  0.33675  0.16964  1.0000
  Fe  Fe486     1.0  0.77001  0.35820  0.16366  1.0000
  S   S968      1.0  0.79153  0.34934  0.16609  1.0000
  S   S969      1.0  0.76175  0.35357  0.14825  1.0000
  Fe  Fe487     1.0  0.76420  0.37648  0.18333  1.0000
  S   S970      1.0  0.78545  0.36949  0.18739  1.0000
  S   S971      1.0  0.74820  0.39354  0.19130  1.0000
  Fe  Fe488     1.0  0.79282  0.37063  0.16492  1.0000
  S   S972      1.0  0.81174  0.37718  0.15060  1.0000
  Fe  Fe489     1.0  0.78251  0.34893  0.18817  1.0000
  S   S973      1.0  0.78923  0.33060  0.20348  1.0000
  S   S974      1.0  0.77181  0.37963  0.16069  1.0000
  S   S975      1.0  0.76072  0.35573  0.18600  1.0000
  Fe  Fe490     1.0  0.94510  0.33836  0.13803  1.0000
  S   S976      1.0  0.95798  0.34294  0.11700  1.0000
  S   S977      1.0  0.94381  0.31736  0.15040  1.0000
  Fe  Fe491     1.0  0.93473  0.36796  0.13944  1.0000
  S   S978      1.0  0.94662  0.37525  0.11839  1.0000
  S   S979      1.0  0.91884  0.37985  0.15383  1.0000
  Fe  Fe492     1.0  0.93968  0.35949  0.11272  1.0000
  S   S980      1.0  0.93157  0.36431  0.09364  1.0000
  Fe  Fe493     1.0  0.96402  0.35817  0.12447  1.0000
  C   C3584     1.0  0.71422  0.40251  0.21998  1.0000
  S   S981      1.0  0.92640  0.35372  0.13325  1.0000
  S   S982      1.0  0.95252  0.35211  0.14601  1.0000
  Fe  Fe494     1.0  0.84305  0.38358  0.07341  1.0000
  S   S983      1.0  0.86475  0.37323  0.06528  1.0000
  S   S984      1.0  0.83471  0.40631  0.07099  1.0000
  Fe  Fe495     1.0  0.83356  0.35688  0.08467  1.0000
  S   S985      1.0  0.85437  0.34451  0.07750  1.0000
  S   S986      1.0  0.81673  0.34736  0.09946  1.0000
  Fe  Fe496     1.0  0.86212  0.35816  0.08522  1.0000
  S   S987      1.0  0.87568  0.34785  0.10017  1.0000
  Fe  Fe497     1.0  0.85513  0.36045  0.05801  1.0000
  S   S988      1.0  0.84121  0.36948  0.09379  1.0000
  S   S989      1.0  0.83347  0.37194  0.06474  1.0000
  Fe  Fe498     1.0  0.84662  0.44866  0.11718  1.0000
  S   S990      1.0  0.85911  0.42924  0.12693  1.0000
  S   S991      1.0  0.83802  0.45171  0.09883  1.0000
  H   H4289     1.0  0.86983  0.45165  0.17353  1.0000
  S   S992      1.0  0.85944  0.44616  0.14922  1.0000
  Fe  Fe499     1.0  0.87159  0.44275  0.12868  1.0000
  S   S993      1.0  0.89455  0.43850  0.12318  1.0000
  Fe  Fe500     1.0  0.84574  0.43440  0.14651  1.0000
  S   S994      1.0  0.83644  0.41940  0.16410  1.0000
  S   S995      1.0  0.86032  0.46188  0.11714  1.0000
  S   S996      1.0  0.83228  0.45305  0.13668  1.0000
  H   H4290     1.0  0.84778  0.28317  0.10282  1.0000
  C   C3585     1.0  0.83701  0.41829  0.07873  1.0000
  C   C3586     1.0  0.84488  0.41488  0.08856  1.0000
  C   C3587     1.0  0.84529  0.42491  0.09506  1.0000
  C   C3588     1.0  0.83808  0.43840  0.09145  1.0000
  C   C3589     1.0  0.83053  0.44170  0.08143  1.0000
  C   C3590     1.0  0.82996  0.43175  0.07519  1.0000
  H   H4291     1.0  0.85048  0.40454  0.09117  1.0000
  H   H4292     1.0  0.85121  0.42226  0.10274  1.0000
  H   H4293     1.0  0.82500  0.45206  0.07850  1.0000
  H   H4294     1.0  0.82392  0.43452  0.06757  1.0000
  H   H4295     1.0  0.88718  0.33023  0.15285  1.0000
  C   C3591     1.0  0.68846  0.38168  0.20669  1.0000
  C   C3592     1.0  0.89498  0.42327  0.17256  1.0000
  H   H4296     1.0  0.90914  0.46721  0.14853  1.0000
  H   H4297     1.0  0.98021  0.36932  0.14224  1.0000
  C   C3593     1.0  0.91259  0.39666  0.14609  1.0000
  C   C3594     1.0  0.92093  0.40361  0.13504  1.0000
  C   C3595     1.0  0.91545  0.41672  0.12831  1.0000
  C   C3596     1.0  0.90158  0.42272  0.13246  1.0000
  C   C3597     1.0  0.89329  0.41583  0.14360  1.0000
  C   C3598     1.0  0.89887  0.40291  0.15057  1.0000
  H   H4298     1.0  0.93159  0.39889  0.13167  1.0000
  H   H4299     1.0  0.92188  0.42205  0.11969  1.0000
  H   H4300     1.0  0.88259  0.42047  0.14691  1.0000
  H   H4301     1.0  0.89248  0.39766  0.15929  1.0000
  C   C3599     1.0  0.91628  0.35932  0.09528  1.0000
  C   C3600     1.0  0.91146  0.34983  0.10661  1.0000
  C   C3601     1.0  0.89910  0.34622  0.10784  1.0000
  C   C3602     1.0  0.89132  0.35236  0.09795  1.0000
  C   C3603     1.0  0.89613  0.36183  0.08659  1.0000
  C   C3604     1.0  0.90876  0.36504  0.08510  1.0000
  H   H4302     1.0  0.91736  0.34505  0.11429  1.0000
  H   H4303     1.0  0.89549  0.33877  0.11658  1.0000
  H   H4304     1.0  0.89014  0.36670  0.07896  1.0000
  H   H4305     1.0  0.91256  0.37222  0.07619  1.0000
  H   H4306     1.0  0.84568  0.27449  0.12031  1.0000
  C   C3605     1.0  0.81860  0.38875  0.15464  1.0000
  C   C3606     1.0  0.81346  0.39286  0.16703  1.0000
  C   C3607     1.0  0.81905  0.40223  0.16988  1.0000
  C   C3608     1.0  0.82949  0.40784  0.16019  1.0000
  C   C3609     1.0  0.83455  0.40378  0.14776  1.0000
  C   C3610     1.0  0.82932  0.39405  0.14512  1.0000
  H   H4307     1.0  0.80525  0.38879  0.17446  1.0000
  H   H4308     1.0  0.81517  0.40527  0.17955  1.0000
  H   H4309     1.0  0.84275  0.40786  0.14034  1.0000
  H   H4310     1.0  0.83366  0.39063  0.13570  1.0000
  C   C3611     1.0  0.73391  0.39153  0.20489  1.0000
  C   C3612     1.0  0.79168  0.27313  0.07570  1.0000
  H   H4311     1.0  0.82867  0.36609  0.01352  1.0000
  H   H4312     1.0  0.81911  0.29366  0.13135  1.0000
  H   H4313     1.0  0.74433  0.23921  0.16409  1.0000
  C   C3613     1.0  0.83170  0.24314  0.22384  1.0000
  C   C3614     1.0  0.85122  0.29929  0.11688  1.0000
  C   C3615     1.0  0.90915  0.30103  0.14616  1.0000
  C   C3616     1.0  0.91379  0.31174  0.13616  1.0000
  C   C3617     1.0  0.92444  0.31681  0.13736  1.0000
  C   C3618     1.0  0.93067  0.31102  0.14845  1.0000
  C   C3619     1.0  0.92616  0.30019  0.15833  1.0000
  C   C3620     1.0  0.91537  0.29528  0.15725  1.0000
  H   H4314     1.0  0.90905  0.31620  0.12754  1.0000
  H   H4315     1.0  0.92798  0.32505  0.12962  1.0000
  H   H4316     1.0  0.93097  0.29564  0.16690  1.0000
  H   H4317     1.0  0.91204  0.28685  0.16487  1.0000
  C   C3621     1.0  0.83572  0.32356  0.19550  1.0000
  C   C3622     1.0  0.82743  0.33542  0.19956  1.0000
  C   C3623     1.0  0.81310  0.33772  0.20183  1.0000
  C   C3624     1.0  0.80710  0.32810  0.20012  1.0000
  C   C3625     1.0  0.81542  0.31655  0.19551  1.0000
  C   C3626     1.0  0.82970  0.31424  0.19327  1.0000
  H   H4318     1.0  0.79575  0.32891  0.00379  1.0000
  H   H4319     1.0  0.79531  0.34612  0.00403  1.0000
  H   H4320     1.0  0.81085  0.30940  0.19360  1.0000
  H   H4321     1.0  0.83598  0.30517  0.18993  1.0000
  H   H4322     1.0  0.83598  0.30751  0.09676  1.0000
  H   H4323     1.0  0.91717  0.33571  0.04685  1.0000
  H   H4324     1.0  0.92791  0.31707  0.10311  1.0000
  C   C3627     1.0  0.87446  0.47408  0.15838  1.0000
  H   H4325     1.0  0.93333  0.33507  0.08292  1.0000
  H   H4326     1.0  0.89359  0.31252  0.06610  1.0000
  H   H4327     1.0  0.83821  0.36408  0.03336  1.0000
  H   H4328     1.0  0.79268  0.32350  0.13946  1.0000
  H   H4329     1.0  0.89684  0.31123  0.08761  1.0000
  C   C3628     1.0  0.88914  0.32355  0.06559  1.0000
  C   C3629     1.0  0.80137  0.31551  0.08927  1.0000
  C   C3630     1.0  0.81148  0.32165  0.07965  1.0000
  C   C3631     1.0  0.81600  0.33183  0.08243  1.0000
  C   C3632     1.0  0.81024  0.33600  0.09477  1.0000
  C   C3633     1.0  0.79978  0.33022  0.10415  1.0000
  C   C3634     1.0  0.79538  0.31998  0.10144  1.0000
  H   H4330     1.0  0.81609  0.31827  0.07020  1.0000
  H   H4331     1.0  0.82407  0.33627  0.07514  1.0000
  H   H4332     1.0  0.79522  0.33349  0.11367  1.0000
  H   H4333     1.0  0.78735  0.31552  0.10878  1.0000
  C   C3635     1.0  0.76417  0.30861  0.15181  1.0000
  C   C3636     1.0  0.76493  0.31759  0.13914  1.0000
  C   C3637     1.0  0.76419  0.33140  0.13811  1.0000
  C   C3638     1.0  0.76325  0.33616  0.14965  1.0000
  C   C3639     1.0  0.76306  0.32707  0.16223  1.0000
  C   C3640     1.0  0.76325  0.31337  0.16335  1.0000
  H   H4334     1.0  0.76565  0.31399  0.13019  1.0000
  H   H4335     1.0  0.76442  0.33838  0.12834  1.0000
  H   H4336     1.0  0.76244  0.33065  0.17116  1.0000
  H   H4337     1.0  0.76275  0.30642  0.17315  1.0000
  C   C3641     1.0  0.82816  0.26044  0.14494  1.0000
  C   C3642     1.0  0.84142  0.25810  0.14707  1.0000
  C   C3643     1.0  0.84351  0.26275  0.15750  1.0000
  C   C3644     1.0  0.83227  0.26940  0.16604  1.0000
  C   C3645     1.0  0.81901  0.27149  0.16408  1.0000
  C   C3646     1.0  0.81697  0.26719  0.15343  1.0000
  H   H4338     1.0  0.85009  0.25282  0.14053  1.0000
  H   H4339     1.0  0.85375  0.26101  0.15908  1.0000
  H   H4340     1.0  0.81029  0.27653  0.17074  1.0000
  H   H4341     1.0  0.80672  0.26900  0.15187  1.0000
  C   C3647     1.0  0.75877  0.24269  0.11314  1.0000
  H   H4342     1.0  0.76915  0.37912  0.21378  1.0000
  C   C3648     1.0  0.98323  0.32852  0.14687  1.0000
  C   C3649     1.0  0.92242  0.31966  0.09504  1.0000
  C   C3650     1.0  0.74225  0.25315  0.09884  1.0000
  C   C3651     1.0  0.75187  0.25428  0.10537  1.0000
  H   H4343     1.0  0.87027  0.24299  0.20198  1.0000
  C   C3652     1.0  0.77882  0.28167  0.07534  1.0000
  H   H4344     1.0  0.91480  0.42157  0.15896  1.0000
  H   H4345     1.0  0.75415  0.26404  0.10415  1.0000
  C   C3653     1.0  0.83027  0.30671  0.10755  1.0000
  H   H4346     1.0  0.90970  0.30533  0.10521  1.0000
  C   C3654     1.0  0.90954  0.32922  0.05011  1.0000
  C   C3655     1.0  0.87141  0.23784  0.21219  1.0000
  C   C3656     1.0  0.86176  0.35140  0.00122  1.0000
  H   H4347     1.0  0.75813  0.28325  0.07425  1.0000
  C   C3657     1.0  0.86715  0.35023  0.01255  1.0000
  C   C3658     1.0  0.84785  0.35712  0.00147  1.0000
  H   H4348     1.0  0.63680  0.24537  0.20985  1.0000
  C   C3659     1.0  0.73942  0.24045  0.10015  1.0000
  C   C3660     1.0  0.71052  0.39009  0.22632  1.0000
  S   S997      1.0  0.72845  0.23899  0.09076  1.0000
  H   H4349     1.0  0.88135  0.32492  0.07513  1.0000
  C   C3661     1.0  0.88873  0.46708  0.13809  1.0000
  C   C3662     1.0  0.75146  0.38426  0.22938  1.0000
  Fe  Fe501     1.0  0.84721  0.46454  0.13762  1.0000
  H   H4350     1.0  0.87791  0.34577  0.01223  1.0000
  H   H4351     1.0  0.83205  0.34273  0.20116  1.0000
  C   C3663     1.0  0.72426  0.23716  0.13599  1.0000
  H   H4352     1.0  0.76954  0.24036  0.06507  1.0000
  H   H4353     1.0  0.82051  0.32451  0.00443  1.0000
  H   H4354     1.0  0.81911  0.47968  0.11782  1.0000
  H   H4355     1.0  0.89898  0.47037  0.16476  1.0000
  C   C3664     1.0  0.88236  0.43186  0.17645  1.0000
  N   N238      1.0  0.83813  0.29631  0.11697  1.0000
  H   H4356     1.0  0.80655  0.23824  0.06232  1.0000
  H   H4357     1.0  0.73712  0.26208  0.09260  1.0000
  H   H4358     1.0  0.90399  0.33189  0.04173  1.0000
  C   C3665     1.0  0.88586  0.32704  0.16408  1.0000
  H   H4359     1.0  0.92082  0.34152  0.06487  1.0000
  H   H4360     1.0  0.87584  0.33232  0.18923  1.0000
  H   H4361     1.0  0.80812  0.33889  0.13164  1.0000
  S   S998      1.0  0.88790  0.25515  0.20973  1.0000
  H   H4362     1.0  0.86143  0.34500  0.17456  1.0000
  C   C3666     1.0  0.86670  0.35311  0.16913  1.0000
  C   C3667     1.0  0.90277  0.44213  0.15580  1.0000
  C   C3668     1.0  0.71342  0.26077  0.12953  1.0000
  C   C3669     1.0  0.87991  0.44566  0.17015  1.0000
  S   S999      1.0  0.84033  0.35871  0.98762  1.0000
  H   H4363     1.0  0.69652  0.39923  0.20373  1.0000
  C   C3670     1.0  0.88682  0.33245  0.18466  1.0000
  C   C3671     1.0  0.83944  0.36163  0.01319  1.0000
  H   H4364     1.0  0.97617  0.32549  0.14256  1.0000
  H   H4365     1.0  0.68019  0.38436  0.21513  1.0000
  H   H4366     1.0  0.90044  0.35252  0.05900  1.0000
  C   C3672     1.0  0.89875  0.47180  0.15391  1.0000
  N   N239      1.0  0.88794  0.46579  0.15270  1.0000
  H   H4367     1.0  0.84796  0.25928  0.22276  1.0000
  H   H4368     1.0  0.68266  0.36340  0.20736  1.0000
  H   H4369     1.0  0.73462  0.34682  0.22538  1.0000
  C   C3673     1.0  0.72092  0.26431  0.13665  1.0000
  H   H4370     1.0  0.84802  0.32163  0.14400  1.0000
  C   C3674     1.0  0.89012  0.45124  0.15962  1.0000
  H   H4371     1.0  0.84750  0.36787  0.16875  1.0000
  H   H4372     1.0  0.97902  0.32675  0.15804  1.0000
  H   H4373     1.0  0.91531  0.31845  0.05084  1.0000
  H   H4374     1.0  0.98246  0.33962  0.14279  1.0000
  H   H4375     1.0  0.73532  0.26772  0.16752  1.0000
  H   H4376     1.0  0.87433  0.42775  0.18423  1.0000
  C   C3675     1.0  0.85601  0.31083  0.10817  1.0000
  C   C3676     1.0  0.86812  0.31362  0.10889  1.0000
  C   C3677     1.0  0.87150  0.29359  0.12660  1.0000
  C   C3678     1.0  0.87574  0.30515  0.11820  1.0000
  H   H4377     1.0  0.85049  0.31798  0.10089  1.0000
  H   H4378     1.0  0.87152  0.32254  0.10230  1.0000
  H   H4379     1.0  0.87752  0.28693  0.13378  1.0000
  H   H4380     1.0  0.88493  0.30755  0.11898  1.0000
  N   N240      1.0  0.89697  0.39668  0.10815  1.0000
  C   C3679     1.0  0.90196  0.39875  0.09320  1.0000
  C   C3680     1.0  0.89015  0.41009  0.11165  1.0000
  C   C3681     1.0  0.90918  0.39124  0.11427  1.0000
  C   C3682     1.0  0.88707  0.38770  0.11290  1.0000
  C   C3683     1.0  0.88925  0.37502  0.12226  1.0000
  C   C3684     1.0  0.87463  0.39166  0.10833  1.0000
  C   C3685     1.0  0.87952  0.36697  0.12679  1.0000
  C   C3686     1.0  0.86500  0.38348  0.11290  1.0000
  C   C3687     1.0  0.86745  0.37117  0.12211  1.0000
  H   H4381     1.0  0.89351  0.40323  0.08770  1.0000
  H   H4382     1.0  0.90925  0.40566  0.08934  1.0000
  H   H4383     1.0  0.90755  0.38898  0.09018  1.0000
  H   H4384     1.0  0.88173  0.41562  0.10631  1.0000
  H   H4385     1.0  0.89744  0.41693  0.10879  1.0000
  H   H4386     1.0  0.88578  0.40894  0.12277  1.0000
  H   H4387     1.0  0.90621  0.38971  0.12552  1.0000
  H   H4388     1.0  0.91520  0.38141  0.11156  1.0000
  H   H4389     1.0  0.91638  0.39823  0.11063  1.0000
  H   H4390     1.0  0.89847  0.37097  0.12614  1.0000
  H   H4391     1.0  0.87230  0.40111  0.10113  1.0000
  H   H4392     1.0  0.88150  0.35725  0.13376  1.0000
  H   H4393     1.0  0.85566  0.38658  0.10919  1.0000
  H   H4394     1.0  0.86011  0.36473  0.12539  1.0000
  H   H4395     1.0  0.81928  0.34219  0.00298  1.0000
  H   H4396     1.0  0.72848  0.41295  0.20455  1.0000
  S   S1000     1.0  0.98675  0.35862  0.11756  1.0000
  H   H4397     1.0  0.88599  0.34771  0.07158  1.0000
  H   H4398     1.0  0.71575  0.39322  0.18558  1.0000
  H   H4399     1.0  0.70960  0.24456  0.12327  1.0000
  H   H4400     1.0  0.89676  0.41254  0.17728  1.0000
  C   C3688     1.0  0.91209  0.31311  0.09621  1.0000
  C   C3689     1.0  0.73030  0.37896  0.21114  1.0000
  C   C3690     1.0  0.76125  0.37531  0.22201  1.0000
  S   S1001     1.0  0.86605  0.35298  0.03831  1.0000
  C   C3691     1.0  0.87942  0.24188  0.21837  1.0000
  C   C3692     1.0  0.72579  0.40323  0.20935  1.0000
  C   C3693     1.0  0.62785  0.24372  0.21783  1.0000
  C   C3694     1.0  0.90516  0.42840  0.16227  1.0000
  H   H4401     1.0  0.99242  0.33903  0.16060  1.0000
  H   H4402     1.0  0.77714  0.29224  0.07578  1.0000
  H   H4403     1.0  0.73651  0.36990  0.20769  1.0000
  H   H4404     1.0  0.76156  0.25966  0.07349  1.0000
  C   C3695     1.0  0.69771  0.39005  0.20025  1.0000
  H   H4405     1.0  0.86837  0.34785  0.99233  1.0000
  H   H4406     1.0  0.72199  0.27389  0.15834  1.0000
  C   C3696     1.0  0.77030  0.26290  0.07409  1.0000
  H   H4407     1.0  0.91084  0.44547  0.14755  1.0000
  H   H4408     1.0  0.83374  0.28728  0.13850  1.0000
  H   H4409     1.0  0.85664  0.28152  0.13269  1.0000
  C   C3697     1.0  0.84483  0.36052  0.02448  1.0000
  C   C3698     1.0  0.59260  0.27354  0.22250  1.0000
  H   H4410     1.0  0.87513  0.32588  0.16856  1.0000
  C   C3699     1.0  0.80223  0.31100  0.15569  1.0000
  C   C3700     1.0  0.84086  0.28311  0.11305  1.0000
  C   C3701     1.0  0.85874  0.35479  0.02425  1.0000
  C   C3702     1.0  0.80085  0.32186  0.14464  1.0000
  H   H4411     1.0  0.89239  0.31665  0.16630  1.0000
  C   C3703     1.0  0.80984  0.33070  0.14029  1.0000
  H   H4412     1.0  0.72352  0.25729  0.16926  1.0000
  H   H4413     1.0  0.79516  0.30425  0.15906  1.0000
  H   H4414     1.0  0.88340  0.32721  0.05727  1.0000
  H   H4415     1.0  0.84390  0.48170  0.09624  1.0000
  H   H4416     1.0  0.79652  0.30154  0.21670  1.0000
  H   H4417     1.0  0.83121  0.28066  0.11277  1.0000
  H   H4418     1.0  0.89275  0.32197  0.18802  1.0000
  C   C3704     1.0  0.90461  0.33568  0.16464  1.0000
  C   C3705     1.0  0.88128  0.35063  0.16577  1.0000
  C   C3706     1.0  0.88722  0.36207  0.15904  1.0000
  C   C3707     1.0  0.87901  0.37508  0.15590  1.0000
  C   C3708     1.0  0.85861  0.36617  0.16592  1.0000
  C   C3709     1.0  0.86476  0.37714  0.15936  1.0000
  H   H4419     1.0  0.90841  0.34222  0.16884  1.0000
  H   H4420     1.0  0.91053  0.32513  0.16772  1.0000
  H   H4421     1.0  0.90746  0.33838  0.15335  1.0000
  H   H4422     1.0  0.89818  0.36133  0.15621  1.0000
  H   H4423     1.0  0.88374  0.38364  0.15080  1.0000
  H   H4424     1.0  0.85847  0.38730  0.15711  1.0000
  N   N241      1.0  0.73875  0.25847  0.15052  1.0000
  C   C3710     1.0  0.72948  0.26459  0.16191  1.0000
  C   C3711     1.0  0.74916  0.24703  0.15619  1.0000
  C   C3712     1.0  0.74618  0.26871  0.14094  1.0000
  C   C3713     1.0  0.73061  0.25436  0.14343  1.0000
  H   H4425     1.0  0.55872  0.28461  0.22258  1.0000
  H   H4426     1.0  0.86574  0.47088  0.15687  1.0000
  C   C3714     1.0  0.82922  0.29558  0.13083  1.0000
  C   C3715     1.0  0.82021  0.26615  0.22815  1.0000
  C   C3716     1.0  0.92550  0.32976  0.08362  1.0000
  H   H4427     1.0  0.88693  0.34930  0.05388  1.0000
  H   H4428     1.0  0.71923  0.27495  0.13663  1.0000
  C   C3717     1.0  0.79390  0.25942  0.07548  1.0000
  C   C3718     1.0  0.76816  0.27658  0.07449  1.0000
  H   H4429     1.0  0.75540  0.25053  0.16107  1.0000
  H   H4430     1.0  0.75659  0.24209  0.14805  1.0000
  H   H4431     1.0  0.73923  0.27846  0.13746  1.0000
  H   H4432     1.0  0.75318  0.27137  0.14562  1.0000
  H   H4433     1.0  0.75246  0.26479  0.13176  1.0000
  H   H4434     1.0  0.99051  0.30263  0.14613  1.0000
  C   C3719     1.0  0.71854  0.37825  0.22188  1.0000
  H   H4435     1.0  0.89874  0.46155  0.13288  1.0000
  H   H4436     1.0  0.60179  0.26716  0.21761  1.0000
  H   H4437     1.0  0.82763  0.48155  0.09414  1.0000
  N   N242      1.0  0.80591  0.40526  0.11253  1.0000
  C   C3720     1.0  0.80010  0.41044  0.12527  1.0000
  C   C3721     1.0  0.82077  0.39960  0.11164  1.0000
  C   C3722     1.0  0.80400  0.41713  0.10107  1.0000
  C   C3723     1.0  0.79964  0.39450  0.11184  1.0000
  C   C3724     1.0  0.79120  0.38771  0.12336  1.0000
  C   C3725     1.0  0.80285  0.38973  0.09965  1.0000
  C   C3726     1.0  0.78605  0.37706  0.12256  1.0000
  C   C3727     1.0  0.79753  0.37917  0.09894  1.0000
  C   C3728     1.0  0.78918  0.37282  0.11038  1.0000
  H   H4438     1.0  0.80245  0.40251  0.13432  1.0000
  H   H4439     1.0  0.80458  0.41894  0.12522  1.0000
  H   H4440     1.0  0.78879  0.41422  0.12687  1.0000
  H   H4441     1.0  0.82253  0.39012  0.11953  1.0000
  H   H4442     1.0  0.82591  0.40694  0.11306  1.0000
  H   H4443     1.0  0.82606  0.39696  0.10161  1.0000
  H   H4444     1.0  0.79293  0.42121  0.10098  1.0000
  H   H4445     1.0  0.80833  0.42549  0.10162  1.0000
  H   H4446     1.0  0.80932  0.41465  0.09100  1.0000
  H   H4447     1.0  0.78867  0.39021  0.13321  1.0000
  H   H4448     1.0  0.80983  0.39381  0.09064  1.0000
  H   H4449     1.0  0.77977  0.37188  0.13150  1.0000
  H   H4450     1.0  0.80031  0.37552  0.08959  1.0000
  H   H4451     1.0  0.78543  0.36435  0.10988  1.0000
  N   N243      1.0  0.83016  0.33812  0.14283  1.0000
  C   C3729     1.0  0.83121  0.34251  0.15475  1.0000
  C   C3730     1.0  0.84391  0.33076  0.13669  1.0000
  C   C3731     1.0  0.82603  0.35060  0.13265  1.0000
  C   C3732     1.0  0.82047  0.32895  0.14710  1.0000
  C   C3733     1.0  0.82182  0.31753  0.15807  1.0000
  C   C3734     1.0  0.81275  0.30879  0.16233  1.0000
  H   H4452     1.0  0.83618  0.33407  0.16208  1.0000
  H   H4453     1.0  0.83736  0.35043  0.15172  1.0000
  H   H4454     1.0  0.82091  0.34699  0.16042  1.0000
  H   H4455     1.0  0.85152  0.33733  0.13311  1.0000
  H   H4456     1.0  0.84351  0.32726  0.12776  1.0000
  H   H4457     1.0  0.83282  0.35783  0.13033  1.0000
  H   H4458     1.0  0.82654  0.34827  0.12277  1.0000
  H   H4459     1.0  0.81541  0.35619  0.13641  1.0000
  H   H4460     1.0  0.82987  0.31523  0.16351  1.0000
  H   H4461     1.0  0.81392  0.30025  0.17087  1.0000
  N   N244      1.0  0.72271  0.36975  0.17458  1.0000
  C   C3735     1.0  0.71785  0.37042  0.16239  1.0000
  C   C3736     1.0  0.73310  0.37822  0.17033  1.0000
  C   C3737     1.0  0.72974  0.35550  0.17945  1.0000
  C   C3738     1.0  0.71085  0.37420  0.18533  1.0000
  C   C3739     1.0  0.70087  0.36621  0.19171  1.0000
  C   C3740     1.0  0.70879  0.38642  0.18977  1.0000
  C   C3741     1.0  0.68996  0.36984  0.20235  1.0000
  C   C3742     1.0  0.80818  0.28260  0.21129  1.0000
  H   H4462     1.0  0.88955  0.33946  0.18923  1.0000
  H   H4463     1.0  0.71058  0.36369  0.16457  1.0000
  H   H4464     1.0  0.71248  0.38095  0.15840  1.0000
  H   H4465     1.0  0.72657  0.36716  0.15407  1.0000
  H   H4466     1.0  0.72894  0.38888  0.16549  1.0000
  H   H4467     1.0  0.74218  0.37432  0.16267  1.0000
  H   H4468     1.0  0.73699  0.37838  0.17913  1.0000
  H   H4469     1.0  0.72349  0.34805  0.18070  1.0000
  H   H4470     1.0  0.73946  0.35226  0.17214  1.0000
  H   H4471     1.0  0.73226  0.35426  0.18940  1.0000
  H   H4472     1.0  0.70150  0.35701  0.18863  1.0000
  C   C3743     1.0  0.85949  0.29062  0.12593  1.0000
  H   H4473     1.0  0.80669  0.34680  0.20516  1.0000
  H   H4474     1.0  0.82735  0.30520  0.13421  1.0000
  H   H4475     1.0  0.83445  0.48165  0.12092  1.0000
  N   N245      1.0  0.89993  0.33121  0.06321  1.0000
  C   C3744     1.0  0.89308  0.34580  0.06185  1.0000
  C   C3745     1.0  0.90758  0.32700  0.07420  1.0000
  C   C3746     1.0  0.91821  0.33342  0.07335  1.0000
  C   C3747     1.0  0.90475  0.31666  0.08597  1.0000
  H   H4476     1.0  0.88735  0.47786  0.13249  1.0000
  H   H4477     1.0  0.70636  0.26855  0.12409  1.0000
  C   C3748     1.0  0.82107  0.33431  0.99700  1.0000
  N   N246      1.0  0.81105  0.33785  0.98823  1.0000
  H   H4478     1.0  0.80404  0.25322  0.07598  1.0000
  C   C3749     1.0  0.78325  0.25382  0.07478  1.0000
  C   C3750     1.0  0.61890  0.23676  0.21615  1.0000
  H   H4479     1.0  0.71556  0.36867  0.22660  1.0000
  C   C3751     1.0  0.79715  0.33898  0.99725  1.0000
  H   H4480     1.0  0.70804  0.41170  0.22327  1.0000
  C   C3752     1.0  0.73198  0.24060  0.14298  1.0000
  C   C3753     1.0  0.76065  0.36163  0.22484  1.0000
  H   H4481     1.0  0.80581  0.28538  0.20132  1.0000
  H   H4482     1.0  0.82196  0.24178  0.22255  1.0000
  C   C3754     1.0  0.81671  0.27002  0.21526  1.0000
  C   C3755     1.0  0.56836  0.28334  0.22534  1.0000
  C   C3756     1.0  0.75983  0.33368  0.22985  1.0000
  H   H4483     1.0  0.79994  0.27718  0.07636  1.0000
  H   H4484     1.0  0.76850  0.35535  0.21858  1.0000
  C   C3757     1.0  0.99121  0.36733  0.13841  1.0000
  H   H4485     1.0  0.83143  0.31361  0.98647  1.0000
  H   H4486     1.0  0.78892  0.34288  0.99143  1.0000
  S   S1002     1.0  0.83965  0.48439  0.14503  1.0000
  C   C3758     1.0  0.58020  0.27526  0.21900  1.0000
  H   H4487     1.0  0.83177  0.33375  0.99085  1.0000
  H   H4488     1.0  0.82060  0.26364  0.20788  1.0000
  H   H4489     1.0  0.75979  0.33748  0.21885  1.0000
  H   H4490     1.0  0.75174  0.39493  0.22680  1.0000
  C   C3759     1.0  0.80304  0.29175  0.21989  1.0000
  H   H4491     1.0  0.83812  0.24652  0.21362  1.0000
  H   H4492     1.0  0.89702  0.48292  0.14939  1.0000
  H   H4493     1.0  0.76525  0.23656  0.08342  1.0000
  H   H4494     1.0  0.57979  0.27025  0.21141  1.0000
  N   N247      1.0  0.78590  0.23923  0.07457  1.0000
  H   H4495     1.0  0.79337  0.24291  0.05291  1.0000
  C   C3760     1.0  0.79656  0.23637  0.06232  1.0000
  H   H4496     1.0  0.81123  0.35908  0.98510  1.0000
  H   H4497     1.0  0.99348  0.32151  0.12399  1.0000
  C   C3761     1.0  0.62548  0.24828  0.22991  1.0000
  Fe  Fe502     1.0  0.61481  0.28802  0.27444  1.0000
  S   S1003     1.0  0.61068  0.26721  0.28342  1.0000
  S   S1004     1.0  0.59927  0.30739  0.27771  1.0000
  Fe  Fe503     1.0  0.64432  0.27705  0.26123  1.0000
  S   S1005     1.0  0.64252  0.25525  0.26871  1.0000
  S   S1006     1.0  0.66464  0.28299  0.25254  1.0000
  Fe  Fe504     1.0  0.62203  0.26260  0.26287  1.0000
  S   S1007     1.0  0.61074  0.25085  0.25601  1.0000
  Fe  Fe505     1.0  0.63138  0.26169  0.28831  1.0000
  S   S1008     1.0  0.63755  0.24924  0.30762  1.0000
  S   S1009     1.0  0.62484  0.28404  0.25354  1.0000
  S   S1010     1.0  0.63448  0.28294  0.28120  1.0000
  H   H4498     1.0  0.65307  0.32110  0.29417  1.0000
  Fe  Fe506     1.0  0.66686  0.28197  0.34476  1.0000
  S   S1011     1.0  0.68444  0.26502  0.33914  1.0000
  S   S1012     1.0  0.64769  0.28964  0.33648  1.0000
  Fe  Fe507     1.0  0.68115  0.28928  0.36229  1.0000
  S   S1013     1.0  0.70018  0.27289  0.35825  1.0000
  S   S1014     1.0  0.67893  0.30649  0.37225  1.0000
  Fe  Fe508     1.0  0.69784  0.27918  0.33668  1.0000
  S   S1015     1.0  0.71637  0.27793  0.31947  1.0000
  Fe  Fe509     1.0  0.68541  0.25985  0.36108  1.0000
  C   C3762     1.0  0.66331  0.39762  0.44813  1.0000
  S   S1016     1.0  0.68022  0.29672  0.34030  1.0000
  S   S1017     1.0  0.66643  0.27569  0.36705  1.0000
  Fe  Fe510     1.0  0.67172  0.35102  0.25774  1.0000
  S   S1018     1.0  0.67675  0.34019  0.27791  1.0000
  S   S1019     1.0  0.65625  0.34558  0.25011  1.0000
  Fe  Fe511     1.0  0.68952  0.37119  0.25277  1.0000
  S   S1020     1.0  0.69599  0.36225  0.27263  1.0000
  H   H4499     1.0  0.65109  0.37030  0.44984  1.0000
  Fe  Fe512     1.0  0.69822  0.34235  0.26721  1.0000
  S   S1021     1.0  0.71738  0.32593  0.26770  1.0000
  Fe  Fe513     1.0  0.67393  0.36109  0.28150  1.0000
  S   S1022     1.0  0.65974  0.36660  0.30089  1.0000
  S   S1023     1.0  0.69343  0.35144  0.24660  1.0000
  S   S1024     1.0  0.66719  0.37175  0.26208  1.0000
  Fe  Fe514     1.0  0.61938  0.43215  0.34412  1.0000
  S   S1025     1.0  0.63457  0.41527  0.35377  1.0000
  S   S1026     1.0  0.59946  0.42816  0.34318  1.0000
  Fe  Fe515     1.0  0.63616  0.45355  0.33991  1.0000
  S   S1027     1.0  0.65277  0.43804  0.34900  1.0000
  Fe  Fe516     1.0  0.65033  0.42437  0.33702  1.0000
  S   S1028     1.0  0.66875  0.41145  0.32545  1.0000
  Fe  Fe517     1.0  0.63537  0.43053  0.36465  1.0000
  S   S1029     1.0  0.63244  0.42623  0.38723  1.0000
  S   S1030     1.0  0.63508  0.44044  0.32651  1.0000
  S   S1031     1.0  0.61886  0.44682  0.35639  1.0000
  Fe  Fe518     1.0  0.57822  0.33151  0.34611  1.0000
  S   S1032     1.0  0.56251  0.33142  0.36569  1.0000
  S   S1033     1.0  0.58675  0.31166  0.33916  1.0000
  Fe  Fe519     1.0  0.58199  0.35975  0.34503  1.0000
  S   S1034     1.0  0.59943  0.37059  0.33504  1.0000
  Fe  Fe520     1.0  0.57606  0.34033  0.37241  1.0000
  S   S1035     1.0  0.58439  0.33035  0.39131  1.0000
  S   S1036     1.0  0.59234  0.33863  0.35359  1.0000
  S   S1037     1.0  0.56893  0.35246  0.33570  1.0000
  Fe  Fe521     1.0  0.64020  0.32905  0.43655  1.0000
  S   S1038     1.0  0.61964  0.33560  0.44999  1.0000
  S   S1039     1.0  0.64752  0.30756  0.43334  1.0000
  Fe  Fe522     1.0  0.64633  0.35692  0.42957  1.0000
  S   S1040     1.0  0.62647  0.36566  0.44269  1.0000
  S   S1041     1.0  0.66179  0.36892  0.41616  1.0000
  Fe  Fe523     1.0  0.63084  0.34624  0.45801  1.0000
  Fe  Fe524     1.0  0.61730  0.35435  0.43345  1.0000
  S   S1042     1.0  0.59924  0.36513  0.42378  1.0000
  S   S1043     1.0  0.65155  0.33836  0.44560  1.0000
  S   S1044     1.0  0.63691  0.34693  0.41941  1.0000
  H   H4500     1.0  0.64541  0.40081  0.28640  1.0000
  N   N248      1.0  0.61106  0.29426  0.36952  1.0000
  H   H4501     1.0  0.69520  0.33659  0.33940  1.0000
  C   C3763     1.0  0.58848  0.34031  0.40005  1.0000
  C   C3764     1.0  0.58373  0.35444  0.39775  1.0000
  C   C3765     1.0  0.58697  0.36199  0.40515  1.0000
  C   C3766     1.0  0.59532  0.35553  0.41454  1.0000
  C   C3767     1.0  0.60039  0.34146  0.41652  1.0000
  C   C3768     1.0  0.59678  0.33386  0.40947  1.0000
  H   H4502     1.0  0.57731  0.35950  0.39053  1.0000
  H   H4503     1.0  0.58304  0.37286  0.40356  1.0000
  H   H4504     1.0  0.60679  0.33638  0.42377  1.0000
  H   H4505     1.0  0.60042  0.32294  0.41136  1.0000
  C   C3769     1.0  0.64077  0.41003  0.39438  1.0000
  C   C3770     1.0  0.63309  0.40186  0.40478  1.0000
  C   C3771     1.0  0.63950  0.38899  0.41101  1.0000
  C   C3772     1.0  0.65373  0.38457  0.40748  1.0000
  C   C3773     1.0  0.66150  0.39278  0.39709  1.0000
  C   C3774     1.0  0.65497  0.40545  0.39036  1.0000
  H   H4506     1.0  0.62214  0.40551  0.40805  1.0000
  H   H4507     1.0  0.63338  0.38266  0.41868  1.0000
  H   H4508     1.0  0.67253  0.38938  0.39429  1.0000
  H   H4509     1.0  0.66095  0.41189  0.38242  1.0000
  C   C3775     1.0  0.59944  0.41180  0.34181  1.0000
  C   C3776     1.0  0.58698  0.40855  0.34275  1.0000
  C   C3777     1.0  0.58675  0.39566  0.34135  1.0000
  C   C3778     1.0  0.59904  0.38612  0.33867  1.0000
  C   C3779     1.0  0.61147  0.38931  0.33791  1.0000
  C   C3780     1.0  0.61166  0.40205  0.33964  1.0000
  H   H4510     1.0  0.57748  0.41606  0.34442  1.0000
  H   H4511     1.0  0.57712  0.39331  0.34185  1.0000
  H   H4512     1.0  0.62100  0.38197  0.33584  1.0000
  H   H4513     1.0  0.62128  0.40451  0.33883  1.0000
  C   C3781     1.0  0.66240  0.37930  0.30727  1.0000
  C   C3782     1.0  0.67525  0.38249  0.30408  1.0000
  C   C3783     1.0  0.67711  0.39240  0.30970  1.0000
  C   C3784     1.0  0.66605  0.39939  0.31822  1.0000
  C   C3785     1.0  0.65315  0.39640  0.32114  1.0000
  C   C3786     1.0  0.65142  0.38615  0.31594  1.0000
  H   H4514     1.0  0.68382  0.37720  0.29748  1.0000
  H   H4515     1.0  0.68713  0.39467  0.30742  1.0000
  H   H4516     1.0  0.64456  0.40188  0.32753  1.0000
  H   H4517     1.0  0.64145  0.38376  0.31838  1.0000
  H   H4518     1.0  0.71531  0.29637  0.26370  1.0000
  C   C3787     1.0  0.63601  0.27383  0.39239  1.0000
  N   N249      1.0  0.65224  0.39020  0.45091  1.0000
  C   C3788     1.0  0.67056  0.30608  0.38942  1.0000
  C   C3789     1.0  0.66911  0.31738  0.39475  1.0000
  C   C3790     1.0  0.66212  0.31782  0.40819  1.0000
  C   C3791     1.0  0.65657  0.30688  0.41651  1.0000
  C   C3792     1.0  0.65826  0.29538  0.41132  1.0000
  C   C3793     1.0  0.66513  0.29502  0.39773  1.0000
  H   H4519     1.0  0.67352  0.32580  0.38849  1.0000
  H   H4520     1.0  0.66129  0.32652  0.41221  1.0000
  H   H4521     1.0  0.65420  0.28680  0.41782  1.0000
  H   H4522     1.0  0.66630  0.28619  0.39374  1.0000
  C   C3794     1.0  0.71684  0.31305  0.28246  1.0000
  C   C3795     1.0  0.70563  0.31376  0.29357  1.0000
  C   C3796     1.0  0.70538  0.30304  0.30509  1.0000
  C   C3797     1.0  0.71634  0.29168  0.30547  1.0000
  C   C3798     1.0  0.72753  0.29106  0.29437  1.0000
  C   C3799     1.0  0.72780  0.30173  0.28292  1.0000
  H   H4523     1.0  0.69723  0.32257  0.29333  1.0000
  H   H4524     1.0  0.69676  0.30362  0.31365  1.0000
  H   H4525     1.0  0.73602  0.28230  0.29461  1.0000
  H   H4526     1.0  0.73649  0.30115  0.27435  1.0000
  C   C3800     1.0  0.62739  0.42916  0.29900  1.0000
  H   H4527     1.0  0.50270  0.31462  0.33309  1.0000
  H   H4528     1.0  0.75565  0.24550  0.31429  1.0000
  H   H4529     1.0  0.75197  0.24313  0.34447  1.0000
  C   C3801     1.0  0.74917  0.33596  0.25278  1.0000
  C   C3802     1.0  0.59517  0.30872  0.29480  1.0000
  C   C3803     1.0  0.58869  0.32126  0.29848  1.0000
  C   C3804     1.0  0.58601  0.32238  0.31210  1.0000
  C   C3805     1.0  0.58977  0.31092  0.32202  1.0000
  C   C3806     1.0  0.59600  0.29838  0.31834  1.0000
  C   C3807     1.0  0.59871  0.29730  0.30478  1.0000
  H   H4530     1.0  0.58592  0.33014  0.29078  1.0000
  H   H4531     1.0  0.58113  0.33209  0.31487  1.0000
  H   H4532     1.0  0.59883  0.28945  0.32598  1.0000
  H   H4533     1.0  0.60350  0.28757  0.30204  1.0000
  C   C3808     1.0  0.66267  0.30047  0.25120  1.0000
  C   C3809     1.0  0.65052  0.30956  0.24866  1.0000
  C   C3810     1.0  0.64894  0.32350  0.24766  1.0000
  C   C3811     1.0  0.65925  0.32834  0.24977  1.0000
  C   C3812     1.0  0.67136  0.31924  0.25245  1.0000
  C   C3813     1.0  0.67314  0.30535  0.25296  1.0000
  H   H4534     1.0  0.55929  0.29576  0.23974  1.0000
  H   H4535     1.0  0.50043  0.32710  0.36930  1.0000
  H   H4536     1.0  0.67938  0.32291  0.25408  1.0000
  H   H4537     1.0  0.68255  0.29838  0.25488  1.0000
  C   C3814     1.0  0.63927  0.25978  0.31714  1.0000
  C   C3815     1.0  0.63094  0.27283  0.31672  1.0000
  C   C3816     1.0  0.63305  0.28165  0.32343  1.0000
  C   C3817     1.0  0.64386  0.27764  0.33013  1.0000
  C   C3818     1.0  0.65177  0.26436  0.33113  1.0000
  C   C3819     1.0  0.64942  0.25540  0.32471  1.0000
  H   H4538     1.0  0.62280  0.27605  0.31129  1.0000
  H   H4539     1.0  0.62635  0.29159  0.32335  1.0000
  H   H4540     1.0  0.65972  0.26096  0.33681  1.0000
  H   H4541     1.0  0.65570  0.24519  0.32530  1.0000
  C   C3820     1.0  0.63350  0.48183  0.35684  1.0000
  C   C3821     1.0  0.65886  0.30998  0.47510  1.0000
  N   N250      1.0  0.82906  0.25282  0.23278  1.0000
  C   C3822     1.0  0.61393  0.24618  0.24026  1.0000
  H   H4542     1.0  0.61291  0.31501  0.36538  1.0000
  H   H4543     1.0  0.62469  0.39310  0.29897  1.0000
  C   C3823     1.0  0.67960  0.46327  0.36971  1.0000
  H   H4544     1.0  0.64900  0.44144  0.29540  1.0000
  H   H4545     1.0  0.74857  0.32507  0.25537  1.0000
  S   S1045     1.0  0.56621  0.36193  0.36442  1.0000
  N   N251      1.0  0.59267  0.40737  0.38730  1.0000
  C   C3824     1.0  0.60145  0.41744  0.38228  1.0000
  C   C3825     1.0  0.58110  0.41245  0.38024  1.0000
  C   C3826     1.0  0.58667  0.40665  0.40205  1.0000
  C   C3827     1.0  0.60115  0.39394  0.38499  1.0000
  C   C3828     1.0  0.59980  0.38763  0.37519  1.0000
  C   C3829     1.0  0.61123  0.38676  0.39263  1.0000
  C   C3830     1.0  0.60768  0.37471  0.37365  1.0000
  C   C3831     1.0  0.61889  0.37380  0.39116  1.0000
  C   C3832     1.0  0.61706  0.36774  0.38178  1.0000
  H   H4546     1.0  0.60587  0.41849  0.37117  1.0000
  H   H4547     1.0  0.59561  0.42772  0.38396  1.0000
  H   H4548     1.0  0.61017  0.41454  0.38740  1.0000
  H   H4549     1.0  0.58481  0.41450  0.36901  1.0000
  H   H4550     1.0  0.57462  0.42232  0.38253  1.0000
  H   H4551     1.0  0.57433  0.40508  0.38327  1.0000
  H   H4552     1.0  0.57907  0.41614  0.40404  1.0000
  H   H4553     1.0  0.58144  0.39799  0.40657  1.0000
  H   H4554     1.0  0.59450  0.40530  0.40792  1.0000
  H   H4555     1.0  0.59258  0.39235  0.36873  1.0000
  H   H4556     1.0  0.61294  0.39086  0.40020  1.0000
  H   H4557     1.0  0.60619  0.36999  0.36635  1.0000
  H   H4558     1.0  0.62583  0.36825  0.39780  1.0000
  H   H4559     1.0  0.62282  0.35756  0.38100  1.0000
  H   H4560     1.0  0.65236  0.32844  0.27670  1.0000
  C   C3833     1.0  0.61036  0.35234  0.30878  1.0000
  H   H4561     1.0  0.61302  0.37259  0.30595  1.0000
  H   H4562     1.0  0.63045  0.33456  0.26975  1.0000
  H   H4563     1.0  0.67164  0.45140  0.36121  1.0000
  H   H4564     1.0  0.60091  0.35385  0.31646  1.0000
  H   H4565     1.0  0.65522  0.31839  0.35730  1.0000
  C   C3834     1.0  0.56886  0.28970  0.23524  1.0000
  H   H4566     1.0  0.61807  0.34916  0.35129  1.0000
  H   H4567     1.0  0.62815  0.38119  0.46137  1.0000
  C   C3835     1.0  0.82260  0.24623  0.24666  1.0000
  C   C3836     1.0  0.61713  0.36295  0.30281  1.0000
  H   H4568     1.0  0.60756  0.28744  0.35335  1.0000
  H   H4569     1.0  0.60971  0.33216  0.30979  1.0000
  N   N252      1.0  0.63309  0.32466  0.29000  1.0000
  S   S1046     1.0  0.53026  0.35882  0.36031  1.0000
  H   H4570     1.0  0.81206  0.24539  0.24708  1.0000
  C   C3837     1.0  0.74511  0.24901  0.32010  1.0000
  H   H4571     1.0  0.53287  0.35655  0.33244  1.0000
  H   H4572     1.0  0.63086  0.31663  0.27410  1.0000
  N   N253      1.0  0.64414  0.33736  0.33696  1.0000
  C   C3838     1.0  0.64669  0.32510  0.33142  1.0000
  H   H4573     1.0  0.65658  0.44165  0.26612  1.0000
  C   C3839     1.0  0.67502  0.35115  0.36564  1.0000
  H   H4574     1.0  0.64240  0.36936  0.36130  1.0000
  C   C3840     1.0  0.59209  0.30367  0.24352  1.0000
  H   H4575     1.0  0.66453  0.36783  0.38493  1.0000
  H   H4576     1.0  0.60823  0.30728  0.38995  1.0000
  C   C3841     1.0  0.50483  0.35728  0.35856  1.0000
  H   H4577     1.0  0.74033  0.34092  0.25992  1.0000
  C   C3842     1.0  0.65547  0.37020  0.38032  1.0000
  H   H4578     1.0  0.68851  0.33149  0.36445  1.0000
  H   H4579     1.0  0.56098  0.30322  0.35316  1.0000
  S   S1047     1.0  0.63801  0.47559  0.33168  1.0000
  C   C3843     1.0  0.65601  0.43195  0.29273  1.0000
  H   H4580     1.0  0.54629  0.31135  0.36369  1.0000
  C   C3844     1.0  0.63139  0.38456  0.46854  1.0000
  H   H4581     1.0  0.58081  0.27633  0.26513  1.0000
  C   C3845     1.0  0.70907  0.28904  0.26558  1.0000
  C   C3846     1.0  0.71262  0.23654  0.37765  1.0000
  H   H4582     1.0  0.64243  0.30588  0.24721  1.0000
  C   C3847     1.0  0.66836  0.47240  0.35094  1.0000
  C   C3848     1.0  0.68423  0.34137  0.35876  1.0000
  C   C3849     1.0  0.63668  0.30918  0.47281  1.0000
  H   H4583     1.0  0.71758  0.28404  0.24592  1.0000
  N   N254      1.0  0.68072  0.27496  0.29348  1.0000
  C   C3850     1.0  0.68458  0.26067  0.30077  1.0000
  C   C3851     1.0  0.67944  0.28385  0.30283  1.0000
  C   C3852     1.0  0.66702  0.27728  0.29050  1.0000
  C   C3853     1.0  0.69105  0.27746  0.28062  1.0000
  C   C3854     1.0  0.69962  0.28675  0.27797  1.0000
  C   C3855     1.0  0.69275  0.27048  0.27023  1.0000
  C   C3856     1.0  0.75006  0.35654  0.23527  1.0000
  H   H4584     1.0  0.57029  0.30748  0.26356  1.0000
  C   C3857     1.0  0.64358  0.38953  0.46486  1.0000
  H   H4585     1.0  0.69495  0.25846  0.30295  1.0000
  H   H4586     1.0  0.67720  0.25843  0.31066  1.0000
  H   H4587     1.0  0.68475  0.25331  0.29485  1.0000
  H   H4588     1.0  0.68916  0.28198  0.30623  1.0000
  H   H4589     1.0  0.67140  0.28192  0.31228  1.0000
  H   H4590     1.0  0.67656  0.29479  0.29797  1.0000
  H   H4591     1.0  0.66635  0.26945  0.28554  1.0000
  H   H4592     1.0  0.65871  0.27690  0.29989  1.0000
  H   H4593     1.0  0.66451  0.28728  0.28351  1.0000
  H   H4594     1.0  0.69920  0.29247  0.28523  1.0000
  H   H4595     1.0  0.68652  0.26337  0.27142  1.0000
  H   H4596     1.0  0.63959  0.33051  0.24552  1.0000
  H   H4597     1.0  0.73105  0.23551  0.38377  1.0000
  H   H4598     1.0  0.74506  0.25858  0.32281  1.0000
  N   N255      1.0  0.54428  0.31381  0.34307  1.0000
  C   C3858     1.0  0.55156  0.30654  0.33185  1.0000
  C   C3859     1.0  0.54793  0.32723  0.33917  1.0000
  C   C3860     1.0  0.63735  0.40785  0.29164  1.0000
  C   C3861     1.0  0.52916  0.31589  0.34597  1.0000
  C   C3862     1.0  0.52085  0.32097  0.35756  1.0000
  C   C3863     1.0  0.52221  0.31362  0.33718  1.0000
  C   C3864     1.0  0.68128  0.47621  0.36912  1.0000
  H   H4599     1.0  0.73185  0.36290  0.25057  1.0000
  C   C3865     1.0  0.71038  0.28210  0.25557  1.0000
  H   H4600     1.0  0.56292  0.30450  0.33042  1.0000
  H   H4601     1.0  0.54881  0.29653  0.33394  1.0000
  H   H4602     1.0  0.54933  0.31265  0.32191  1.0000
  H   H4603     1.0  0.54417  0.33356  0.32999  1.0000
  H   H4604     1.0  0.55922  0.32623  0.33684  1.0000
  H   H4605     1.0  0.54337  0.33305  0.34739  1.0000
  N   N256      1.0  0.65110  0.42633  0.28389  1.0000
  C   C3866     1.0  0.63299  0.28193  0.40181  1.0000
  H   H4606     1.0  0.52756  0.31023  0.32788  1.0000
  H   H4607     1.0  0.65254  0.35332  0.47318  1.0000
  C   C3867     1.0  0.56907  0.30280  0.25575  1.0000
  H   H4608     1.0  0.61057  0.30999  0.35134  1.0000
  H   H4609     1.0  0.62548  0.34634  0.32962  1.0000
  H   H4610     1.0  0.64053  0.35062  0.31790  1.0000
  C   C3868     1.0  0.67345  0.36674  0.34406  1.0000
  C   C3869     1.0  0.63874  0.42098  0.29160  1.0000
  H   H4611     1.0  0.59279  0.30707  0.37940  1.0000
  H   H4612     1.0  0.88697  0.23836  0.23640  1.0000
  C   C3870     1.0  0.60470  0.23974  0.23831  1.0000
  H   H4613     1.0  0.56483  0.31133  0.24798  1.0000
  H   H4614     1.0  0.58775  0.28829  0.26919  1.0000
  H   H4615     1.0  0.65903  0.40807  0.45006  1.0000
  H   H4616     1.0  0.68574  0.35922  0.32626  1.0000
  H   H4617     1.0  0.63407  0.30308  0.29745  1.0000
  H   H4618     1.0  0.63346  0.35836  0.33221  1.0000
  H   H4619     1.0  0.81801  0.27402  0.24606  1.0000
  H   H4620     1.0  0.66619  0.43455  0.28785  1.0000
  H   H4621     1.0  0.66507  0.33277  0.33947  1.0000
  H   H4622     1.0  0.62173  0.32575  0.39076  1.0000
  H   H4623     1.0  0.70303  0.26765  0.24998  1.0000
  H   H4624     1.0  0.64501  0.31335  0.38149  1.0000
  C   C3871     1.0  0.62614  0.32808  0.37995  1.0000
  C   C3872     1.0  0.58137  0.28808  0.23911  1.0000
  H   H4625     1.0  0.59556  0.23838  0.24612  1.0000
  C   C3873     1.0  0.67386  0.32459  0.47455  1.0000
  C   C3874     1.0  0.66923  0.36414  0.35844  1.0000
  H   H4626     1.0  0.60537  0.40782  0.31180  1.0000
  C   C3875     1.0  0.65741  0.34115  0.33482  1.0000
  N   N257      1.0  0.65918  0.37467  0.36528  1.0000
  C   C3876     1.0  0.64740  0.39278  0.47538  1.0000
  H   H4627     1.0  0.66031  0.41202  0.27064  1.0000
  H   H4628     1.0  0.66561  0.40714  0.28663  1.0000
  H   H4629     1.0  0.75875  0.33656  0.25509  1.0000
  C   C3877     1.0  0.51297  0.35466  0.33159  1.0000
  H   H4630     1.0  0.67265  0.34829  0.37659  1.0000
  C   C3878     1.0  0.64635  0.37848  0.36027  1.0000
  H   H4631     1.0  0.59245  0.28941  0.38307  1.0000
  H   H4632     1.0  0.66226  0.34387  0.32381  1.0000
  C   C3879     1.0  0.59322  0.27978  0.23242  1.0000
  H   H4633     1.0  0.65223  0.31121  0.28291  1.0000
  C   C3880     1.0  0.68268  0.35692  0.33728  1.0000
  H   H4634     1.0  0.61075  0.27428  0.36794  1.0000
  C   C3881     1.0  0.63781  0.33439  0.35168  1.0000
  H   H4635     1.0  0.59794  0.27815  0.25734  1.0000
  H   H4636     1.0  0.65024  0.39863  0.43008  1.0000
  C   C3882     1.0  0.74033  0.36594  0.24267  1.0000
  C   C3883     1.0  0.80669  0.28850  0.23236  1.0000
  C   C3884     1.0  0.70225  0.27282  0.25789  1.0000
  H   H4637     1.0  0.64402  0.26461  0.39310  1.0000
  C   C3885     1.0  0.61556  0.42439  0.30624  1.0000
  C   C3886     1.0  0.62907  0.36118  0.29273  1.0000
  C   C3887     1.0  0.61868  0.33796  0.37126  1.0000
  C   C3888     1.0  0.66490  0.38691  0.36217  1.0000
  Fe  Fe525     1.0  0.55374  0.35291  0.35592  1.0000
  C   C3889     1.0  0.72769  0.24539  0.34032  1.0000
  H   H4638     1.0  0.64313  0.34839  0.28020  1.0000
  H   H4639     1.0  0.63177  0.31238  0.31027  1.0000
  H   H4640     1.0  0.63810  0.38555  0.36596  1.0000
  H   H4641     1.0  0.64781  0.38382  0.34941  1.0000
  H   H4642     1.0  0.66707  0.39156  0.35112  1.0000
  H   H4643     1.0  0.65766  0.39502  0.36726  1.0000
  C   C3890     1.0  0.61360  0.28384  0.36141  1.0000
  H   H4644     1.0  0.66968  0.37645  0.33796  1.0000
  C   C3891     1.0  0.49526  0.35588  0.35209  1.0000
  H   H4645     1.0  0.80309  0.29589  0.23876  1.0000
  C   C3892     1.0  0.50788  0.31602  0.34008  1.0000
  C   C3893     1.0  0.61847  0.28969  0.38070  1.0000
  C   C3894     1.0  0.51856  0.35720  0.35164  1.0000
  C   C3895     1.0  0.50656  0.32304  0.36049  1.0000
  H   H4646     1.0  0.68482  0.31120  0.44637  1.0000
  H   H4647     1.0  0.63262  0.25331  0.23124  1.0000
  C   C3896     1.0  0.59601  0.29788  0.37500  1.0000
  C   C3897     1.0  0.58739  0.28391  0.26079  1.0000
  C   C3898     1.0  0.74104  0.37958  0.23972  1.0000
  H   H4648     1.0  0.70761  0.24643  0.37996  1.0000
  C   C3899     1.0  0.68803  0.34422  0.34463  1.0000
  C   C3900     1.0  0.54955  0.30577  0.35533  1.0000
  H   H4649     1.0  0.62071  0.30025  0.40810  1.0000
  C   C3901     1.0  0.63549  0.34864  0.32890  1.0000
  H   H4650     1.0  0.66915  0.39864  0.43735  1.0000
  H   H4651     1.0  0.73794  0.25182  0.31315  1.0000
  H   H4652     1.0  0.67104  0.39214  0.45438  1.0000
  H   H4653     1.0  0.67210  0.41998  0.27317  1.0000
  H   H4654     1.0  0.60307  0.27787  0.23493  1.0000
  H   H4655     1.0  0.66495  0.37048  0.45669  1.0000
  C   C3902     1.0  0.64380  0.39717  0.44062  1.0000
  C   C3903     1.0  0.62896  0.27763  0.38191  1.0000
  H   H4656     1.0  0.77016  0.33332  0.23123  1.0000
  H   H4657     1.0  0.51617  0.35374  0.32108  1.0000
  C   C3904     1.0  0.52252  0.35608  0.33805  1.0000
  H   H4658     1.0  0.66322  0.47089  0.34396  1.0000
  H   H4659     1.0  0.62754  0.43933  0.29929  1.0000
  C   C3905     1.0  0.62790  0.33759  0.29479  1.0000
  H   H4660     1.0  0.65089  0.36112  0.38347  1.0000
  H   H4661     1.0  0.59319  0.30864  0.25116  1.0000
  H   H4662     1.0  0.63700  0.32175  0.33306  1.0000
  H   H4663     1.0  0.63653  0.39128  0.44049  1.0000
  C   C3906     1.0  0.62736  0.32609  0.27816  1.0000
  H   H4664     1.0  0.63206  0.27100  0.37481  1.0000
  H   H4665     1.0  0.60715  0.43070  0.31212  1.0000
  H   H4666     1.0  0.66486  0.30128  0.45703  1.0000
  H   H4667     1.0  0.63430  0.36949  0.28798  1.0000
  H   H4668     1.0  0.54599  0.29606  0.35927  1.0000
  C   C3907     1.0  0.62542  0.40324  0.29885  1.0000
  C   C3908     1.0  0.81520  0.27592  0.23645  1.0000
  H   H4669     1.0  0.60835  0.34317  0.37535  1.0000
  H   H4670     1.0  0.56137  0.29645  0.26099  1.0000
  C   C3909     1.0  0.61578  0.29778  0.39041  1.0000
  N   N258      1.0  0.58233  0.29455  0.24960  1.0000
  H   H4671     1.0  0.65670  0.39616  0.47378  1.0000
  C   C3910     1.0  0.65879  0.37618  0.44896  1.0000
  C   C3911     1.0  0.63427  0.34881  0.28856  1.0000
  C   C3912     1.0  0.63926  0.32114  0.37472  1.0000
  H   H4672     1.0  0.61788  0.31332  0.30264  1.0000
  C   C3913     1.0  0.62902  0.31293  0.30060  1.0000
  S   S1048     1.0  0.69542  0.39028  0.23923  1.0000
  H   H4673     1.0  0.63227  0.47152  0.36123  1.0000
  H   H4674     1.0  0.62685  0.30418  0.35621  1.0000
  C   C3914     1.0  0.61561  0.33984  0.30490  1.0000
  N   N259      1.0  0.74877  0.34225  0.23834  1.0000
  H   H4675     1.0  0.62451  0.28145  0.35594  1.0000
  C   C3915     1.0  0.64502  0.32416  0.36080  1.0000
  H   H4676     1.0  0.67468  0.38443  0.36559  1.0000
  H   H4677     1.0  0.65133  0.32696  0.32032  1.0000
  C   C3916     1.0  0.61553  0.30641  0.36019  1.0000
  H   H4678     1.0  0.63854  0.27897  0.40986  1.0000
  C   C3917     1.0  0.67870  0.31316  0.45615  1.0000
  H   H4679     1.0  0.61593  0.32832  0.28085  1.0000
  H   H4680     1.0  0.52527  0.32381  0.36425  1.0000
  H   H4681     1.0  0.65387  0.31635  0.33630  1.0000
  H   H4682     1.0  0.64780  0.37831  0.38510  1.0000
  C   C3918     1.0  0.66727  0.30743  0.46242  1.0000
  C   C3919     1.0  0.64832  0.32124  0.28587  1.0000
  C   C3920     1.0  0.62441  0.34126  0.35735  1.0000
  H   H4683     1.0  0.65596  0.35011  0.33921  1.0000
  C   C3921     1.0  0.66273  0.41589  0.27837  1.0000
  H   H4684     1.0  0.72436  0.23861  0.35017  1.0000
  C   C3922     1.0  0.68200  0.32171  0.46222  1.0000
  H   H4685     1.0  0.59014  0.30032  0.36694  1.0000
  C   C3923     1.0  0.62293  0.29391  0.40081  1.0000
  C   C3924     1.0  0.64754  0.43736  0.27229  1.0000
  H   H4686     1.0  0.65709  0.42452  0.30242  1.0000
  C   C3925     1.0  0.61455  0.41149  0.30611  1.0000
  H   H4687     1.0  0.63938  0.44594  0.27573  1.0000
  H   H4688     1.0  0.64370  0.43358  0.26545  1.0000
  H   H4689     1.0  0.72655  0.34708  0.24287  1.0000
  N   N260      1.0  0.74082  0.23868  0.33233  1.0000
  H   H4690     1.0  0.63777  0.40735  0.44244  1.0000
  C   C3926     1.0  0.67311  0.46138  0.36066  1.0000
  H   H4691     1.0  0.72859  0.25471  0.34283  1.0000
  H   H4692     1.0  0.71936  0.24863  0.33462  1.0000
  H   H4693     1.0  0.82864  0.23577  0.24997  1.0000
  H   H4694     1.0  0.68326  0.45466  0.37728  1.0000
  S   S1049     1.0  0.68914  0.23738  0.37004  1.0000
  H   H4695     1.0  0.69077  0.32627  0.45725  1.0000
  H   H4696     1.0  0.73320  0.38666  0.24517  1.0000
  C   C3927     1.0  0.88096  0.23508  0.23154  1.0000
  H   H4697     1.0  0.66575  0.37612  0.43873  1.0000
  C   C3928     1.0  0.49931  0.35450  0.33856  1.0000
  H   H4698     1.0  0.63337  0.32041  0.47143  1.0000
  H   H4699     1.0  0.84133  0.26199  0.23970  1.0000
  H   H4700     1.0  0.75866  0.32298  0.23246  1.0000
  H   H4701     1.0  0.60257  0.29816  0.23935  1.0000
  C   C3929     1.0  0.50009  0.32063  0.35174  1.0000
  H   H4702     1.0  0.82194  0.25180  0.25449  1.0000
  H   H4703     1.0  0.64089  0.30688  0.46250  1.0000
  H   H4704     1.0  0.84925  0.24521  0.23699  1.0000
  H   H4705     1.0  0.50163  0.35825  0.36905  1.0000
  H   H4706     1.0  0.58867  0.31181  0.23503  1.0000
  H   H4707     1.0  0.62731  0.30497  0.47727  1.0000
  H   H4708     1.0  0.73420  0.33124  0.23805  1.0000
  C   C3930     1.0  0.73549  0.34185  0.23602  1.0000
  H   H4709     1.0  0.65482  0.28575  0.47297  1.0000
  H   H4710     1.0  0.68639  0.47715  0.37634  1.0000
  C   C3931     1.0  0.84244  0.25492  0.23310  1.0000
  H   H4711     1.0  0.67630  0.33143  0.47917  1.0000
  C   C3932     1.0  0.68314  0.35881  0.61671  1.0000
  Fe  Fe526     1.0  0.65051  0.36265  0.53706  1.0000
  S   S1050     1.0  0.64783  0.34279  0.55137  1.0000
  S   S1051     1.0  0.65790  0.36367  0.51419  1.0000
  Fe  Fe527     1.0  0.64074  0.37816  0.56022  1.0000
  S   S1052     1.0  0.63686  0.35952  0.57589  1.0000
  S   S1053     1.0  0.63296  0.39705  0.56909  1.0000
  Fe  Fe528     1.0  0.65712  0.34902  0.56498  1.0000
  S   S1054     1.0  0.66953  0.33345  0.57920  1.0000
  Fe  Fe529     1.0  0.62799  0.35504  0.56107  1.0000
  S   S1055     1.0  0.60894  0.34680  0.56766  1.0000
  S   S1056     1.0  0.66172  0.36800  0.54994  1.0000
  S   S1057     1.0  0.62992  0.37460  0.54609  1.0000
  Fe  Fe530     1.0  0.57368  0.34950  0.63876  1.0000
  S   S1058     1.0  0.56689  0.36894  0.62450  1.0000
  S   S1059     1.0  0.58733  0.33129  0.63101  1.0000
  Fe  Fe531     1.0  0.55780  0.36036  0.66356  1.0000
  S   S1060     1.0  0.54968  0.38087  0.65134  1.0000
  S   S1061     1.0  0.55050  0.35693  0.68624  1.0000
  Fe  Fe532     1.0  0.54592  0.36911  0.63825  1.0000
  S   S1062     1.0  0.52678  0.37615  0.62939  1.0000
  Fe  Fe533     1.0  0.57127  0.37874  0.63888  1.0000
  S   S1063     1.0  0.58295  0.39546  0.62932  1.0000
  S   S1064     1.0  0.55245  0.34876  0.65144  1.0000
  S   S1065     1.0  0.57969  0.35917  0.65211  1.0000
  S   S1066     1.0  0.66808  0.43790  0.62457  1.0000
  Fe  Fe534     1.0  0.63765  0.42130  0.64579  1.0000
  S   S1067     1.0  0.65783  0.40935  0.63639  1.0000
  S   S1068     1.0  0.62222  0.40851  0.65827  1.0000
  Fe  Fe535     1.0  0.66732  0.42179  0.64379  1.0000
  S   S1069     1.0  0.68699  0.41018  0.65038  1.0000
  Fe  Fe536     1.0  0.65690  0.42617  0.61801  1.0000
  S   S1070     1.0  0.66550  0.41971  0.59777  1.0000
  S   S1071     1.0  0.64720  0.43246  0.65497  1.0000
  S   S1072     1.0  0.63602  0.43763  0.62689  1.0000
  C   C3933     1.0  0.74087  0.28240  0.60212  1.0000
  Fe  Fe537     1.0  0.63452  0.31392  0.69690  1.0000
  S   S1073     1.0  0.64192  0.31454  0.67449  1.0000
  S   S1074     1.0  0.62219  0.33228  0.70525  1.0000
  Fe  Fe538     1.0  0.71443  0.34983  0.72337  1.0000
  H   H4712     1.0  0.76855  0.35050  0.71912  1.0000
  Fe  Fe539     1.0  0.71203  0.38037  0.71437  1.0000
  S   S1075     1.0  0.73335  0.37910  0.71622  1.0000
  S   S1076     1.0  0.69725  0.40041  0.70921  1.0000
  Fe  Fe540     1.0  0.73908  0.36113  0.70639  1.0000
  S   S1077     1.0  0.75858  0.35731  0.69055  1.0000
  C   C3934     1.0  0.71898  0.41449  0.72555  1.0000
  H   H4713     1.0  0.56699  0.30813  0.71115  1.0000
  S   S1078     1.0  0.71824  0.36368  0.70287  1.0000
  C   C3935     1.0  0.75289  0.29532  0.58203  1.0000
  Fe  Fe541     1.0  0.81626  0.24403  0.62230  1.0000
  C   C3936     1.0  0.59584  0.43222  0.59156  1.0000
  S   S1079     1.0  0.80534  0.26516  0.61344  1.0000
  Fe  Fe542     1.0  0.61015  0.31778  0.72020  1.0000
  C   C3937     1.0  0.69887  0.40887  0.61161  1.0000
  C   C3938     1.0  0.59249  0.41965  0.59387  1.0000
  Fe  Fe543     1.0  0.72326  0.33795  0.61392  1.0000
  S   S1080     1.0  0.71321  0.32194  0.62902  1.0000
  S   S1081     1.0  0.71838  0.34788  0.59331  1.0000
  Fe  Fe544     1.0  0.74057  0.33828  0.63298  1.0000
  S   S1082     1.0  0.73184  0.32234  0.64951  1.0000
  S   S1083     1.0  0.75800  0.34605  0.63441  1.0000
  Fe  Fe545     1.0  0.73439  0.31192  0.63266  1.0000
  S   S1084     1.0  0.74212  0.28917  0.63505  1.0000
  Fe  Fe546     1.0  0.71176  0.33395  0.64416  1.0000
  S   S1085     1.0  0.69316  0.34067  0.65974  1.0000
  S   S1086     1.0  0.74458  0.32711  0.61639  1.0000
  S   S1087     1.0  0.72031  0.35079  0.62885  1.0000
  C   C3939     1.0  0.78791  0.27162  0.62023  1.0000
  C   C3940     1.0  0.78259  0.28567  0.61700  1.0000
  C   C3941     1.0  0.76865  0.29117  0.62177  1.0000
  C   C3942     1.0  0.75983  0.28262  0.62957  1.0000
  C   C3943     1.0  0.76515  0.26856  0.63289  1.0000
  C   C3944     1.0  0.77919  0.26307  0.62835  1.0000
  H   H4714     1.0  0.78932  0.29232  0.61075  1.0000
  H   H4715     1.0  0.76477  0.30201  0.61927  1.0000
  H   H4716     1.0  0.75840  0.26188  0.63897  1.0000
  H   H4717     1.0  0.78321  0.25222  0.63087  1.0000
  C   C3945     1.0  0.75763  0.35458  0.67501  1.0000
  C   C3946     1.0  0.76943  0.35404  0.66453  1.0000
  C   C3947     1.0  0.76931  0.35158  0.65212  1.0000
  C   C3948     1.0  0.75745  0.34940  0.65011  1.0000
  C   C3949     1.0  0.74560  0.34983  0.66057  1.0000
  C   C3950     1.0  0.74566  0.35255  0.67297  1.0000
  H   H4718     1.0  0.77871  0.35559  0.66600  1.0000
  H   H4719     1.0  0.77848  0.35128  0.64407  1.0000
  H   H4720     1.0  0.73640  0.34809  0.65910  1.0000
  H   H4721     1.0  0.73657  0.35269  0.68103  1.0000
  C   C3951     1.0  0.70525  0.30839  0.57351  1.0000
  H   H4722     1.0  0.57829  0.36781  0.68281  1.0000
  H   H4723     1.0  0.71952  0.42537  0.72283  1.0000
  C   C3952     1.0  0.65647  0.32132  0.67004  1.0000
  C   C3953     1.0  0.66727  0.31833  0.65905  1.0000
  C   C3954     1.0  0.67891  0.32386  0.65593  1.0000
  C   C3955     1.0  0.67956  0.33248  0.66371  1.0000
  C   C3956     1.0  0.66864  0.33553  0.67448  1.0000
  C   C3957     1.0  0.65719  0.32994  0.67770  1.0000
  H   H4724     1.0  0.66674  0.31158  0.65315  1.0000
  H   H4725     1.0  0.68726  0.32151  0.64753  1.0000
  H   H4726     1.0  0.66895  0.34226  0.68039  1.0000
  H   H4727     1.0  0.64887  0.33241  0.68610  1.0000
  H   H4728     1.0  0.63293  0.37833  0.63809  1.0000
  C   C3958     1.0  0.59051  0.28370  0.72717  1.0000
  H   H4729     1.0  0.75384  0.28822  0.57549  1.0000
  H   H4730     1.0  0.68227  0.39089  0.62136  1.0000
  H   H4731     1.0  0.66830  0.36081  0.65538  1.0000
  H   H4732     1.0  0.73296  0.38776  0.64081  1.0000
  H   H4733     1.0  0.77932  0.28670  0.67666  1.0000
  C   C3959     1.0  0.69014  0.40915  0.66630  1.0000
  C   C3960     1.0  0.70248  0.40087  0.66940  1.0000
  C   C3961     1.0  0.70487  0.39847  0.68244  1.0000
  C   C3962     1.0  0.69502  0.40455  0.69242  1.0000
  C   C3963     1.0  0.68291  0.41334  0.68917  1.0000
  C   C3964     1.0  0.68038  0.41551  0.67616  1.0000
  H   H4734     1.0  0.71010  0.39595  0.66181  1.0000
  H   H4735     1.0  0.71431  0.39183  0.68478  1.0000
  H   H4736     1.0  0.67524  0.41807  0.69686  1.0000
  H   H4737     1.0  0.67084  0.42193  0.67383  1.0000
  C   C3965     1.0  0.51546  0.36607  0.62982  1.0000
  C   C3966     1.0  0.51777  0.35212  0.63551  1.0000
  C   C3967     1.0  0.60291  0.41851  0.57037  1.0000
  C   C3968     1.0  0.74251  0.37895  0.62333  1.0000
  H   H4738     1.0  0.52647  0.34727  0.64013  1.0000
  C   C3969     1.0  0.71470  0.31652  0.57029  1.0000
  C   C3970     1.0  0.57590  0.29991  0.71236  1.0000
  C   C3971     1.0  0.59427  0.39847  0.63736  1.0000
  C   C3972     1.0  0.59487  0.39211  0.65084  1.0000
  C   C3973     1.0  0.60361  0.39521  0.65707  1.0000
  C   C3974     1.0  0.61180  0.40460  0.64989  1.0000
  C   C3975     1.0  0.61161  0.41053  0.63627  1.0000
  C   C3976     1.0  0.60282  0.40752  0.63006  1.0000
  H   H4739     1.0  0.58839  0.38505  0.65650  1.0000
  H   H4740     1.0  0.60404  0.39044  0.66749  1.0000
  H   H4741     1.0  0.61799  0.41768  0.63060  1.0000
  H   H4742     1.0  0.60255  0.41240  0.61960  1.0000
  C   C3977     1.0  0.56082  0.34560  0.69707  1.0000
  C   C3978     1.0  0.57465  0.33975  0.69231  1.0000
  C   C3979     1.0  0.58296  0.33237  0.70163  1.0000
  C   C3980     1.0  0.57731  0.33070  0.71564  1.0000
  C   C3981     1.0  0.56334  0.33583  0.72027  1.0000
  C   C3982     1.0  0.55515  0.34332  0.71103  1.0000
  H   H4743     1.0  0.57905  0.34133  0.68151  1.0000
  H   H4744     1.0  0.59374  0.32819  0.69802  1.0000
  H   H4745     1.0  0.62685  0.38366  0.68563  1.0000
  H   H4746     1.0  0.54446  0.34772  0.71476  1.0000
  C   C3983     1.0  0.64230  0.40238  0.57759  1.0000
  C   C3984     1.0  0.65627  0.40215  0.57251  1.0000
  C   C3985     1.0  0.66312  0.40782  0.57862  1.0000
  C   C3986     1.0  0.65621  0.41325  0.59019  1.0000
  C   C3987     1.0  0.64231  0.41315  0.59551  1.0000
  C   C3988     1.0  0.63532  0.40797  0.58906  1.0000
  H   H4747     1.0  0.66168  0.39808  0.56356  1.0000
  H   H4748     1.0  0.67386  0.40789  0.57442  1.0000
  H   H4749     1.0  0.63687  0.41739  0.60436  1.0000
  H   H4750     1.0  0.62445  0.40842  0.59290  1.0000
  C   C3989     1.0  0.60407  0.34222  0.58537  1.0000
  C   C3990     1.0  0.60092  0.32952  0.59151  1.0000
  C   C3991     1.0  0.59635  0.32601  0.60564  1.0000
  C   C3992     1.0  0.59431  0.33543  0.61357  1.0000
  C   C3993     1.0  0.59754  0.34813  0.60747  1.0000
  C   C3994     1.0  0.60269  0.35141  0.59337  1.0000
  H   H4751     1.0  0.60209  0.32237  0.58532  1.0000
  H   H4752     1.0  0.59398  0.31614  0.61036  1.0000
  H   H4753     1.0  0.59624  0.35533  0.61363  1.0000
  H   H4754     1.0  0.60536  0.36109  0.58859  1.0000
  C   C3995     1.0  0.68293  0.33781  0.58303  1.0000
  C   C3996     1.0  0.68857  0.34880  0.57496  1.0000
  C   C3997     1.0  0.69970  0.35159  0.57797  1.0000
  C   C3998     1.0  0.70499  0.34364  0.58926  1.0000
  C   C3999     1.0  0.69931  0.33267  0.59731  1.0000
  C   C4000     1.0  0.68836  0.32974  0.59417  1.0000
  H   H4755     1.0  0.68453  0.35500  0.56626  1.0000
  H   H4756     1.0  0.70408  0.36006  0.57165  1.0000
  H   H4757     1.0  0.70347  0.32626  0.60579  1.0000
  H   H4758     1.0  0.68423  0.32106  0.60029  1.0000
  C   C4001     1.0  0.63565  0.34964  0.48997  1.0000
  C   C4002     1.0  0.65505  0.35744  0.49137  1.0000
  C   C4003     1.0  0.64946  0.35767  0.50521  1.0000
  C   C4004     1.0  0.63709  0.35354  0.51144  1.0000
  C   C4005     1.0  0.63025  0.34955  0.50386  1.0000
  H   H4759     1.0  0.63268  0.35363  0.52208  1.0000
  H   H4760     1.0  0.62058  0.34659  0.50877  1.0000
  C   C4006     1.0  0.63924  0.37883  0.64481  1.0000
  H   H4761     1.0  0.64168  0.38905  0.64172  1.0000
  H   H4762     1.0  0.63253  0.37826  0.65521  1.0000
  C   C4007     1.0  0.78681  0.35377  0.72233  1.0000
  H   H4763     1.0  0.60358  0.28214  0.69355  1.0000
  C   C4008     1.0  0.77376  0.35101  0.72654  1.0000
  C   C4009     1.0  0.58624  0.36785  0.68803  1.0000
  H   H4764     1.0  0.75239  0.37517  0.62608  1.0000
  H   H4765     1.0  0.56486  0.37686  0.71675  1.0000
  H   H4766     1.0  0.58285  0.30038  0.69096  1.0000
  C   C4010     1.0  0.65886  0.36884  0.65458  1.0000
  C   C4011     1.0  0.67862  0.34632  0.72971  1.0000
  C   C4012     1.0  0.73155  0.38605  0.63161  1.0000
  H   H4767     1.0  0.60749  0.39112  0.56923  1.0000
  H   H4768     1.0  0.57175  0.40669  0.58677  1.0000
  H   H4769     1.0  0.76149  0.31791  0.64681  1.0000
  H   H4770     1.0  0.70463  0.37998  0.60038  1.0000
  H   H4771     1.0  0.69126  0.39049  0.63367  1.0000
  H   H4772     1.0  0.64249  0.37606  0.59906  1.0000
  C   C4013     1.0  0.67987  0.36851  0.60538  1.0000
  S   S1088     1.0  0.58733  0.32282  0.72776  1.0000
  H   H4773     1.0  0.66220  0.46652  0.64794  1.0000
  C   C4014     1.0  0.59147  0.37579  0.70513  1.0000
  C   C4015     1.0  0.60176  0.38916  0.59575  1.0000
  H   H4774     1.0  0.56050  0.37170  0.70376  1.0000
  C   C4016     1.0  0.72591  0.31239  0.57644  1.0000
  H   H4775     1.0  0.79170  0.35535  0.71160  1.0000
  H   H4776     1.0  0.87687  0.31469  0.72438  1.0000
  H   H4777     1.0  0.50918  0.37391  0.66301  1.0000
  C   C4017     1.0  0.72805  0.29986  0.58599  1.0000
  H   H4778     1.0  0.72983  0.32198  0.70294  1.0000
  H   H4779     1.0  0.69635  0.31186  0.56900  1.0000
  H   H4780     1.0  0.76940  0.31980  0.67623  1.0000
  C   C4018     1.0  0.56907  0.37109  0.70848  1.0000
  S   S1089     1.0  0.73589  0.34603  0.72616  1.0000
  H   H4781     1.0  0.64241  0.28372  0.48850  1.0000
  H   H4782     1.0  0.57007  0.39724  0.69856  1.0000
  H   H4783     1.0  0.74198  0.27410  0.59693  1.0000
  C   C4019     1.0  0.72793  0.38117  0.60812  1.0000
  C   C4020     1.0  0.63938  0.39126  0.48864  1.0000
  H   H4784     1.0  0.59036  0.35710  0.69261  1.0000
  H   H4785     1.0  0.75522  0.29569  0.65320  1.0000
  C   C4021     1.0  0.65782  0.47732  0.64567  1.0000
  H   H4786     1.0  0.57575  0.40129  0.60327  1.0000
  H   H4787     1.0  0.65872  0.47515  0.60139  1.0000
  H   H4788     1.0  0.75370  0.30544  0.57531  1.0000
  H   H4789     1.0  0.64032  0.35373  0.65908  1.0000
  H   H4790     1.0  0.78917  0.28979  0.65945  1.0000
  C   C4022     1.0  0.73875  0.30606  0.60035  1.0000
  C   C4023     1.0  0.69257  0.38762  0.62387  1.0000
  H   H4791     1.0  0.71060  0.39624  0.63495  1.0000
  C   C4024     1.0  0.65999  0.33834  0.72675  1.0000
  C   C4025     1.0  0.60782  0.36241  0.71940  1.0000
  C   C4026     1.0  0.74069  0.37642  0.61168  1.0000
  H   H4792     1.0  0.59326  0.43746  0.59982  1.0000
  H   H4793     1.0  0.77272  0.28701  0.64963  1.0000
  C   C4027     1.0  0.70700  0.29606  0.58286  1.0000
  H   H4794     1.0  0.73881  0.31642  0.59388  1.0000
  H   H4795     1.0  0.72907  0.30678  0.60830  1.0000
  H   H4796     1.0  0.58739  0.41557  0.60407  1.0000
  H   H4797     1.0  0.76225  0.28234  0.66611  1.0000
  H   H4798     1.0  0.60565  0.44747  0.57705  1.0000
  C   C4028     1.0  0.60627  0.43106  0.56818  1.0000
  C   C4029     1.0  0.59669  0.38731  0.70400  1.0000
  C   C4030     1.0  0.68786  0.33430  0.72698  1.0000
  H   H4799     1.0  0.64276  0.39325  0.49666  1.0000
  H   H4800     1.0  0.60638  0.41360  0.56184  1.0000
  N   N261      1.0  0.55255  0.34524  0.60241  1.0000
  C   C4031     1.0  0.53789  0.34656  0.60268  1.0000
  C   C4032     1.0  0.56025  0.33200  0.59883  1.0000
  C   C4033     1.0  0.55384  0.34475  0.61624  1.0000
  C   C4034     1.0  0.55752  0.35707  0.59286  1.0000
  C   C4035     1.0  0.56931  0.35572  0.58202  1.0000
  C   C4036     1.0  0.55055  0.37050  0.59430  1.0000
  C   C4037     1.0  0.57342  0.36714  0.57294  1.0000
  C   C4038     1.0  0.55469  0.38184  0.58512  1.0000
  C   C4039     1.0  0.56603  0.38016  0.57437  1.0000
  H   H4801     1.0  0.53641  0.34752  0.59234  1.0000
  H   H4802     1.0  0.53389  0.33768  0.60954  1.0000
  H   H4803     1.0  0.53109  0.35559  0.60652  1.0000
  H   H4804     1.0  0.57120  0.32988  0.59936  1.0000
  H   H4805     1.0  0.55980  0.33171  0.58845  1.0000
  H   H4806     1.0  0.55607  0.32337  0.60601  1.0000
  H   H4807     1.0  0.54751  0.35394  0.62008  1.0000
  H   H4808     1.0  0.55048  0.33586  0.62377  1.0000
  H   H4809     1.0  0.56467  0.34402  0.61639  1.0000
  H   H4810     1.0  0.57562  0.34598  0.58029  1.0000
  H   H4811     1.0  0.54177  0.37235  0.60254  1.0000
  H   H4812     1.0  0.58242  0.36581  0.56471  1.0000
  H   H4813     1.0  0.54899  0.39197  0.58636  1.0000
  H   H4814     1.0  0.56913  0.38895  0.56715  1.0000
  N   N262      1.0  0.68051  0.36870  0.68733  1.0000
  C   C4040     1.0  0.68573  0.35408  0.69289  1.0000
  C   C4041     1.0  0.68950  0.37211  0.67369  1.0000
  C   C4042     1.0  0.68197  0.37658  0.69637  1.0000
  C   C4043     1.0  0.66593  0.37230  0.68646  1.0000
  C   C4044     1.0  0.66011  0.38557  0.67980  1.0000
  C   C4045     1.0  0.64619  0.38955  0.67957  1.0000
  H   H4815     1.0  0.68538  0.34753  0.68638  1.0000
  H   H4816     1.0  0.69663  0.35190  0.69367  1.0000
  H   H4817     1.0  0.67998  0.35064  0.70328  1.0000
  H   H4818     1.0  0.68753  0.38310  0.66914  1.0000
  H   H4819     1.0  0.68814  0.36680  0.66650  1.0000
  H   H4820     1.0  0.69280  0.37504  0.69682  1.0000
  H   H4821     1.0  0.67821  0.38766  0.69289  1.0000
  H   H4822     1.0  0.67603  0.37362  0.70694  1.0000
  H   H4823     1.0  0.66617  0.39318  0.67504  1.0000
  H   H4824     1.0  0.64203  0.39979  0.67453  1.0000
  C   C4046     1.0  0.66470  0.34831  0.72962  1.0000
  H   H4825     1.0  0.59050  0.39955  0.56649  1.0000
  H   H4826     1.0  0.70664  0.41396  0.60381  1.0000
  H   H4827     1.0  0.64221  0.35356  0.64152  1.0000
  C   C4047     1.0  0.71655  0.38864  0.61627  1.0000
  S   S1090     1.0  0.62123  0.29994  0.71066  1.0000
  H   H4828     1.0  0.59380  0.38264  0.57668  1.0000
  H   H4829     1.0  0.87051  0.28043  0.71458  1.0000
  H   H4830     1.0  0.74919  0.37048  0.60554  1.0000
  C   C4048     1.0  0.63761  0.38051  0.68597  1.0000
  H   H4831     1.0  0.69192  0.39541  0.59763  1.0000
  C   C4049     1.0  0.67402  0.35866  0.62934  1.0000
  H   H4832     1.0  0.71884  0.28220  0.59631  1.0000
  H   H4833     1.0  0.68883  0.41329  0.60865  1.0000
  C   C4050     1.0  0.60279  0.43787  0.57875  1.0000
  N   N263      1.0  0.73989  0.29586  0.59253  1.0000
  H   H4834     1.0  0.72722  0.37864  0.59907  1.0000
  H   H4835     1.0  0.57598  0.38890  0.59470  1.0000
  H   H4836     1.0  0.73270  0.31928  0.57388  1.0000
  C   C4051     1.0  0.70231  0.39110  0.59995  1.0000
  C   C4052     1.0  0.59635  0.39279  0.57413  1.0000
  C   C4053     1.0  0.64746  0.35471  0.64889  1.0000
  H   H4837     1.0  0.69948  0.28988  0.58545  1.0000
  S   S1091     1.0  0.64060  0.47118  0.63312  1.0000
  C   C4054     1.0  0.60706  0.38631  0.71054  1.0000
  C   C4055     1.0  0.62477  0.37518  0.61555  1.0000
  H   H4838     1.0  0.59895  0.37911  0.59955  1.0000
  C   C4056     1.0  0.65848  0.37830  0.61932  1.0000
  N   N264      1.0  0.65185  0.36782  0.64453  1.0000
  H   H4839     1.0  0.74995  0.27972  0.60677  1.0000
  Fe  Fe547     1.0  0.63628  0.32544  0.71977  1.0000
  H   H4840     1.0  0.61092  0.39521  0.70954  1.0000
  H   H4841     1.0  0.66012  0.35335  0.69891  1.0000
  H   H4842     1.0  0.69767  0.41190  0.62130  1.0000
  C   C4057     1.0  0.63652  0.36950  0.60692  1.0000
  H   H4843     1.0  0.67243  0.47692  0.61622  1.0000
  N   N265      1.0  0.63699  0.33169  0.61880  1.0000
  C   C4058     1.0  0.65138  0.32669  0.62049  1.0000
  C   C4059     1.0  0.62837  0.32377  0.63031  1.0000
  C   C4060     1.0  0.63619  0.32871  0.60607  1.0000
  C   C4061     1.0  0.63268  0.34655  0.61796  1.0000
  C   C4062     1.0  0.64052  0.35542  0.60815  1.0000
  C   C4063     1.0  0.62054  0.35271  0.62641  1.0000
  C   C4064     1.0  0.61676  0.36681  0.62522  1.0000
  H   H4844     1.0  0.65264  0.32947  0.62950  1.0000
  H   H4845     1.0  0.65470  0.31543  0.62188  1.0000
  H   H4846     1.0  0.65884  0.33079  0.61144  1.0000
  H   H4847     1.0  0.62846  0.32556  0.64026  1.0000
  H   H4848     1.0  0.63208  0.31262  0.63088  1.0000
  H   H4849     1.0  0.61755  0.32623  0.62921  1.0000
  H   H4850     1.0  0.62562  0.33251  0.60425  1.0000
  H   H4851     1.0  0.64312  0.33354  0.59701  1.0000
  H   H4852     1.0  0.63920  0.31762  0.60627  1.0000
  H   H4853     1.0  0.64966  0.35154  0.60107  1.0000
  H   H4854     1.0  0.61367  0.34688  0.63391  1.0000
  H   H4855     1.0  0.60740  0.37130  0.63169  1.0000
  H   H4856     1.0  0.76203  0.29182  0.58668  1.0000
  H   H4857     1.0  0.68688  0.36861  0.59555  1.0000
  H   H4858     1.0  0.65219  0.36770  0.66494  1.0000
  H   H4859     1.0  0.64922  0.38622  0.61954  1.0000
  H   H4860     1.0  0.71311  0.41330  0.71871  1.0000
  C   C4065     1.0  0.50868  0.34445  0.63536  1.0000
  H   H4861     1.0  0.74739  0.30330  0.60557  1.0000
  N   N266      1.0  0.59324  0.39857  0.58638  1.0000
  H   H4862     1.0  0.72468  0.30623  0.69234  1.0000
  C   C4066     1.0  0.62341  0.38318  0.48180  1.0000
  Fe  Fe548     1.0  0.64730  0.44807  0.63521  1.0000
  N   N267      1.0  0.58056  0.37638  0.69833  1.0000
  C   C4067     1.0  0.57466  0.39030  0.69133  1.0000
  H   H4863     1.0  0.58247  0.39475  0.68296  1.0000
  H   H4864     1.0  0.57221  0.36022  0.71331  1.0000
  H   H4865     1.0  0.73181  0.28233  0.61084  1.0000
  H   H4866     1.0  0.86909  0.30516  0.71005  1.0000
  C   C4068     1.0  0.57866  0.29410  0.72527  1.0000
  H   H4867     1.0  0.51051  0.33369  0.63986  1.0000
  C   C4069     1.0  0.66140  0.36841  0.63106  1.0000
  H   H4868     1.0  0.71307  0.32630  0.56331  1.0000
  C   C4070     1.0  0.50401  0.37220  0.62395  1.0000
  H   H4869     1.0  0.69562  0.37634  0.62565  1.0000
  C   C4071     1.0  0.64290  0.36750  0.69281  1.0000
  C   C4072     1.0  0.62742  0.38650  0.49184  1.0000
  H   H4870     1.0  0.63093  0.30151  0.49991  1.0000
  S   S1092     1.0  0.64972  0.30821  0.71014  1.0000
  H   H4871     1.0  0.56636  0.39031  0.68654  1.0000
  H   H4872     1.0  0.78565  0.30201  0.66954  1.0000
  H   H4873     1.0  0.59485  0.37148  0.68017  1.0000
  C   C4073     1.0  0.66758  0.37815  0.60668  1.0000
  H   H4874     1.0  0.72948  0.40810  0.72295  1.0000
  H   H4875     1.0  0.60064  0.39316  0.60482  1.0000
  H   H4876     1.0  0.69276  0.35132  0.61569  1.0000
  C   C4074     1.0  0.63977  0.30652  0.49523  1.0000
  C   C4075     1.0  0.59605  0.41231  0.58339  1.0000
  H   H4877     1.0  0.64687  0.30282  0.50231  1.0000
  C   C4076     1.0  0.71821  0.29178  0.58905  1.0000
  H   H4878     1.0  0.70056  0.36909  0.67407  1.0000
  N   N268      1.0  0.70288  0.39391  0.61288  1.0000
  H   H4879     1.0  0.62175  0.38612  0.61459  1.0000
  H   H4880     1.0  0.67108  0.48253  0.65504  1.0000
  H   H4881     1.0  0.70962  0.39581  0.59117  1.0000
  H   H4882     1.0  0.50218  0.38296  0.61944  1.0000
  H   H4883     1.0  0.66506  0.38550  0.59779  1.0000
  H   H4884     1.0  0.61285  0.38748  0.59073  1.0000
  C   C4077     1.0  0.71876  0.39083  0.62817  1.0000
  H   H4885     1.0  0.59299  0.39722  0.69810  1.0000
  H   H4886     1.0  0.66462  0.36059  0.48647  1.0000
  C   C4078     1.0  0.87336  0.29848  0.71847  1.0000
  H   H4887     1.0  0.66183  0.37880  0.65193  1.0000
  H   H4888     1.0  0.75226  0.32852  0.69484  1.0000
  H   H4889     1.0  0.74148  0.29669  0.67420  1.0000
  H   H4890     1.0  0.61198  0.43532  0.55830  1.0000
  H   H4891     1.0  0.63620  0.36049  0.69807  1.0000
  C   C4079     1.0  0.61262  0.37389  0.71819  1.0000
  C   C4080     1.0  0.65682  0.36344  0.69317  1.0000
  C   C4081     1.0  0.64820  0.35342  0.48379  1.0000
  C   C4082     1.0  0.59745  0.36328  0.71297  1.0000
  C   C4083     1.0  0.59934  0.27937  0.71534  1.0000
  C   C4084     1.0  0.57855  0.39893  0.59301  1.0000
  H   H4892     1.0  0.67699  0.35077  0.63775  1.0000
  H   H4893     1.0  0.65626  0.34590  0.64972  1.0000
  N   N269      1.0  0.76821  0.30138  0.66250  1.0000
  C   C4085     1.0  0.77095  0.31259  0.65064  1.0000
  C   C4086     1.0  0.78112  0.29470  0.66727  1.0000
  C   C4087     1.0  0.76438  0.29117  0.65773  1.0000
  C   C4088     1.0  0.75751  0.30693  0.67353  1.0000
  C   C4089     1.0  0.75995  0.31624  0.67969  1.0000
  C   C4090     1.0  0.74446  0.30343  0.67842  1.0000
  C   C4091     1.0  0.75015  0.32139  0.69031  1.0000
  C   C4092     1.0  0.73464  0.30886  0.68888  1.0000
  C   C4093     1.0  0.73750  0.31777  0.69486  1.0000
  H   H4894     1.0  0.77463  0.32042  0.65307  1.0000
  H   H4895     1.0  0.77883  0.30885  0.64202  1.0000
  C   C4094     1.0  0.59652  0.28532  0.70247  1.0000
  S   S1093     1.0  0.62627  0.34504  0.48084  1.0000
  H   H4896     1.0  0.59422  0.35399  0.71416  1.0000
  H   H4897     1.0  0.62154  0.38487  0.50224  1.0000
  C   C4095     1.0  0.87417  0.28455  0.72096  1.0000
  C   C4096     1.0  0.65109  0.28878  0.48296  1.0000
  C   C4097     1.0  0.58486  0.29560  0.70098  1.0000
  S   S1094     1.0  0.83908  0.24094  0.61965  1.0000
  H   H4898     1.0  0.49659  0.29484  0.62878  1.0000
  C   C4098     1.0  0.87791  0.30382  0.72682  1.0000
  H   H4899     1.0  0.65947  0.28443  0.48861  1.0000
  C   C4099     1.0  0.49490  0.36452  0.62383  1.0000
  C   C4100     1.0  0.68304  0.32419  0.72453  1.0000
  H   H4900     1.0  0.69013  0.31487  0.72246  1.0000
  H   H4901     1.0  0.66567  0.31844  0.72222  1.0000
  C   C4101     1.0  0.64712  0.48217  0.63876  1.0000
  C   C4102     1.0  0.49716  0.35060  0.62959  1.0000
  S   S1095     1.0  0.70555  0.33178  0.72589  1.0000
  H   H4902     1.0  0.80357  0.35679  0.72806  1.0000
  Fe  Fe549     1.0  0.63529  0.29569  0.72476  1.0000
  C   C4103     1.0  0.66917  0.32622  0.72436  1.0000
  H   H4903     1.0  0.50181  0.35324  0.66388  1.0000
  H   H4904     1.0  0.61227  0.35274  0.72532  1.0000
  S   S1096     1.0  0.64278  0.34155  0.72551  1.0000
  H   H4905     1.0  0.62079  0.37306  0.72311  1.0000
  H   H4906     1.0  0.60872  0.27169  0.71568  1.0000
  H   H4907     1.0  0.63537  0.31759  0.49478  1.0000
  H   H4908     1.0  0.61441  0.37890  0.48445  1.0000
  H   H4909     1.0  0.65643  0.32183  0.49031  1.0000
  C   C4104     1.0  0.49907  0.37473  0.66148  1.0000
  C   C4105     1.0  0.49491  0.36309  0.66193  1.0000
  N   N270      1.0  0.64681  0.30376  0.48152  1.0000
  C   C4106     1.0  0.66242  0.31889  0.48093  1.0000
  S   S1097     1.0  0.61301  0.24986  0.79389  1.0000
  H   H4910     1.0  0.64577  0.24681  0.75034  1.0000
  Fe  Fe550     1.0  0.77872  0.38512  0.78832  1.0000
  S   S1098     1.0  0.80121  0.37560  0.78669  1.0000
  S   S1099     1.0  0.77106  0.39356  0.76871  1.0000
  Fe  Fe551     1.0  0.77255  0.37699  0.81904  1.0000
  S   S1100     1.0  0.79409  0.36594  0.81992  1.0000
  S   S1101     1.0  0.75578  0.38008  0.83746  1.0000
  Fe  Fe552     1.0  0.79977  0.38425  0.80459  1.0000
  S   S1102     1.0  0.81771  0.38925  0.80900  1.0000
  Fe  Fe553     1.0  0.79391  0.35823  0.80214  1.0000
  S   S1103     1.0  0.80239  0.33642  0.80043  1.0000
  S   S1104     1.0  0.77804  0.39584  0.80457  1.0000
  S   S1105     1.0  0.77156  0.36718  0.80298  1.0000
  Fe  Fe554     1.0  0.90035  0.29083  0.80934  1.0000
  S   S1106     1.0  0.89987  0.29558  0.78718  1.0000
  S   S1107     1.0  0.91674  0.29302  0.81840  1.0000
  Fe  Fe555     1.0  0.87474  0.27972  0.81806  1.0000
  S   S1108     1.0  0.87137  0.28400  0.79707  1.0000
  S   S1109     1.0  0.86124  0.26879  0.83568  1.0000
  Fe  Fe556     1.0  0.89390  0.27555  0.79127  1.0000
  S   S1110     1.0  0.90212  0.26083  0.77705  1.0000
  Fe  Fe557     1.0  0.87731  0.30361  0.79448  1.0000
  S   S1111     1.0  0.86705  0.32323  0.78257  1.0000
  S   S1112     1.0  0.89691  0.26981  0.81264  1.0000
  S   S1113     1.0  0.87818  0.30036  0.81629  1.0000
  Fe  Fe558     1.0  0.77972  0.28878  0.89599  1.0000
  S   S1114     1.0  0.80234  0.28827  0.88876  1.0000
  S   S1115     1.0  0.77297  0.26889  0.90027  1.0000
  Fe  Fe559     1.0  0.77287  0.31932  0.89266  1.0000
  S   S1116     1.0  0.79466  0.32143  0.88492  1.0000
  S   S1117     1.0  0.75602  0.33793  0.89351  1.0000
  Fe  Fe560     1.0  0.79616  0.30636  0.87281  1.0000
  S   S1118     1.0  0.80598  0.31059  0.85063  1.0000
  Fe  Fe561     1.0  0.79895  0.30337  0.90167  1.0000
  S   S1119     1.0  0.81599  0.30139  0.91215  1.0000
  S   S1120     1.0  0.77395  0.30589  0.87899  1.0000
  S   S1121     1.0  0.77679  0.30224  0.91054  1.0000
  H   H4911     1.0  0.75018  0.38127  0.73840  1.0000
  C   C4107     1.0  0.71542  0.40702  0.76386  1.0000
  C   C4108     1.0  0.72120  0.24834  0.92588  1.0000
  C   C4109     1.0  0.73553  0.26511  0.88774  1.0000
  H   H4912     1.0  0.82791  0.31166  0.82732  1.0000
  H   H4913     1.0  0.57165  0.29819  0.73369  1.0000
  C   C4110     1.0  0.88435  0.28110  0.74003  1.0000
  C   C4111     1.0  0.69889  0.25050  0.92038  1.0000
  C   C4112     1.0  0.87592  0.46610  0.83491  1.0000
  C   C4113     1.0  0.84253  0.31352  0.88302  1.0000
  Fe  Fe562     1.0  0.82976  0.44210  0.84298  1.0000
  S   S1122     1.0  0.84263  0.42493  0.85522  1.0000
  S   S1123     1.0  0.81361  0.43979  0.83353  1.0000
  Fe  Fe563     1.0  0.84062  0.46405  0.84929  1.0000
  S   S1124     1.0  0.85427  0.44842  0.86200  1.0000
  H   H4914     1.0  0.65762  0.35770  0.73152  1.0000
  Fe  Fe564     1.0  0.85921  0.43668  0.84565  1.0000
  S   S1125     1.0  0.88061  0.42704  0.83608  1.0000
  Fe  Fe565     1.0  0.83641  0.43825  0.87033  1.0000
  S   S1126     1.0  0.82789  0.43066  0.89240  1.0000
  S   S1127     1.0  0.84684  0.45301  0.83213  1.0000
  S   S1128     1.0  0.82231  0.45468  0.85892  1.0000
  Fe  Fe566     1.0  0.83945  0.34815  0.94408  1.0000
  S   S1129     1.0  0.84836  0.33471  0.96168  1.0000
  S   S1130     1.0  0.82008  0.34762  0.93847  1.0000
  Fe  Fe567     1.0  0.86046  0.36574  0.93621  1.0000
  S   S1131     1.0  0.87101  0.35396  0.95324  1.0000
  S   S1132     1.0  0.86962  0.38181  0.91987  1.0000
  Fe  Fe568     1.0  0.86876  0.33591  0.94722  1.0000
  S   S1133     1.0  0.88591  0.31746  0.94588  1.0000
  Fe  Fe569     1.0  0.84982  0.35389  0.96645  1.0000
  H   H4915     1.0  0.64780  0.23785  0.83678  1.0000
  S   S1134     1.0  0.85975  0.34762  0.92932  1.0000
  S   S1135     1.0  0.83942  0.36736  0.94972  1.0000
  Fe  Fe570     1.0  0.92961  0.36665  0.86696  1.0000
  S   S1136     1.0  0.94774  0.35302  0.87503  1.0000
  S   S1137     1.0  0.91832  0.38589  0.87453  1.0000
  Fe  Fe571     1.0  0.92912  0.34718  0.85016  1.0000
  S   S1138     1.0  0.94754  0.33205  0.85647  1.0000
  S   S1139     1.0  0.91473  0.34613  0.83782  1.0000
  Fe  Fe572     1.0  0.93728  0.33623  0.87731  1.0000
  S   S1140     1.0  0.93653  0.31884  0.89545  1.0000
  Fe  Fe573     1.0  0.95668  0.35005  0.85366  1.0000
  S   S1141     1.0  0.97841  0.35222  0.84220  1.0000
  S   S1142     1.0  0.91840  0.35009  0.87127  1.0000
  S   S1143     1.0  0.93910  0.36496  0.84534  1.0000
  H   H4916     1.0  0.88290  0.28210  0.84435  1.0000
  H   H4917     1.0  0.76377  0.24582  0.89958  1.0000
  H   H4918     1.0  0.90629  0.29801  0.75442  1.0000
  H   H4919     1.0  0.74851  0.24813  0.86649  1.0000
  H   H4920     1.0  0.89461  0.37472  0.87913  1.0000
  N   N271      1.0  0.81899  0.47229  0.89369  1.0000
  H   H4921     1.0  0.89533  0.47777  0.80420  1.0000
  C   C4114     1.0  0.79348  0.35460  0.73184  1.0000
  C   C4115     1.0  0.86846  0.47724  0.81422  1.0000
  H   H4922     1.0  0.98235  0.34141  0.87009  1.0000
  C   C4116     1.0  0.89928  0.31813  0.93120  1.0000
  C   C4117     1.0  0.91043  0.30701  0.93056  1.0000
  C   C4118     1.0  0.92157  0.30729  0.91936  1.0000
  C   C4119     1.0  0.92165  0.31866  0.90862  1.0000
  C   C4120     1.0  0.91031  0.32971  0.90900  1.0000
  C   C4121     1.0  0.89916  0.32949  0.92036  1.0000
  H   H4923     1.0  0.91058  0.29820  0.93888  1.0000
  H   H4924     1.0  0.93026  0.29873  0.91913  1.0000
  H   H4925     1.0  0.91028  0.33846  0.90070  1.0000
  H   H4926     1.0  0.89057  0.33810  0.92082  1.0000
  H   H4927     1.0  0.88852  0.27396  0.74821  1.0000
  H   H4928     1.0  0.87825  0.33172  0.90482  1.0000
  H   H4929     1.0  0.89650  0.33223  0.86266  1.0000
  C   C4122     1.0  0.89640  0.24481  0.76343  1.0000
  Fe  Fe574     1.0  0.72827  0.36419  0.73584  1.0000
  H   H4930     1.0  0.86599  0.47020  0.84143  1.0000
  H   H4931     1.0  0.69246  0.41853  0.73534  1.0000
  H   H4932     1.0  0.80923  0.47533  0.87704  1.0000
  C   C4123     1.0  0.89081  0.41569  0.84704  1.0000
  C   C4124     1.0  0.88894  0.41700  0.86040  1.0000
  C   C4125     1.0  0.89771  0.40809  0.86867  1.0000
  C   C4126     1.0  0.90797  0.39753  0.86380  1.0000
  C   C4127     1.0  0.90960  0.39612  0.85056  1.0000
  C   C4128     1.0  0.90121  0.40530  0.84214  1.0000
  H   H4933     1.0  0.88096  0.42502  0.86425  1.0000
  H   H4934     1.0  0.89637  0.40923  0.87893  1.0000
  H   H4935     1.0  0.91744  0.38806  0.84668  1.0000
  H   H4936     1.0  0.90272  0.40425  0.83181  1.0000
  C   C4129     1.0  0.83949  0.41689  0.89976  1.0000
  C   C4130     1.0  0.83458  0.40760  0.91130  1.0000
  C   C4131     1.0  0.84376  0.39665  0.91740  1.0000
  C   C4132     1.0  0.85789  0.39521  0.91222  1.0000
  C   C4133     1.0  0.86280  0.40458  0.90075  1.0000
  C   C4134     1.0  0.85361  0.41527  0.89436  1.0000
  H   H4937     1.0  0.82366  0.40882  0.91549  1.0000
  H   H4938     1.0  0.83989  0.38948  0.92623  1.0000
  H   H4939     1.0  0.87373  0.40366  0.89687  1.0000
  H   H4940     1.0  0.85747  0.42245  0.88549  1.0000
  H   H4941     1.0  0.69144  0.24483  0.92008  1.0000
  H   H4942     1.0  0.79180  0.35356  0.77700  1.0000
  H   H4943     1.0  0.80206  0.36946  0.75953  1.0000
  H   H4944     1.0  0.72821  0.27998  0.91909  1.0000
  H   H4945     1.0  0.88150  0.38999  0.88020  1.0000
  H   H4946     1.0  0.84995  0.29540  0.82145  1.0000
  C   C4135     1.0  0.82616  0.30688  0.97180  1.0000
  H   H4947     1.0  0.75561  0.26152  0.82329  1.0000
  H   H4948     1.0  0.89132  0.31946  0.88651  1.0000
  H   H4949     1.0  0.85787  0.39067  0.87789  1.0000
  H   H4950     1.0  0.87968  0.24947  0.81928  1.0000
  H   H4951     1.0  0.69868  0.42971  0.74131  1.0000
  C   C4136     1.0  0.98285  0.38312  0.84756  1.0000
  H   H4952     1.0  0.87096  0.35647  0.89976  1.0000
  C   C4137     1.0  0.99164  0.34436  0.86368  1.0000
  H   H4953     1.0  0.73684  0.36551  0.78106  1.0000
  C   C4138     1.0  0.81720  0.31467  0.91885  1.0000
  C   C4139     1.0  0.80659  0.32623  0.91991  1.0000
  C   C4140     1.0  0.80772  0.33634  0.92576  1.0000
  C   C4141     1.0  0.81951  0.33508  0.93042  1.0000
  C   C4142     1.0  0.83025  0.32367  0.92907  1.0000
  C   C4143     1.0  0.82905  0.31348  0.92338  1.0000
  H   H4954     1.0  0.79738  0.32721  0.91654  1.0000
  H   H4955     1.0  0.79933  0.34509  0.92687  1.0000
  H   H4956     1.0  0.83933  0.32254  0.93272  1.0000
  H   H4957     1.0  0.83729  0.30455  0.92265  1.0000
  C   C4144     1.0  0.75869  0.26772  0.89502  1.0000
  C   C4145     1.0  0.74928  0.27931  0.89033  1.0000
  C   C4146     1.0  0.73772  0.27799  0.88678  1.0000
  H   H4958     1.0  0.75074  0.28928  0.88973  1.0000
  H   H4959     1.0  0.73040  0.28703  0.88333  1.0000
  C   C4147     1.0  0.91575  0.30777  0.82405  1.0000
  C   C4148     1.0  0.92565  0.30775  0.83081  1.0000
  C   C4149     1.0  0.92534  0.31933  0.83527  1.0000
  C   C4150     1.0  0.91518  0.33112  0.83292  1.0000
  C   C4151     1.0  0.90512  0.33108  0.82638  1.0000
  C   C4152     1.0  0.90535  0.31945  0.82200  1.0000
  H   H4960     1.0  0.93369  0.29875  0.83248  1.0000
  H   H4961     1.0  0.93313  0.31922  0.84032  1.0000
  H   H4962     1.0  0.89725  0.34017  0.82449  1.0000
  H   H4963     1.0  0.89769  0.31959  0.81681  1.0000
  C   C4153     1.0  0.84529  0.27982  0.83920  1.0000
  C   C4154     1.0  0.84248  0.29256  0.83058  1.0000
  C   C4155     1.0  0.83002  0.30173  0.83386  1.0000
  C   C4156     1.0  0.82050  0.29826  0.84586  1.0000
  C   C4157     1.0  0.82312  0.28539  0.85429  1.0000
  C   C4158     1.0  0.83553  0.27614  0.85095  1.0000
  H   H4964     1.0  0.81564  0.28252  0.86336  1.0000
  H   H4965     1.0  0.83767  0.26625  0.85758  1.0000
  C   C4159     1.0  0.89094  0.25464  0.77147  1.0000
  C   C4160     1.0  0.87677  0.25985  0.77430  1.0000
  C   C4161     1.0  0.86822  0.25568  0.76881  1.0000
  H   H4966     1.0  0.98298  0.38709  0.88306  1.0000
  H   H4967     1.0  0.87233  0.26732  0.78046  1.0000
  H   H4968     1.0  0.85730  0.25999  0.77086  1.0000
  H   H4969     1.0  0.58385  0.26722  0.76045  1.0000
  C   C4162     1.0  0.81630  0.40332  0.81590  1.0000
  C   C4163     1.0  0.80492  0.41423  0.81581  1.0000
  C   C4164     1.0  0.80436  0.42541  0.82107  1.0000
  C   C4165     1.0  0.81502  0.42567  0.82669  1.0000
  C   C4166     1.0  0.82633  0.41467  0.82692  1.0000
  C   C4167     1.0  0.82699  0.40359  0.82147  1.0000
  H   H4970     1.0  0.79670  0.41421  0.81142  1.0000
  H   H4971     1.0  0.79562  0.43392  0.82078  1.0000
  H   H4972     1.0  0.83464  0.41480  0.83114  1.0000
  H   H4973     1.0  0.83589  0.39524  0.82147  1.0000
  C   C4168     1.0  0.82031  0.33257  0.79483  1.0000
  C   C4169     1.0  0.82775  0.31928  0.79849  1.0000
  C   C4170     1.0  0.84214  0.31625  0.79463  1.0000
  C   C4171     1.0  0.84908  0.32646  0.78684  1.0000
  C   C4172     1.0  0.84160  0.33961  0.78276  1.0000
  C   C4173     1.0  0.82726  0.34268  0.78685  1.0000
  H   H4974     1.0  0.82243  0.31137  0.80460  1.0000
  H   H4975     1.0  0.84781  0.30606  0.79776  1.0000
  H   H4976     1.0  0.84692  0.34753  0.77667  1.0000
  H   H4977     1.0  0.82167  0.35287  0.78372  1.0000
  C   C4174     1.0  0.75640  0.36815  0.85283  1.0000
  C   C4175     1.0  0.76714  0.35665  0.85398  1.0000
  C   C4176     1.0  0.76703  0.34713  0.86641  1.0000
  C   C4177     1.0  0.75632  0.34932  0.87772  1.0000
  C   C4178     1.0  0.74577  0.36096  0.87657  1.0000
  C   C4179     1.0  0.74579  0.37030  0.86415  1.0000
  H   H4978     1.0  0.77546  0.35510  0.84533  1.0000
  H   H4979     1.0  0.77523  0.33817  0.86727  1.0000
  H   H4980     1.0  0.73752  0.36270  0.88529  1.0000
  H   H4981     1.0  0.73749  0.37921  0.86331  1.0000
  C   C4180     1.0  0.75983  0.38562  0.76527  1.0000
  C   C4181     1.0  0.75913  0.38689  0.75178  1.0000
  C   C4182     1.0  0.75049  0.38039  0.74882  1.0000
  C   C4183     1.0  0.74250  0.37255  0.75937  1.0000
  C   C4184     1.0  0.74309  0.37145  0.77284  1.0000
  C   C4185     1.0  0.75164  0.37798  0.77578  1.0000
  C   C4186     1.0  0.72260  0.40764  0.77302  1.0000
  H   H4982     1.0  0.86823  0.30121  0.76132  1.0000
  H   H4983     1.0  0.75175  0.37722  0.78622  1.0000
  H   H4984     1.0  0.88396  0.46349  0.84082  1.0000
  H   H4985     1.0  0.84022  0.32075  0.85706  1.0000
  H   H4986     1.0  0.89263  0.46076  0.81126  1.0000
  H   H4987     1.0  0.57989  0.26424  0.74602  1.0000
  C   C4187     1.0  0.62160  0.25650  0.77745  1.0000
  C   C4188     1.0  0.61852  0.27053  0.77217  1.0000
  C   C4189     1.0  0.62534  0.27603  0.75907  1.0000
  C   C4190     1.0  0.63512  0.26749  0.75115  1.0000
  C   C4191     1.0  0.63824  0.25347  0.75646  1.0000
  C   C4192     1.0  0.63149  0.24798  0.76958  1.0000
  H   H4988     1.0  0.61096  0.27717  0.77829  1.0000
  H   H4989     1.0  0.62303  0.28686  0.75514  1.0000
  H   H4990     1.0  0.77716  0.27344  0.86687  1.0000
  C   C4193     1.0  0.87613  0.24500  0.81278  1.0000
  C   C4194     1.0  0.58178  0.27210  0.75013  1.0000
  C   C4195     1.0  0.72004  0.41135  0.74961  1.0000
  C   C4196     1.0  0.80843  0.47023  0.88794  1.0000
  S   S1144     1.0  0.62308  0.31243  0.73556  1.0000
  H   H4991     1.0  0.90927  0.29554  0.73740  1.0000
  C   C4197     1.0  0.86557  0.29219  0.85767  1.0000
  H   H4992     1.0  0.80941  0.45924  0.88846  1.0000
  C   C4198     1.0  0.74099  0.26822  0.84666  1.0000
  H   H4993     1.0  0.55890  0.33444  0.73107  1.0000
  H   H4994     1.0  0.89048  0.37809  0.85621  1.0000
  C   C4199     1.0  0.73918  0.41725  0.75442  1.0000
  H   H4995     1.0  0.71912  0.40390  0.78382  1.0000
  H   H4996     1.0  0.84822  0.28586  0.88867  1.0000
  H   H4997     1.0  0.88100  0.28610  0.76541  1.0000
  H   H4998     1.0  0.59723  0.28499  0.75672  1.0000
  H   H4999     1.0  0.72166  0.38913  0.74124  1.0000
  H   H5000     1.0  0.74200  0.27743  0.83844  1.0000
  H   H5001     1.0  0.83920  0.30446  0.85574  1.0000
  C   C4200     1.0  0.88776  0.24038  0.75815  1.0000
  H   H5002     1.0  0.85883  0.28704  0.85586  1.0000
  N   N272      1.0  0.88794  0.30048  0.74737  1.0000
  H   H5003     1.0  0.64859  0.24653  0.85619  1.0000
  N   N273      1.0  0.59335  0.27799  0.74093  1.0000
  N   N274      1.0  0.65844  0.26327  0.78686  1.0000
  C   C4201     1.0  0.64573  0.26114  0.79719  1.0000
  C   C4202     1.0  0.66375  0.25126  0.78046  1.0000
  C   C4203     1.0  0.66888  0.26355  0.79386  1.0000
  C   C4204     1.0  0.65554  0.27633  0.77702  1.0000
  C   C4205     1.0  0.65777  0.27723  0.76282  1.0000
  C   C4206     1.0  0.65054  0.28876  0.78156  1.0000
  C   C4207     1.0  0.65533  0.28980  0.75381  1.0000
  C   C4208     1.0  0.64810  0.30127  0.77244  1.0000
  C   C4209     1.0  0.65053  0.30179  0.75858  1.0000
  H   H5004     1.0  0.64169  0.26900  0.80342  1.0000
  H   H5005     1.0  0.63745  0.26134  0.79232  1.0000
  H   H5006     1.0  0.64747  0.25115  0.80445  1.0000
  H   H5007     1.0  0.65614  0.25006  0.77551  1.0000
  H   H5008     1.0  0.66597  0.24164  0.78810  1.0000
  H   H5009     1.0  0.67354  0.25196  0.77281  1.0000
  H   H5010     1.0  0.66517  0.27135  0.80015  1.0000
  H   H5011     1.0  0.74025  0.41284  0.77538  1.0000
  H   H5012     1.0  0.67841  0.26569  0.78640  1.0000
  H   H5013     1.0  0.66126  0.26840  0.75835  1.0000
  H   H5014     1.0  0.64853  0.28889  0.79220  1.0000
  H   H5015     1.0  0.79676  0.27515  0.84706  1.0000
  H   H5016     1.0  0.86505  0.24541  0.81741  1.0000
  C   C4210     1.0  0.98335  0.38591  0.87306  1.0000
  H   H5017     1.0  0.88925  0.35661  0.85698  1.0000
  C   C4211     1.0  0.71962  0.26270  0.92177  1.0000
  N   N275      1.0  0.84645  0.34498  0.82098  1.0000
  C   C4212     1.0  0.84994  0.33099  0.81856  1.0000
  C   C4213     1.0  0.84150  0.35466  0.80922  1.0000
  C   C4214     1.0  0.85937  0.34804  0.82151  1.0000
  C   C4215     1.0  0.83550  0.34605  0.83346  1.0000
  C   C4216     1.0  0.83669  0.35106  0.84428  1.0000
  C   C4217     1.0  0.82301  0.34222  0.83498  1.0000
  C   C4218     1.0  0.82612  0.35187  0.85594  1.0000
  C   C4219     1.0  0.81254  0.34307  0.84667  1.0000
  C   C4220     1.0  0.81411  0.34782  0.85715  1.0000
  H   H5018     1.0  0.85884  0.32956  0.80981  1.0000
  H   H5019     1.0  0.85261  0.32325  0.82762  1.0000
  H   H5020     1.0  0.84144  0.32854  0.81594  1.0000
  H   H5021     1.0  0.83203  0.35281  0.80782  1.0000
  H   H5022     1.0  0.84931  0.35401  0.79953  1.0000
  H   H5023     1.0  0.83901  0.36533  0.81051  1.0000
  H   H5024     1.0  0.86369  0.34110  0.83017  1.0000
  H   H5025     1.0  0.86747  0.34677  0.81211  1.0000
  H   H5026     1.0  0.85782  0.35878  0.82224  1.0000
  H   H5027     1.0  0.84565  0.35450  0.84394  1.0000
  H   H5028     1.0  0.82117  0.33861  0.82707  1.0000
  H   H5029     1.0  0.82719  0.35574  0.86407  1.0000
  H   H5030     1.0  0.80315  0.33998  0.84761  1.0000
  H   H5031     1.0  0.80597  0.34839  0.86620  1.0000
  N   N276      1.0  0.78583  0.39219  0.85573  1.0000
  C   C4221     1.0  0.79299  0.40351  0.85238  1.0000
  C   C4222     1.0  0.79006  0.38573  0.84386  1.0000
  C   C4223     1.0  0.77086  0.39830  0.85777  1.0000
  C   C4224     1.0  0.78896  0.38173  0.86787  1.0000
  C   C4225     1.0  0.78122  0.37155  0.87391  1.0000
  C   C4226     1.0  0.79996  0.38100  0.87379  1.0000
  C   C4227     1.0  0.78392  0.36161  0.88540  1.0000
  C   C4228     1.0  0.80258  0.37100  0.88530  1.0000
  C   C4229     1.0  0.79455  0.36137  0.89112  1.0000
  H   H5032     1.0  0.80429  0.40016  0.84882  1.0000
  H   H5033     1.0  0.78961  0.41174  0.84394  1.0000
  H   H5034     1.0  0.79086  0.40831  0.86121  1.0000
  H   H5035     1.0  0.80126  0.38104  0.84182  1.0000
  H   H5036     1.0  0.78797  0.39324  0.83444  1.0000
  H   H5037     1.0  0.78446  0.37764  0.84541  1.0000
  H   H5038     1.0  0.76692  0.40209  0.86738  1.0000
  H   H5039     1.0  0.76840  0.40697  0.84926  1.0000
  H   H5040     1.0  0.76471  0.39107  0.85806  1.0000
  H   H5041     1.0  0.77292  0.37122  0.86985  1.0000
  H   H5042     1.0  0.80657  0.38814  0.86980  1.0000
  H   H5043     1.0  0.77765  0.35410  0.88994  1.0000
  H   H5044     1.0  0.81078  0.37081  0.88989  1.0000
  H   H5045     1.0  0.79653  0.35372  0.90012  1.0000
  C   C4230     1.0  0.78718  0.35280  0.74592  1.0000
  H   H5046     1.0  0.87642  0.39208  0.85881  1.0000
  H   H5047     1.0  0.85757  0.37630  0.89154  1.0000
  C   C4231     1.0  0.75654  0.25483  0.89591  1.0000
  C   C4232     1.0  0.81807  0.46359  0.90760  1.0000
  H   H5048     1.0  0.88038  0.37535  0.89352  1.0000
  H   H5049     1.0  0.85453  0.37552  0.87575  1.0000
  Fe  Fe575     1.0  0.69210  0.24007  0.87129  1.0000
  H   H5050     1.0  0.75762  0.26564  0.86585  1.0000
  S   S1145     1.0  0.72092  0.26419  0.88288  1.0000
  H   H5051     1.0  0.65707  0.29023  0.74302  1.0000
  H   H5052     1.0  0.67176  0.25366  0.80093  1.0000
  N   N277      1.0  0.87888  0.47601  0.82193  1.0000
  H   H5053     1.0  0.64433  0.31064  0.77611  1.0000
  C   C4233     1.0  0.59488  0.28892  0.74646  1.0000
  C   C4234     1.0  0.83275  0.46740  0.88545  1.0000
  H   H5054     1.0  0.80009  0.32251  0.95569  1.0000
  C   C4235     1.0  0.88413  0.30497  0.86112  1.0000
  C   C4236     1.0  0.65804  0.24245  0.84963  1.0000
  H   H5055     1.0  0.80415  0.35545  0.97313  1.0000
  H   H5056     1.0  0.90080  0.46792  0.81946  1.0000
  H   H5057     1.0  0.83369  0.47215  0.87446  1.0000
  H   H5058     1.0  0.83503  0.45623  0.88628  1.0000
  C   C4237     1.0  0.88352  0.29523  0.73794  1.0000
  H   H5059     1.0  0.87727  0.25184  0.80253  1.0000
  H   H5060     1.0  0.60331  0.29380  0.73970  1.0000
  H   H5061     1.0  0.87527  0.45630  0.83320  1.0000
  S   S1146     1.0  0.71111  0.24750  0.85946  1.0000
  H   H5062     1.0  0.76403  0.24445  0.83060  1.0000
  H   H5063     1.0  0.86164  0.24053  0.79928  1.0000
  H   H5064     1.0  0.63374  0.23712  0.77348  1.0000
  H   H5065     1.0  0.82220  0.35081  0.97194  1.0000
  H   H5066     1.0  0.64868  0.31150  0.75151  1.0000
  S   S1147     1.0  0.70639  0.36667  0.73471  1.0000
  C   C4238     1.0  0.75492  0.25293  0.83228  1.0000
  H   H5067     1.0  0.77645  0.36011  0.77090  1.0000
  H   H5068     1.0  0.81464  0.34478  0.74556  1.0000
  H   H5069     1.0  0.80529  0.33315  0.75804  1.0000
  H   H5070     1.0  0.90411  0.28279  0.75192  1.0000
  C   C4239     1.0  0.77687  0.26340  0.83401  1.0000
  C   C4240     1.0  0.88861  0.29573  0.85263  1.0000
  H   H5071     1.0  0.84478  0.32367  0.87782  1.0000
  H   H5072     1.0  0.86767  0.31494  0.87458  1.0000
  H   H5073     1.0  0.89566  0.48049  0.83554  1.0000
  C   C4241     1.0  0.80733  0.34352  0.75559  1.0000
  C   C4242     1.0  0.73215  0.41658  0.74514  1.0000
  H   H5074     1.0  0.89147  0.30986  0.86234  1.0000
  H   H5075     1.0  0.96203  0.38470  0.87861  1.0000
  H   H5076     1.0  0.75223  0.24143  0.93472  1.0000
  C   C4243     1.0  0.87936  0.28932  0.85095  1.0000
  H   H5077     1.0  0.81275  0.34385  0.76324  1.0000
  H   H5078     1.0  0.89929  0.29350  0.84734  1.0000
  H   H5079     1.0  0.83088  0.29341  0.88709  1.0000
  S   S1148     1.0  0.73189  0.36365  0.75639  1.0000
  H   H5080     1.0  0.84813  0.30896  0.89140  1.0000
  C   C4244     1.0  0.76549  0.26222  0.84525  1.0000
  H   H5081     1.0  0.70178  0.25648  0.90984  1.0000
  C   C4245     1.0  0.78807  0.27170  0.84648  1.0000
  H   H5082     1.0  0.83140  0.31543  0.88801  1.0000
  C   C4246     1.0  0.73446  0.41273  0.76830  1.0000
  H   H5083     1.0  0.78826  0.37584  0.75085  1.0000
  N   N278      1.0  0.77152  0.32356  0.83400  1.0000
  C   C4247     1.0  0.77712  0.30888  0.83895  1.0000
  C   C4248     1.0  0.76997  0.32537  0.81995  1.0000
  C   C4249     1.0  0.78179  0.33106  0.83361  1.0000
  C   C4250     1.0  0.75828  0.32906  0.84265  1.0000
  C   C4251     1.0  0.75218  0.32129  0.85516  1.0000
  C   C4252     1.0  0.75147  0.34286  0.83900  1.0000
  C   C4253     1.0  0.74027  0.32717  0.86361  1.0000
  C   C4254     1.0  0.73946  0.34856  0.84742  1.0000
  C   C4255     1.0  0.73396  0.34078  0.85978  1.0000
  H   H5084     1.0  0.76993  0.30258  0.83947  1.0000
  H   H5085     1.0  0.78707  0.30511  0.83220  1.0000
  H   H5086     1.0  0.77942  0.30692  0.84914  1.0000
  H   H5087     1.0  0.76181  0.32048  0.81987  1.0000
  H   H5088     1.0  0.77973  0.32094  0.81336  1.0000
  H   H5089     1.0  0.76731  0.33625  0.81486  1.0000
  H   H5090     1.0  0.78241  0.33087  0.84407  1.0000
  H   H5091     1.0  0.79227  0.32652  0.82831  1.0000
  H   H5092     1.0  0.77938  0.34185  0.82822  1.0000
  H   H5093     1.0  0.75657  0.31075  0.85887  1.0000
  H   H5094     1.0  0.75566  0.34954  0.82986  1.0000
  H   H5095     1.0  0.73608  0.32123  0.87337  1.0000
  H   H5096     1.0  0.73473  0.35926  0.84460  1.0000
  H   H5097     1.0  0.72495  0.34540  0.86652  1.0000
  N   N279      1.0  0.91195  0.36766  0.91721  1.0000
  C   C4256     1.0  0.90477  0.36662  0.90734  1.0000
  C   C4257     1.0  0.90176  0.37509  0.92729  1.0000
  C   C4258     1.0  0.92224  0.37606  0.90985  1.0000
  C   C4259     1.0  0.91858  0.35379  0.92351  1.0000
  C   C4260     1.0  0.93087  0.34652  0.91629  1.0000
  C   C4261     1.0  0.91252  0.34669  0.93648  1.0000
  C   C4262     1.0  0.93705  0.33330  0.92197  1.0000
  C   C4263     1.0  0.91868  0.33339  0.94197  1.0000
  C   C4264     1.0  0.93097  0.32674  0.93478  1.0000
  H   H5098     1.0  0.89676  0.36060  0.91242  1.0000
  H   H5099     1.0  0.89962  0.37685  0.90234  1.0000
  H   H5100     1.0  0.91199  0.36165  0.89915  1.0000
  H   H5101     1.0  0.89265  0.37050  0.93195  1.0000
  H   H5102     1.0  0.89743  0.38575  0.92250  1.0000
  H   H5103     1.0  0.90639  0.37537  0.93552  1.0000
  H   H5104     1.0  0.91726  0.38683  0.90609  1.0000
  H   H5105     1.0  0.92893  0.37591  0.91651  1.0000
  H   H5106     1.0  0.92884  0.37268  0.90050  1.0000
  H   H5107     1.0  0.93554  0.35069  0.90597  1.0000
  H   H5108     1.0  0.90280  0.35100  0.94243  1.0000
  H   H5109     1.0  0.94617  0.32780  0.91606  1.0000
  H   H5110     1.0  0.91359  0.32799  0.95162  1.0000
  H   H5111     1.0  0.93544  0.31626  0.93884  1.0000
  H   H5112     1.0  0.73861  0.27137  0.85651  1.0000
  H   H5113     1.0  0.80782  0.46645  0.91431  1.0000
  C   C4265     1.0  0.77703  0.27077  0.85760  1.0000
  H   H5114     1.0  0.60557  0.25836  0.73746  1.0000
  C   C4266     1.0  0.69836  0.41892  0.74256  1.0000
  H   H5115     1.0  0.85731  0.48076  0.86274  1.0000
  C   C4267     1.0  0.75168  0.24537  0.85641  1.0000
  H   H5116     1.0  0.84096  0.46966  0.88879  1.0000
  N   N280      1.0  0.75356  0.25726  0.84503  1.0000
  H   H5117     1.0  0.70611  0.39472  0.73505  1.0000
  H   H5118     1.0  0.71110  0.26926  0.91758  1.0000
  C   C4268     1.0  0.99232  0.34991  0.84984  1.0000
  C   C4269     1.0  0.71132  0.39600  0.74239  1.0000
  C   C4270     1.0  0.81212  0.35136  0.97925  1.0000
  H   H5119     1.0  0.89314  0.31865  0.73347  1.0000
  C   C4271     1.0  0.79765  0.36767  0.75183  1.0000
  H   H5120     1.0  0.98265  0.38168  0.83777  1.0000
  H   H5121     1.0  0.88177  0.30166  0.76848  1.0000
  C   C4272     1.0  0.81745  0.30920  0.96310  1.0000
  H   H5122     1.0  0.60786  0.26296  0.75169  1.0000
  H   H5123     1.0  0.85784  0.48071  0.82005  1.0000
  H   H5124     1.0  0.69230  0.41560  0.75295  1.0000
  H   H5125     1.0  0.86876  0.46730  0.81212  1.0000
  H   H5126     1.0  0.84225  0.28463  0.87463  1.0000
  H   H5127     1.0  0.76811  0.34855  0.76028  1.0000
  H   H5128     1.0  0.87585  0.32102  0.74406  1.0000
  H   H5129     1.0  0.90189  0.23767  0.81229  1.0000
  H   H5130     1.0  0.70635  0.40287  0.76803  1.0000
  H   H5131     1.0  0.75715  0.34695  0.74351  1.0000
  H   H5132     1.0  0.89016  0.31896  0.75105  1.0000
  C   C4273     1.0  0.89250  0.47042  0.81386  1.0000
  H   H5133     1.0  0.57207  0.27992  0.75165  1.0000
  C   C4274     1.0  0.97106  0.38315  0.85791  1.0000
  H   H5134     1.0  0.61532  0.27102  0.73499  1.0000
  H   H5135     1.0  0.73658  0.41998  0.73454  1.0000
  S   S1149     1.0  0.64331  0.27390  0.73445  1.0000
  C   C4275     1.0  0.73322  0.24086  0.93065  1.0000
  H   H5136     1.0  0.74586  0.24904  0.83261  1.0000
  H   H5137     1.0  0.69329  0.25767  0.92723  1.0000
  C   C4276     1.0  0.76737  0.34899  0.74028  1.0000
  N   N281      1.0  0.87567  0.37422  0.87515  1.0000
  C   C4277     1.0  0.87922  0.38076  0.86050  1.0000
  C   C4278     1.0  0.86077  0.37933  0.88029  1.0000
  C   C4279     1.0  0.88338  0.37874  0.88232  1.0000
  C   C4280     1.0  0.87910  0.35917  0.87785  1.0000
  C   C4281     1.0  0.88620  0.35173  0.86751  1.0000
  C   C4282     1.0  0.87612  0.35150  0.89135  1.0000
  C   C4283     1.0  0.89042  0.33756  0.87065  1.0000
  C   C4284     1.0  0.88028  0.33733  0.89436  1.0000
  C   C4285     1.0  0.88757  0.33038  0.88405  1.0000
  H   H5138     1.0  0.87377  0.37784  0.85441  1.0000
  C   C4286     1.0  0.67068  0.24196  0.85222  1.0000
  H   H5139     1.0  0.79662  0.26877  0.82609  1.0000
  C   C4287     1.0  0.87363  0.24594  0.76074  1.0000
  C   C4288     1.0  0.74504  0.25350  0.89225  1.0000
  H   H5140     1.0  0.76534  0.39286  0.74357  1.0000
  H   H5141     1.0  0.78391  0.34205  0.77385  1.0000
  C   C4289     1.0  0.76590  0.26618  0.85698  1.0000
  C   C4290     1.0  0.97127  0.38466  0.87061  1.0000
  H   H5142     1.0  0.79634  0.33864  0.96989  1.0000
  H   H5143     1.0  0.74865  0.42084  0.75084  1.0000
  H   H5144     1.0  0.90735  0.24071  0.76115  1.0000
  C   C4291     1.0  0.80457  0.32974  0.97094  1.0000
  H   H5145     1.0  0.81950  0.45266  0.90748  1.0000
  H   H5146     1.0  0.82637  0.31300  0.86773  1.0000
  C   C4292     1.0  0.78622  0.35233  0.76996  1.0000
  C   C4293     1.0  0.87037  0.30781  0.86805  1.0000
  N   N282      1.0  0.79437  0.35404  0.75573  1.0000
  C   C4294     1.0  0.72942  0.26906  0.92257  1.0000
  C   C4295     1.0  0.90251  0.29394  0.74775  1.0000
  N   N283      1.0  0.84592  0.30437  0.87340  1.0000
  C   C4296     1.0  0.83757  0.31095  0.86304  1.0000
  N   N284      1.0  0.71240  0.41027  0.74012  1.0000
  H   H5147     1.0  0.80521  0.36920  0.74201  1.0000
  C   C4297     1.0  0.84171  0.29151  0.88122  1.0000
  C   C4298     1.0  0.86064  0.30145  0.86652  1.0000
  C   C4299     1.0  0.80662  0.32055  0.96275  1.0000
  C   C4300     1.0  0.87935  0.29720  0.76121  1.0000
  Fe  Fe576     1.0  0.71542  0.24595  0.87975  1.0000
  C   C4301     1.0  0.78796  0.26808  0.83470  1.0000
  H   H5148     1.0  0.73177  0.26493  0.84649  1.0000
  C   C4302     1.0  0.65758  0.23760  0.83861  1.0000
  H   H5149     1.0  0.74355  0.24352  0.89299  1.0000
  H   H5150     1.0  0.77752  0.26067  0.82462  1.0000
  C   C4303     1.0  0.60606  0.26711  0.74120  1.0000
  H   H5151     1.0  0.58545  0.29712  0.74753  1.0000
  C   C4304     1.0  0.88671  0.31543  0.74371  1.0000
  H   H5152     1.0  0.81924  0.30237  0.95638  1.0000
  S   S1150     1.0  0.86217  0.24129  0.75418  1.0000
  H   H5153     1.0  0.96180  0.38183  0.85610  1.0000
  C   C4305     1.0  0.82413  0.31594  0.98016  1.0000
  H   H5154     1.0  0.82621  0.46403  0.91232  1.0000
  H   H5155     1.0  0.70538  0.39219  0.75267  1.0000
  C   C4306     1.0  0.68286  0.23709  0.84345  1.0000
  C   C4307     1.0  0.77388  0.34990  0.74988  1.0000
  H   H5156     1.0  0.69265  0.23684  0.84527  1.0000
  H   H5157     1.0  0.74351  0.24068  0.85592  1.0000
  C   C4308     1.0  0.74107  0.26141  0.92731  1.0000
  H   H5158     1.0  0.72159  0.23784  0.90517  1.0000
  H   H5159     1.0  0.74886  0.26637  0.92747  1.0000
  S   S1151     1.0  0.69532  0.24044  0.89137  1.0000
  S   S1152     1.0  0.67116  0.24718  0.86656  1.0000
  H   H5160     1.0  0.83473  0.29816  0.97187  1.0000
  H   H5161     1.0  0.76130  0.23733  0.85626  1.0000
  H   H5162     1.0  0.88017  0.26504  0.73374  1.0000
  C   C4309     1.0  0.74298  0.24734  0.93132  1.0000
  H   H5163     1.0  0.90102  0.23617  0.79598  1.0000
  H   H5164     1.0  0.68225  0.35413  0.73170  1.0000
  H   H5165     1.0  0.70165  0.23942  0.94638  1.0000
  C   C4310     1.0  0.81331  0.32778  0.97987  1.0000
  N   N285      1.0  0.71111  0.24119  0.92510  1.0000
  H   H5166     1.0  0.79790  0.47423  0.89354  1.0000
  C   C4311     1.0  0.87966  0.27588  0.73172  1.0000
  H   H5167     1.0  0.87016  0.48442  0.80420  1.0000
  Fe  Fe577     1.0  0.92447  0.65829  0.15180  1.0000
  S   S1153     1.0  0.94374  0.64211  0.15201  1.0000
  S   S1154     1.0  0.91270  0.66431  0.17155  1.0000
  Fe  Fe578     1.0  0.92461  0.65861  0.12247  1.0000
  S   S1155     1.0  0.94413  0.64248  0.12030  1.0000
  S   S1156     1.0  0.91081  0.66921  0.10760  1.0000
  Fe  Fe579     1.0  0.93446  0.63225  0.14135  1.0000
  S   S1157     1.0  0.93249  0.61054  0.15030  1.0000
  Fe  Fe580     1.0  0.95161  0.65391  0.13124  1.0000
  S   S1158     1.0  0.91461  0.64762  0.14273  1.0000
  S   S1159     1.0  0.93265  0.67091  0.13178  1.0000
  Fe  Fe581     1.0  0.88743  0.56923  0.13768  1.0000
  S   S1160     1.0  0.86999  0.58283  0.14878  1.0000
  S   S1161     1.0  0.90827  0.57419  0.12842  1.0000
  Fe  Fe582     1.0  0.87009  0.54920  0.13935  1.0000
  S   S1162     1.0  0.85094  0.56147  0.15064  1.0000
  S   S1163     1.0  0.87397  0.53006  0.13112  1.0000
  Fe  Fe583     1.0  0.85757  0.57980  0.13606  1.0000
  S   S1164     1.0  0.84355  0.59952  0.12894  1.0000
  Fe  Fe584     1.0  0.86478  0.56373  0.16255  1.0000
  S   S1165     1.0  0.85740  0.56284  0.18506  1.0000
  S   S1166     1.0  0.87550  0.56763  0.12368  1.0000
  S   S1167     1.0  0.88347  0.55000  0.15257  1.0000
  Fe  Fe585     1.0  0.85729  0.66810  0.05742  1.0000
  S   S1168     1.0  0.87769  0.66882  0.04295  1.0000
  S   S1169     1.0  0.84502  0.68744  0.06428  1.0000
  Fe  Fe586     1.0  0.86007  0.63854  0.05781  1.0000
  S   S1170     1.0  0.88067  0.63688  0.04352  1.0000
  S   S1171     1.0  0.85261  0.61920  0.06525  1.0000
  Fe  Fe587     1.0  0.88510  0.64870  0.05608  1.0000
  S   S1172     1.0  0.90491  0.64138  0.06344  1.0000
  Fe  Fe588     1.0  0.87124  0.65697  0.03174  1.0000
  S   S1173     1.0  0.87461  0.66266  0.00867  1.0000
  S   S1174     1.0  0.86516  0.64875  0.07130  1.0000
  S   S1175     1.0  0.85017  0.65788  0.04523  1.0000
  H   H5168     1.0  0.83468  0.59923  0.15737  1.0000
  C   C4312     1.0  0.85175  0.65359  0.18032  1.0000
  C   C4313     1.0  0.84842  0.50705  0.09632  1.0000
  H   H5169     1.0  0.90357  0.59872  0.08985  1.0000
  Fe  Fe589     1.0  0.82321  0.70978  0.13122  1.0000
  S   S1176     1.0  0.80029  0.71602  0.13724  1.0000
  S   S1177     1.0  0.83442  0.68943  0.12610  1.0000
  C   C4314     1.0  0.84120  0.67271  0.16474  1.0000
  C   C4315     1.0  0.87193  0.68640  0.11786  1.0000
  Fe  Fe590     1.0  0.80373  0.72057  0.15544  1.0000
  S   S1178     1.0  0.79213  0.71412  0.17666  1.0000
  S   S1179     1.0  0.82635  0.71256  0.15037  1.0000
  C   C4316     1.0  0.79868  0.72742  0.07393  1.0000
  S   S1180     1.0  0.87250  0.71501  0.20089  1.0000
  C   C4317     1.0  0.89669  0.62180  0.11705  1.0000
  H   H5170     1.0  0.83986  0.61587  0.18235  1.0000
  C   C4318     1.0  0.85570  0.51613  0.09698  1.0000
  C   C4319     1.0  0.85272  0.67821  0.16154  1.0000
  Fe  Fe591     1.0  0.88966  0.72277  0.20272  1.0000
  S   S1181     1.0  0.90751  0.72105  0.18478  1.0000
  H   H5171     1.0  0.90906  0.60076  0.10348  1.0000
  H   H5172     1.0  0.87245  0.67614  0.16499  1.0000
  C   C4320     1.0  0.90388  0.63194  0.99133  1.0000
  C   C4321     1.0  0.85745  0.67671  0.23029  1.0000
  Fe  Fe592     1.0  0.80821  0.64156  0.20902  1.0000
  S   S1182     1.0  0.80242  0.65021  0.18894  1.0000
  S   S1183     1.0  0.82754  0.64596  0.21016  1.0000
  H   H5173     1.0  0.88474  0.58810  0.20795  1.0000
  H   H5174     1.0  0.89553  0.68347  0.12833  1.0000
  H   H5175     1.0  0.86888  0.66645  0.19796  1.0000
  H   H5176     1.0  0.83178  0.65610  0.17649  1.0000
  C   C4322     1.0  0.79480  0.69635  0.18019  1.0000
  C   C4323     1.0  0.79150  0.68911  0.19357  1.0000
  C   C4324     1.0  0.79404  0.67487  0.19636  1.0000
  C   C4325     1.0  0.79943  0.66793  0.18571  1.0000
  C   C4326     1.0  0.80272  0.67518  0.17235  1.0000
  C   C4327     1.0  0.80067  0.68933  0.16964  1.0000
  H   H5177     1.0  0.78700  0.69448  0.20177  1.0000
  H   H5178     1.0  0.79146  0.66929  0.20670  1.0000
  H   H5179     1.0  0.80697  0.66984  0.16411  1.0000
  H   H5180     1.0  0.80349  0.69476  0.15934  1.0000
  C   C4328     1.0  0.88485  0.70372  0.10629  1.0000
  H   H5181     1.0  0.80879  0.60986  0.17528  1.0000
  H   H5182     1.0  0.85087  0.64391  0.18716  1.0000
  H   H5183     1.0  0.97881  0.63804  0.14643  1.0000
  H   H5184     1.0  0.80868  0.63989  0.99326  1.0000
  C   C4329     1.0  0.87208  0.65217  0.99934  1.0000
  H   H5185     1.0  0.83496  0.64001  0.02106  1.0000
  C   C4330     1.0  0.80133  0.70080  0.10663  1.0000
  C   C4331     1.0  0.96035  0.63951  0.18995  1.0000
  C   C4332     1.0  0.86799  0.63101  0.99776  1.0000
  C   C4333     1.0  0.86954  0.63924  0.00556  1.0000
  H   H5186     1.0  0.95810  0.66601  0.15079  1.0000
  H   H5187     1.0  0.88180  0.60886  0.08552  1.0000
  H   H5188     1.0  0.86621  0.62095  0.00263  1.0000
  H   H5189     1.0  0.86894  0.63549  0.01636  1.0000
  C   C4334     1.0  0.84345  0.68782  0.08131  1.0000
  C   C4335     1.0  0.84535  0.67584  0.09121  1.0000
  C   C4336     1.0  0.84280  0.67643  0.10492  1.0000
  C   C4337     1.0  0.83828  0.68898  0.10880  1.0000
  C   C4338     1.0  0.83676  0.70096  0.09889  1.0000
  C   C4339     1.0  0.83934  0.70038  0.08517  1.0000
  H   H5190     1.0  0.84817  0.66612  0.08842  1.0000
  H   H5191     1.0  0.84379  0.66711  0.11254  1.0000
  H   H5192     1.0  0.83345  0.71066  0.10180  1.0000
  H   H5193     1.0  0.83800  0.70964  0.07749  1.0000
  C   C4340     1.0  0.86422  0.51748  0.13532  1.0000
  C   C4341     1.0  0.86893  0.50679  0.12832  1.0000
  C   C4342     1.0  0.86142  0.49670  0.13105  1.0000
  C   C4343     1.0  0.84924  0.49705  0.14102  1.0000
  C   C4344     1.0  0.84454  0.50770  0.14805  1.0000
  C   C4345     1.0  0.85197  0.51789  0.14522  1.0000
  H   H5194     1.0  0.87832  0.50647  0.12054  1.0000
  H   H5195     1.0  0.83510  0.50808  0.15576  1.0000
  H   H5196     1.0  0.84822  0.52605  0.15067  1.0000
  C   C4346     1.0  0.84604  0.60487  0.11125  1.0000
  C   C4347     1.0  0.85203  0.59551  0.10285  1.0000
  C   C4348     1.0  0.85383  0.59996  0.08871  1.0000
  C   C4349     1.0  0.84998  0.61379  0.08295  1.0000
  C   C4350     1.0  0.84417  0.62319  0.09134  1.0000
  C   C4351     1.0  0.84207  0.61870  0.10550  1.0000
  H   H5197     1.0  0.85494  0.58481  0.10725  1.0000
  H   H5198     1.0  0.85827  0.59268  0.08223  1.0000
  H   H5199     1.0  0.84107  0.63387  0.08691  1.0000
  H   H5200     1.0  0.83743  0.62595  0.11199  1.0000
  C   C4352     1.0  0.85627  0.57742  0.19091  1.0000
  C   C4353     1.0  0.86517  0.58620  0.18423  1.0000
  C   C4354     1.0  0.86447  0.59740  0.18949  1.0000
  C   C4355     1.0  0.85478  0.59995  0.20138  1.0000
  C   C4356     1.0  0.87255  0.64047  0.19545  1.0000
  C   C4357     1.0  0.84655  0.58003  0.20275  1.0000
  H   H5201     1.0  0.87288  0.58417  0.17526  1.0000
  H   H5202     1.0  0.87153  0.60403  0.18440  1.0000
  H   H5203     1.0  0.88579  0.62520  0.08177  1.0000
  H   H5204     1.0  0.83968  0.57324  0.20801  1.0000
  H   H5205     1.0  0.86691  0.71523  0.15791  1.0000
  C   C4358     1.0  0.90933  0.66119  0.09547  1.0000
  C   C4359     1.0  0.91789  0.64871  0.09330  1.0000
  C   C4360     1.0  0.91646  0.64271  0.08345  1.0000
  C   C4361     1.0  0.90628  0.64899  0.07594  1.0000
  C   C4362     1.0  0.89754  0.66134  0.07831  1.0000
  C   C4363     1.0  0.89917  0.66749  0.08792  1.0000
  H   H5206     1.0  0.92572  0.64375  0.09908  1.0000
  H   H5207     1.0  0.92328  0.63317  0.08167  1.0000
  H   H5208     1.0  0.88968  0.66629  0.07256  1.0000
  H   H5209     1.0  0.89251  0.67714  0.08952  1.0000
  C   C4364     1.0  0.92453  0.60307  0.14241  1.0000
  C   C4365     1.0  0.91105  0.60138  0.14820  1.0000
  C   C4366     1.0  0.90564  0.59298  0.14366  1.0000
  C   C4367     1.0  0.91382  0.58605  0.13347  1.0000
  C   C4368     1.0  0.92707  0.58818  0.12738  1.0000
  C   C4369     1.0  0.93241  0.59664  0.13183  1.0000
  H   H5210     1.0  0.90495  0.60618  0.15652  1.0000
  H   H5211     1.0  0.89532  0.59161  0.14829  1.0000
  H   H5212     1.0  0.93345  0.58290  0.11948  1.0000
  H   H5213     1.0  0.94290  0.59767  0.12750  1.0000
  C   C4370     1.0  0.91194  0.68010  0.17473  1.0000
  C   C4371     1.0  0.91706  0.69046  0.16462  1.0000
  C   C4372     1.0  0.91591  0.70303  0.16769  1.0000
  C   C4373     1.0  0.90962  0.70524  0.18084  1.0000
  C   C4374     1.0  0.90465  0.69481  0.19087  1.0000
  C   C4375     1.0  0.90577  0.68233  0.18783  1.0000
  H   H5214     1.0  0.92166  0.68890  0.15441  1.0000
  H   H5215     1.0  0.91966  0.71113  0.15986  1.0000
  H   H5216     1.0  0.89996  0.69629  0.20108  1.0000
  H   H5217     1.0  0.90183  0.67438  0.19574  1.0000
  H   H5218     1.0  0.88643  0.65729  0.19626  1.0000
  H   H5219     1.0  0.87026  0.62157  0.09380  1.0000
  H   H5220     1.0  0.87152  0.60712  0.11647  1.0000
  H   H5221     1.0  0.88786  0.59819  0.12029  1.0000
  H   H5222     1.0  0.87378  0.64017  0.09732  1.0000
  H   H5223     1.0  0.86315  0.64309  0.20337  1.0000
  H   H5224     1.0  0.88120  0.63603  0.20074  1.0000
  N   N286      1.0  0.79808  0.72230  0.08872  1.0000
  H   H5225     1.0  0.81809  0.72547  0.08690  1.0000
  C   C4376     1.0  0.86909  0.70839  0.13969  1.0000
  H   H5226     1.0  0.84584  0.59825  0.16823  1.0000
  C   C4377     1.0  0.80220  0.70730  0.09272  1.0000
  C   C4378     1.0  0.80744  0.69876  0.08313  1.0000
  H   H5227     1.0  0.80495  0.68202  0.12135  1.0000
  C   C4379     1.0  0.81136  0.68464  0.08733  1.0000
  H   H5228     1.0  0.95220  0.68397  0.18444  1.0000
  C   C4380     1.0  0.81031  0.67862  0.10106  1.0000
  H   H5229     1.0  0.86405  0.68290  0.12684  1.0000
  H   H5230     1.0  0.92860  0.65308  0.99578  1.0000
  H   H5231     1.0  0.80759  0.49825  0.10063  1.0000
  H   H5232     1.0  0.77658  0.72209  0.09421  1.0000
  H   H5233     1.0  0.94732  0.68271  0.15050  1.0000
  H   H5234     1.0  0.90146  0.60275  0.19710  1.0000
  C   C4381     1.0  0.83521  0.62548  0.15770  1.0000
  C   C4382     1.0  0.84570  0.59135  0.20788  1.0000
  H   H5235     1.0  0.85613  0.53126  0.10708  1.0000
  H   H5236     1.0  0.80904  0.70268  0.07230  1.0000
  N   N287      1.0  0.95783  0.67484  0.16706  1.0000
  H   H5237     1.0  0.81579  0.67837  0.07981  1.0000
  H   H5238     1.0  0.97355  0.68514  0.16583  1.0000
  H   H5239     1.0  0.94414  0.65510  0.18309  1.0000
  C   C4383     1.0  0.89649  0.63204  0.12328  1.0000
  C   C4384     1.0  0.88481  0.69915  0.15481  1.0000
  C   C4385     1.0  0.80729  0.72855  0.09236  1.0000
  H   H5240     1.0  0.85992  0.71575  0.13768  1.0000
  H   H5241     1.0  0.81686  0.70088  0.18744  1.0000
  H   H5242     1.0  0.86569  0.51661  0.09029  1.0000
  H   H5243     1.0  0.91001  0.66378  0.02076  1.0000
  C   C4386     1.0  0.78378  0.72713  0.09601  1.0000
  H   H5244     1.0  0.82976  0.59366  0.17539  1.0000
  C   C4387     1.0  0.90686  0.65715  0.01607  1.0000
  H   H5245     1.0  0.85283  0.69733  0.20132  1.0000
  C   C4388     1.0  0.95506  0.65235  0.18267  1.0000
  C   C4389     1.0  0.83768  0.52366  0.11526  1.0000
  H   H5246     1.0  0.85326  0.65295  0.13083  1.0000
  C   C4390     1.0  0.84728  0.70132  0.19286  1.0000
  H   H5247     1.0  0.88165  0.67857  0.11792  1.0000
  H   H5248     1.0  0.87384  0.65766  0.10817  1.0000
  H   H5249     1.0  0.90305  0.63002  0.13033  1.0000
  H   H5250     1.0  0.83269  0.67791  0.15984  1.0000
  C   C4391     1.0  0.88135  0.61741  0.09011  1.0000
  H   H5251     1.0  0.84243  0.66136  0.01723  1.0000
  H   H5252     1.0  0.86144  0.72055  0.11482  1.0000
  H   H5253     1.0  0.88258  0.70428  0.09637  1.0000
  C   C4392     1.0  0.90410  0.61469  0.01194  1.0000
  H   H5254     1.0  0.91078  0.61837  0.02755  1.0000
  H   H5255     1.0  0.89041  0.65653  0.16602  1.0000
  H   H5256     1.0  0.85378  0.69661  0.18423  1.0000
  C   C4393     1.0  0.88232  0.60263  0.11190  1.0000
  C   C4394     1.0  0.83540  0.50609  0.10517  1.0000
  H   H5257     1.0  0.88215  0.59404  0.10771  1.0000
  N   N288      1.0  0.88883  0.61293  0.10126  1.0000
  N   N289      1.0  0.87506  0.65251  0.18446  1.0000
  C   C4395     1.0  0.80245  0.70730  0.22539  1.0000
  C   C4396     1.0  0.89269  0.69022  0.14643  1.0000
  H   H5258     1.0  0.90194  0.68325  0.14895  1.0000
  H   H5259     1.0  0.81537  0.51250  0.09182  1.0000
  C   C4397     1.0  0.87806  0.66222  0.19063  1.0000
  C   C4398     1.0  0.96824  0.68292  0.15911  1.0000
  H   H5260     1.0  0.90188  0.60503  0.01796  1.0000
  H   H5261     1.0  0.98536  0.66285  0.16912  1.0000
  C   C4399     1.0  0.88019  0.63735  0.10455  1.0000
  H   H5262     1.0  0.91035  0.63590  0.03660  1.0000
  H   H5263     1.0  0.79779  0.70661  0.11446  1.0000
  C   C4400     1.0  0.81385  0.50486  0.10154  1.0000
  H   H5264     1.0  0.83162  0.66011  0.14687  1.0000
  C   C4401     1.0  0.82972  0.63961  0.15704  1.0000
  C   C4402     1.0  0.82912  0.61671  0.18187  1.0000
  H   H5265     1.0  0.82309  0.62666  0.18423  1.0000
  H   H5266     1.0  0.85180  0.70759  0.12382  1.0000
  H   H5267     1.0  0.88839  0.65290  0.12474  1.0000
  H   H5268     1.0  0.88556  0.64062  0.16928  1.0000
  C   C4403     1.0  0.83812  0.65968  0.00970  1.0000
  N   N290      1.0  0.82849  0.61535  0.16839  1.0000
  H   H5269     1.0  0.86861  0.68651  0.10861  1.0000
  S   S1184     1.0  0.97171  0.66115  0.12456  1.0000
  H   H5270     1.0  0.90877  0.61413  0.08838  1.0000
  H   H5271     1.0  0.90331  0.61204  0.11976  1.0000
  H   H5272     1.0  0.80721  0.69543  0.21056  1.0000
  Fe  Fe593     1.0  0.82719  0.73383  0.13929  1.0000
  C   C4404     1.0  0.81982  0.71835  0.22546  1.0000
  Fe  Fe594     1.0  0.85878  0.73236  0.20975  1.0000
  H   H5273     1.0  0.83377  0.52984  0.12287  1.0000
  H   H5274     1.0  0.96352  0.69292  0.15330  1.0000
  H   H5275     1.0  0.87476  0.66688  0.98042  1.0000
  H   H5276     1.0  0.83588  0.49488  0.08378  1.0000
  S   S1185     1.0  0.87330  0.68141  0.22538  1.0000
  H   H5277     1.0  0.79195  0.72310  0.07049  1.0000
  H   H5278     1.0  0.89719  0.61342  0.99491  1.0000
  C   C4405     1.0  0.98308  0.64400  0.18225  1.0000
  C   C4406     1.0  0.83226  0.66705  0.98767  1.0000
  H   H5279     1.0  0.90500  0.66318  0.00599  1.0000
  H   H5280     1.0  0.95357  0.63273  0.19571  1.0000
  H   H5281     1.0  0.84110  0.67844  0.99592  1.0000
  H   H5282     1.0  0.89679  0.65523  0.02233  1.0000
  C   C4407     1.0  0.83736  0.66932  0.99765  1.0000
  N   N291      1.0  0.82722  0.49682  0.10464  1.0000
  C   C4408     1.0  0.98480  0.65632  0.13384  1.0000
  C   C4409     1.0  0.90149  0.61936  0.99895  1.0000
  H   H5283     1.0  0.93458  0.65319  0.01006  1.0000
  H   H5284     1.0  0.80753  0.51043  0.10962  1.0000
  S   S1186     1.0  0.81424  0.61907  0.21643  1.0000
  N   N292      1.0  0.83338  0.69830  0.19717  1.0000
  C   C4410     1.0  0.82681  0.70380  0.18540  1.0000
  Fe  Fe595     1.0  0.83319  0.62357  0.21862  1.0000
  C   C4411     1.0  0.83520  0.68331  0.20067  1.0000
  H   H5285     1.0  0.89643  0.64280  0.17879  1.0000
  H   H5286     1.0  0.82471  0.71511  0.18275  1.0000
  H   H5287     1.0  0.83336  0.69997  0.17628  1.0000
  H   H5288     1.0  0.87151  0.63213  0.19142  1.0000
  H   H5289     1.0  0.84676  0.71246  0.18933  1.0000
  C   C4412     1.0  0.87705  0.69959  0.13078  1.0000
  H   H5290     1.0  0.84185  0.67858  0.19213  1.0000
  H   H5291     1.0  0.84001  0.67886  0.20954  1.0000
  H   H5292     1.0  0.82537  0.67999  0.20325  1.0000
  C   C4413     1.0  0.82449  0.70419  0.20883  1.0000
  H   H5293     1.0  0.81842  0.49254  0.12634  1.0000
  C   C4414     1.0  0.84074  0.66042  0.17408  1.0000
  H   H5294     1.0  0.81302  0.61772  0.15752  1.0000
  H   H5295     1.0  0.93779  0.63752  0.00459  1.0000
  H   H5296     1.0  0.88178  0.67082  0.18296  1.0000
  C   C4415     1.0  0.86367  0.67159  0.16790  1.0000
  C   C4416     1.0  0.86341  0.65920  0.17772  1.0000
  C   C4417     1.0  0.88890  0.69040  0.13462  1.0000
  H   H5297     1.0  0.80152  0.65783  0.98932  1.0000
  H   H5298     1.0  0.85314  0.68764  0.15405  1.0000
  N   N293      1.0  0.87360  0.69998  0.11789  1.0000
  C   C4418     1.0  0.88817  0.64489  0.12019  1.0000
  C   C4419     1.0  0.88864  0.62412  0.10741  1.0000
  N   N294      1.0  0.90703  0.55767  0.17880  1.0000
  C   C4420     1.0  0.89584  0.55022  0.18548  1.0000
  C   C4421     1.0  0.90749  0.56131  0.16401  1.0000
  C   C4422     1.0  0.92014  0.54824  0.18113  1.0000
  C   C4423     1.0  0.90522  0.57004  0.18391  1.0000
  C   C4424     1.0  0.89445  0.57371  0.19498  1.0000
  C   C4425     1.0  0.91466  0.57868  0.17801  1.0000
  C   C4426     1.0  0.89321  0.58535  0.19967  1.0000
  C   C4427     1.0  0.91329  0.59031  0.18275  1.0000
  C   C4428     1.0  0.90256  0.59366  0.19353  1.0000
  H   H5299     1.0  0.88570  0.55682  0.18406  1.0000
  H   H5300     1.0  0.89719  0.54126  0.18112  1.0000
  H   H5301     1.0  0.89534  0.54635  0.19656  1.0000
  H   H5302     1.0  0.89794  0.56865  0.16180  1.0000
  H   H5303     1.0  0.90857  0.55228  0.15987  1.0000
  H   H5304     1.0  0.91631  0.56590  0.15793  1.0000
  H   H5305     1.0  0.92172  0.53862  0.17777  1.0000
  H   H5306     1.0  0.92915  0.55274  0.17543  1.0000
  H   H5307     1.0  0.92037  0.54559  0.19211  1.0000
  H   H5308     1.0  0.88665  0.56792  0.20008  1.0000
  H   H5309     1.0  0.92316  0.57660  0.16958  1.0000
  C   C4429     1.0  0.82860  0.71271  0.21465  1.0000
  H   H5310     1.0  0.92054  0.59683  0.17790  1.0000
  H   H5311     1.0  0.83856  0.71518  0.21109  1.0000
  C   C4430     1.0  0.88736  0.64791  0.17420  1.0000
  H   H5312     1.0  0.85831  0.70986  0.10590  1.0000
  C   C4431     1.0  0.88003  0.64754  0.11086  1.0000
  H   H5313     1.0  0.86322  0.62848  0.13125  1.0000
  C   C4432     1.0  0.86073  0.70995  0.11555  1.0000
  C   C4433     1.0  0.83611  0.64937  0.14732  1.0000
  H   H5314     1.0  0.92362  0.64471  0.03288  1.0000
  C   C4434     1.0  0.81390  0.61778  0.16784  1.0000
  H   H5315     1.0  0.82501  0.60873  0.19023  1.0000
  H   H5316     1.0  0.89474  0.69619  0.10670  1.0000
  C   C4435     1.0  0.85388  0.63160  0.13849  1.0000
  H   H5317     1.0  0.80773  0.62765  0.17039  1.0000
  S   S1187     1.0  0.85429  0.61385  0.20796  1.0000
  H   H5318     1.0  0.81376  0.66771  0.10420  1.0000
  C   C4436     1.0  0.84825  0.64536  0.13819  1.0000
  H   H5319     1.0  0.97845  0.62534  0.19526  1.0000
  C   C4437     1.0  0.84747  0.62177  0.14803  1.0000
  C   C4438     1.0  0.83032  0.51462  0.11473  1.0000
  C   C4439     1.0  0.91983  0.63790  0.02899  1.0000
  C   C4440     1.0  0.82779  0.65489  0.98953  1.0000
  H   H5320     1.0  0.85328  0.50082  0.08889  1.0000
  C   C4441     1.0  0.82889  0.64522  0.00189  1.0000
  H   H5321     1.0  0.82047  0.64321  0.16410  1.0000
  H   H5322     1.0  0.83824  0.59318  0.21709  1.0000
  C   C4442     1.0  0.90318  0.60640  0.09552  1.0000
  C   C4443     1.0  0.83501  0.60105  0.16722  1.0000
  H   H5323     1.0  0.85228  0.61132  0.14753  1.0000
  C   C4444     1.0  0.86889  0.63565  0.98370  1.0000
  N   N295      1.0  0.91705  0.64415  0.01522  1.0000
  C   C4445     1.0  0.93006  0.64710  0.00600  1.0000
  H   H5324     1.0  0.83228  0.63048  0.98256  1.0000
  C   C4446     1.0  0.91179  0.63544  0.00982  1.0000
  H   H5325     1.0  0.97603  0.67755  0.15149  1.0000
  C   C4447     1.0  0.85032  0.52446  0.10638  1.0000
  C   C4448     1.0  0.80867  0.64917  0.98501  1.0000
  H   H5326     1.0  0.93861  0.67825  0.18188  1.0000
  H   H5327     1.0  0.88793  0.69921  0.16382  1.0000
  Fe  Fe596     1.0  0.87263  0.70369  0.22224  1.0000
  C   C4449     1.0  0.96369  0.66140  0.17485  1.0000
  C   C4450     1.0  0.95096  0.67294  0.15733  1.0000
  C   C4451     1.0  0.87297  0.70814  0.15149  1.0000
  H   H5328     1.0  0.94185  0.66848  0.16249  1.0000
  C   C4452     1.0  0.80534  0.68669  0.11070  1.0000
  H   H5329     1.0  0.94335  0.69334  0.17112  1.0000
  C   C4453     1.0  0.90921  0.62254  0.01735  1.0000
  H   H5330     1.0  0.88662  0.71375  0.10612  1.0000
  C   C4454     1.0  0.98612  0.64440  0.14389  1.0000
  C   C4455     1.0  0.97791  0.65685  0.17490  1.0000
  H   H5331     1.0  0.90131  0.63576  0.98144  1.0000
  C   C4456     1.0  0.94758  0.68292  0.17653  1.0000
  C   C4457     1.0  0.83392  0.64765  0.01181  1.0000
  H   H5332     1.0  0.78275  0.72525  0.10717  1.0000
  H   H5333     1.0  0.82613  0.63556  0.00386  1.0000
  H   H5334     1.0  0.80936  0.72493  0.06783  1.0000
  H   H5335     1.0  0.92771  0.62821  0.02910  1.0000
  C   C4458     1.0  0.87283  0.65687  0.98530  1.0000
  H   H5336     1.0  0.80704  0.72564  0.10343  1.0000
  C   C4459     1.0  0.81110  0.70172  0.21449  1.0000
  H   H5337     1.0  0.86499  0.48873  0.12537  1.0000
  H   H5338     1.0  0.82070  0.51422  0.12204  1.0000
  C   C4460     1.0  0.83400  0.48846  0.09421  1.0000
  S   S1188     1.0  0.82592  0.73058  0.11939  1.0000
  H   H5339     1.0  0.91004  0.64983  0.99054  1.0000
  C   C4461     1.0  0.82462  0.48731  0.11797  1.0000
  C   C4462     1.0  0.97434  0.63534  0.18972  1.0000
  C   C4463     1.0  0.90887  0.63992  0.99667  1.0000
  S   S1189     1.0  0.89057  0.71057  0.22383  1.0000
  H   H5340     1.0  0.86623  0.65691  0.22554  1.0000
  H   H5341     1.0  0.99211  0.64303  0.10431  1.0000
  H   H5342     1.0  0.82322  0.72486  0.22965  1.0000
  C   C4464     1.0  0.85689  0.66389  0.22914  1.0000
  H   H5343     1.0  0.79236  0.70507  0.22963  1.0000
  S   S1190     1.0  0.79689  0.64581  0.22944  1.0000
  H   H5344     1.0  0.99345  0.67373  0.12298  1.0000
  H   H5345     1.0  0.87335  0.48505  0.15335  1.0000
  H   H5346     1.0  0.99402  0.64067  0.18186  1.0000
  Fe  Fe597     1.0  0.56186  0.65508  0.34729  1.0000
  S   S1191     1.0  0.54579  0.66194  0.36492  1.0000
  S   S1192     1.0  0.57487  0.66777  0.33055  1.0000
  Fe  Fe598     1.0  0.55818  0.62609  0.35657  1.0000
  S   S1193     1.0  0.54181  0.63062  0.37478  1.0000
  S   S1194     1.0  0.56373  0.60435  0.35459  1.0000
  Fe  Fe599     1.0  0.53353  0.64951  0.36059  1.0000
  Fe  Fe600     1.0  0.55561  0.64234  0.37733  1.0000
  S   S1195     1.0  0.56096  0.63732  0.39782  1.0000
  S   S1196     1.0  0.54897  0.64406  0.34207  1.0000
  S   S1197     1.0  0.57255  0.63652  0.35997  1.0000
  Fe  Fe601     1.0  0.63516  0.56507  0.35179  1.0000
  S   S1198     1.0  0.62185  0.55459  0.37012  1.0000
  S   S1199     1.0  0.62755  0.58295  0.33616  1.0000
  Fe  Fe602     1.0  0.66128  0.54908  0.36057  1.0000
  S   S1200     1.0  0.65005  0.53761  0.37987  1.0000
  S   S1201     1.0  0.68424  0.54275  0.35482  1.0000
  Fe  Fe603     1.0  0.63750  0.53537  0.36662  1.0000
  S   S1202     1.0  0.63308  0.51430  0.37114  1.0000
  Fe  Fe604     1.0  0.63560  0.55774  0.38155  1.0000
  S   S1203     1.0  0.62495  0.56639  0.40033  1.0000
  S   S1204     1.0  0.64966  0.54572  0.34719  1.0000
  S   S1205     1.0  0.64800  0.56940  0.36335  1.0000
  Fe  Fe605     1.0  0.65404  0.64763  0.41364  1.0000
  S   S1206     1.0  0.63441  0.66018  0.42322  1.0000
  S   S1207     1.0  0.67246  0.65419  0.39864  1.0000
  Fe  Fe606     1.0  0.64353  0.62160  0.42434  1.0000
  S   S1208     1.0  0.65338  0.60007  0.42164  1.0000
  Fe  Fe607     1.0  0.62386  0.64847  0.41594  1.0000
  S   S1209     1.0  0.60891  0.66069  0.40260  1.0000
  S   S1210     1.0  0.64357  0.63722  0.40497  1.0000
  S   S1211     1.0  0.65542  0.63131  0.43247  1.0000
  Fe  Fe608     1.0  0.73208  0.72571  0.36776  1.0000
  H   H5347     1.0  0.68710  0.67619  0.33460  1.0000
  H   H5348     1.0  0.63053  0.48682  0.37623  1.0000
  C   C4465     1.0  0.51048  0.61627  0.37183  1.0000
  Fe  Fe609     1.0  0.61014  0.72136  0.33306  1.0000
  S   S1212     1.0  0.62592  0.70709  0.32108  1.0000
  S   S1213     1.0  0.58867  0.71800  0.34205  1.0000
  C   C4466     1.0  0.51115  0.60782  0.36306  1.0000
  H   H5349     1.0  0.68396  0.67766  0.43594  1.0000
  Fe  Fe610     1.0  0.63840  0.70533  0.33593  1.0000
  S   S1214     1.0  0.64906  0.68561  0.34733  1.0000
  S   S1215     1.0  0.62221  0.71860  0.34858  1.0000
  H   H5350     1.0  0.80008  0.71991  0.23930  1.0000
  H   H5351     1.0  0.51761  0.69416  0.31750  1.0000
  Fe  Fe611     1.0  0.72545  0.70662  0.35411  1.0000
  S   S1216     1.0  0.70263  0.71391  0.36067  1.0000
  S   S1217     1.0  0.73537  0.69294  0.33909  1.0000
  H   H5352     1.0  0.51818  0.59720  0.33968  1.0000
  Fe  Fe612     1.0  0.70724  0.71279  0.38063  1.0000
  S   S1218     1.0  0.69208  0.70561  0.39960  1.0000
  C   C4467     1.0  0.67297  0.70347  0.30311  1.0000
  S   S1219     1.0  0.72993  0.70386  0.37454  1.0000
  H   H5353     1.0  0.67137  0.69612  0.34280  1.0000
  S   S1220     1.0  0.70978  0.73437  0.37565  1.0000
  S   S1221     1.0  0.81619  0.66505  0.24066  1.0000
  H   H5354     1.0  0.71338  0.66721  0.29286  1.0000
  S   S1222     1.0  0.79207  0.61092  0.25446  1.0000
  S   S1223     1.0  0.82449  0.62589  0.24031  1.0000
  Fe  Fe613     1.0  0.71798  0.60623  0.32408  1.0000
  S   S1224     1.0  0.71234  0.61872  0.30451  1.0000
  S   S1225     1.0  0.72400  0.58348  0.32779  1.0000
  Fe  Fe614     1.0  0.71505  0.63062  0.33537  1.0000
  S   S1226     1.0  0.70884  0.64527  0.31714  1.0000
  S   S1227     1.0  0.71558  0.63798  0.35332  1.0000
  Fe  Fe615     1.0  0.69608  0.63107  0.31799  1.0000
  S   S1228     1.0  0.67541  0.64026  0.31334  1.0000
  Fe  Fe616     1.0  0.72572  0.63185  0.30509  1.0000
  S   S1229     1.0  0.73720  0.64348  0.28602  1.0000
  S   S1230     1.0  0.70043  0.61754  0.33757  1.0000
  S   S1231     1.0  0.73316  0.61822  0.32338  1.0000
  C   C4468     1.0  0.77586  0.61934  0.26246  1.0000
  C   C4469     1.0  0.76935  0.61314  0.27539  1.0000
  C   C4470     1.0  0.75716  0.62029  0.28256  1.0000
  C   C4471     1.0  0.75146  0.63366  0.27678  1.0000
  C   C4472     1.0  0.75765  0.63966  0.26367  1.0000
  C   C4473     1.0  0.76973  0.63247  0.25648  1.0000
  H   H5355     1.0  0.77395  0.60292  0.28003  1.0000
  H   H5356     1.0  0.75239  0.61555  0.29267  1.0000
  H   H5357     1.0  0.75320  0.64995  0.25909  1.0000
  H   H5358     1.0  0.77429  0.63713  0.24635  1.0000
  C   C4474     1.0  0.73075  0.67717  0.34334  1.0000
  C   C4475     1.0  0.72446  0.67187  0.35666  1.0000
  C   C4476     1.0  0.72025  0.65958  0.35969  1.0000
  C   C4477     1.0  0.72194  0.65276  0.34938  1.0000
  C   C4478     1.0  0.72828  0.65804  0.33606  1.0000
  C   C4479     1.0  0.73275  0.67018  0.33307  1.0000
  H   H5359     1.0  0.72295  0.67719  0.36463  1.0000
  H   H5360     1.0  0.71559  0.65538  0.37003  1.0000
  H   H5361     1.0  0.72974  0.65275  0.32808  1.0000
  H   H5362     1.0  0.73757  0.67430  0.32275  1.0000
  H   H5363     1.0  0.67718  0.71120  0.34052  1.0000
  C   C4480     1.0  0.50838  0.64316  0.34341  1.0000
  C   C4481     1.0  0.67195  0.51234  0.34887  1.0000
  H   H5364     1.0  0.70652  0.69589  0.34238  1.0000
  C   C4482     1.0  0.65575  0.67275  0.33816  1.0000
  C   C4483     1.0  0.66578  0.66163  0.34251  1.0000
  C   C4484     1.0  0.67185  0.65161  0.33486  1.0000
  C   C4485     1.0  0.66751  0.65247  0.32314  1.0000
  C   C4486     1.0  0.65711  0.66331  0.31908  1.0000
  C   C4487     1.0  0.65149  0.67363  0.32640  1.0000
  H   H5365     1.0  0.66911  0.66092  0.35162  1.0000
  H   H5366     1.0  0.67983  0.64321  0.33809  1.0000
  H   H5367     1.0  0.65361  0.66386  0.31012  1.0000
  H   H5368     1.0  0.64377  0.68216  0.32299  1.0000
  H   H5369     1.0  0.67253  0.51530  0.37256  1.0000
  S   S1232     1.0  0.51067  0.65714  0.36133  1.0000
  H   H5370     1.0  0.52744  0.58537  0.37394  1.0000
  H   H5371     1.0  0.69464  0.51148  0.35538  1.0000
  H   H5372     1.0  0.68658  0.57231  0.38673  1.0000
  H   H5373     1.0  0.67860  0.58697  0.29178  1.0000
  C   C4488     1.0  0.68423  0.65167  0.43365  1.0000
  H   H5374     1.0  0.59238  0.68571  0.31450  1.0000
  H   H5375     1.0  0.68911  0.59725  0.30432  1.0000
  H   H5376     1.0  0.67664  0.51062  0.33839  1.0000
  C   C4489     1.0  0.67713  0.66901  0.39865  1.0000
  C   C4490     1.0  0.68889  0.67237  0.38934  1.0000
  C   C4491     1.0  0.69337  0.68376  0.38939  1.0000
  C   C4492     1.0  0.68607  0.69187  0.39879  1.0000
  C   C4493     1.0  0.67398  0.68882  0.40778  1.0000
  C   C4494     1.0  0.66947  0.67740  0.40770  1.0000
  H   H5377     1.0  0.69468  0.66601  0.38219  1.0000
  H   H5378     1.0  0.70268  0.68607  0.38240  1.0000
  H   H5379     1.0  0.66814  0.69532  0.41480  1.0000
  H   H5380     1.0  0.66023  0.67499  0.41475  1.0000
  C   C4495     1.0  0.63418  0.50395  0.35985  1.0000
  C   C4496     1.0  0.63676  0.50863  0.34573  1.0000
  C   C4497     1.0  0.63774  0.49990  0.33722  1.0000
  C   C4498     1.0  0.67484  0.67838  0.28492  1.0000
  H   H5381     1.0  0.67467  0.66955  0.29316  1.0000
  H   H5382     1.0  0.53794  0.71663  0.35952  1.0000
  H   H5383     1.0  0.63792  0.51896  0.34137  1.0000
  H   H5384     1.0  0.63974  0.50358  0.32631  1.0000
  H   H5385     1.0  0.66025  0.65641  0.47148  1.0000
  C   C4499     1.0  0.52355  0.59153  0.34807  1.0000
  C   C4500     1.0  0.63303  0.57637  0.40526  1.0000
  C   C4501     1.0  0.62502  0.58717  0.41147  1.0000
  C   C4502     1.0  0.63121  0.59493  0.41596  1.0000
  C   C4503     1.0  0.64539  0.59150  0.41487  1.0000
  C   C4504     1.0  0.65338  0.58061  0.40879  1.0000
  C   C4505     1.0  0.64727  0.57329  0.40368  1.0000
  H   H5386     1.0  0.61401  0.58957  0.41283  1.0000
  H   H5387     1.0  0.62495  0.60321  0.42076  1.0000
  H   H5388     1.0  0.66428  0.57761  0.40829  1.0000
  H   H5389     1.0  0.65349  0.56484  0.39913  1.0000
  C   C4506     1.0  0.69461  0.55475  0.34774  1.0000
  C   C4507     1.0  0.68966  0.56864  0.34784  1.0000
  C   C4508     1.0  0.69853  0.57774  0.34179  1.0000
  C   C4509     1.0  0.71227  0.57289  0.33568  1.0000
  C   C4510     1.0  0.71710  0.55903  0.33581  1.0000
  C   C4511     1.0  0.70834  0.55003  0.34180  1.0000
  H   H5390     1.0  0.67913  0.57231  0.35272  1.0000
  H   H5391     1.0  0.69483  0.58840  0.34201  1.0000
  H   H5392     1.0  0.72771  0.55520  0.33121  1.0000
  H   H5393     1.0  0.71227  0.53933  0.34177  1.0000
  H   H5394     1.0  0.51942  0.64139  0.34020  1.0000
  C   C4512     1.0  0.57369  0.64436  0.39961  1.0000
  C   C4513     1.0  0.58070  0.63796  0.41013  1.0000
  C   C4514     1.0  0.59150  0.64288  0.41123  1.0000
  C   C4515     1.0  0.59504  0.65449  0.40207  1.0000
  C   C4516     1.0  0.58761  0.66124  0.39194  1.0000
  C   C4517     1.0  0.57710  0.65608  0.39058  1.0000
  H   H5395     1.0  0.57798  0.62898  0.41726  1.0000
  H   H5396     1.0  0.59707  0.63770  0.41917  1.0000
  H   H5397     1.0  0.59001  0.67047  0.38510  1.0000
  H   H5398     1.0  0.57152  0.66126  0.38266  1.0000
  C   C4518     1.0  0.58129  0.59843  0.34834  1.0000
  C   C4519     1.0  0.58697  0.58445  0.35099  1.0000
  C   C4520     1.0  0.60117  0.57960  0.34697  1.0000
  C   C4521     1.0  0.60967  0.58871  0.34009  1.0000
  C   C4522     1.0  0.60388  0.60264  0.33679  1.0000
  C   C4523     1.0  0.58972  0.60753  0.34113  1.0000
  H   H5399     1.0  0.58046  0.57737  0.35645  1.0000
  H   H5400     1.0  0.60554  0.56881  0.34922  1.0000
  H   H5401     1.0  0.61036  0.60970  0.33116  1.0000
  H   H5402     1.0  0.58534  0.61832  0.33881  1.0000
  C   C4524     1.0  0.57908  0.68126  0.33424  1.0000
  C   C4525     1.0  0.57356  0.68494  0.34683  1.0000
  C   C4526     1.0  0.57686  0.69600  0.34931  1.0000
  C   C4527     1.0  0.58572  0.70339  0.33925  1.0000
  C   C4528     1.0  0.59149  0.69948  0.32679  1.0000
  C   C4529     1.0  0.58812  0.68849  0.32427  1.0000
  H   H5403     1.0  0.56658  0.67944  0.35457  1.0000
  H   H5404     1.0  0.57232  0.69903  0.35895  1.0000
  H   H5405     1.0  0.59814  0.70526  0.31889  1.0000
  H   H5406     1.0  0.65207  0.70609  0.27238  1.0000
  C   C4530     1.0  0.66085  0.59965  0.31062  1.0000
  C   C4531     1.0  0.63871  0.62248  0.30711  1.0000
  C   C4532     1.0  0.68471  0.59060  0.31388  1.0000
  C   C4533     1.0  0.65115  0.62422  0.30805  1.0000
  H   H5407     1.0  0.69658  0.65595  0.27186  1.0000
  C   C4534     1.0  0.67563  0.58014  0.30180  1.0000
  H   H5408     1.0  0.65559  0.67414  0.46519  1.0000
  H   H5409     1.0  0.66662  0.67720  0.43615  1.0000
  H   H5410     1.0  0.70175  0.71156  0.33113  1.0000
  C   C4535     1.0  0.63722  0.60955  0.30769  1.0000
  C   C4536     1.0  0.66210  0.61302  0.30981  1.0000
  H   H5411     1.0  0.66703  0.57606  0.30137  1.0000
  H   H5412     1.0  0.65818  0.57455  0.32586  1.0000
  H   H5413     1.0  0.66068  0.73045  0.37027  1.0000
  H   H5414     1.0  0.66402  0.58342  0.33464  1.0000
  H   H5415     1.0  0.51045  0.69756  0.34591  1.0000
  C   C4537     1.0  0.64812  0.59832  0.30930  1.0000
  H   H5416     1.0  0.67530  0.56896  0.32830  1.0000
  C   C4538     1.0  0.68855  0.63964  0.42884  1.0000
  N   N296      1.0  0.59336  0.59608  0.38670  1.0000
  C   C4539     1.0  0.59729  0.58384  0.38079  1.0000
  C   C4540     1.0  0.58764  0.59192  0.40145  1.0000
  C   C4541     1.0  0.58243  0.60581  0.38026  1.0000
  C   C4542     1.0  0.60494  0.60258  0.38464  1.0000
  C   C4543     1.0  0.60268  0.61474  0.38917  1.0000
  C   C4544     1.0  0.61870  0.59690  0.37868  1.0000
  C   C4545     1.0  0.61352  0.62064  0.38815  1.0000
  C   C4546     1.0  0.62949  0.60281  0.37779  1.0000
  C   C4547     1.0  0.62691  0.61462  0.38256  1.0000
  H   H5417     1.0  0.60453  0.57551  0.38602  1.0000
  H   H5418     1.0  0.58830  0.57962  0.38177  1.0000
  H   H5419     1.0  0.60212  0.58621  0.36980  1.0000
  H   H5420     1.0  0.59565  0.58464  0.40663  1.0000
  H   H5421     1.0  0.57903  0.58683  0.40342  1.0000
  H   H5422     1.0  0.58359  0.60073  0.40650  1.0000
  H   H5423     1.0  0.58659  0.60948  0.36927  1.0000
  H   H5424     1.0  0.57381  0.60110  0.38106  1.0000
  H   H5425     1.0  0.57774  0.61474  0.38505  1.0000
  H   H5426     1.0  0.59252  0.61953  0.39392  1.0000
  H   H5427     1.0  0.62149  0.58755  0.37514  1.0000
  H   H5428     1.0  0.61156  0.62966  0.39212  1.0000
  H   H5429     1.0  0.63996  0.59793  0.37377  1.0000
  H   H5430     1.0  0.63534  0.61895  0.38221  1.0000
  N   N297      1.0  0.67440  0.66405  0.45327  1.0000
  C   C4548     1.0  0.70332  0.67367  0.29092  1.0000
  H   H5431     1.0  0.53384  0.61808  0.35155  1.0000
  H   H5432     1.0  0.70692  0.56997  0.36773  1.0000
  H   H5433     1.0  0.68469  0.66094  0.42605  1.0000
  C   C4549     1.0  0.53355  0.70550  0.34734  1.0000
  H   H5434     1.0  0.54762  0.68231  0.31895  1.0000
  C   C4550     1.0  0.83218  0.66912  0.23727  1.0000
  C   C4551     1.0  0.68841  0.62714  0.43789  1.0000
  H   H5435     1.0  0.66066  0.51333  0.35093  1.0000
  H   H5436     1.0  0.69437  0.66371  0.45554  1.0000
  H   H5437     1.0  0.69923  0.67613  0.34358  1.0000
  H   H5438     1.0  0.51967  0.61803  0.37322  1.0000
  H   H5439     1.0  0.71076  0.67397  0.25727  1.0000
  H   H5440     1.0  0.71865  0.58899  0.35703  1.0000
  C   C4552     1.0  0.69295  0.50123  0.35609  1.0000
  C   C4553     1.0  0.53957  0.68029  0.32833  1.0000
  C   C4554     1.0  0.68409  0.62661  0.45181  1.0000
  H   H5441     1.0  0.84581  0.69547  0.23615  1.0000
  Fe  Fe617     1.0  0.87508  0.72860  0.23078  1.0000
  C   C4555     1.0  0.63584  0.64508  0.47590  1.0000
  S   S1233     1.0  0.64458  0.72928  0.28719  1.0000
  H   H5442     1.0  0.51323  0.68212  0.34050  1.0000
  Fe  Fe618     1.0  0.80476  0.62360  0.23724  1.0000
  H   H5443     1.0  0.66048  0.50487  0.37546  1.0000
  H   H5444     1.0  0.89598  0.72692  0.29336  1.0000
  Fe  Fe619     1.0  0.63457  0.72544  0.30955  1.0000
  H   H5445     1.0  0.92832  0.72816  0.29378  1.0000
  H   H5446     1.0  0.70352  0.68443  0.29008  1.0000
  C   C4556     1.0  0.66036  0.66431  0.46194  1.0000
  H   H5447     1.0  0.54297  0.58668  0.36103  1.0000
  C   C4557     1.0  0.63254  0.49054  0.36533  1.0000
  C   C4558     1.0  0.49844  0.60678  0.36133  1.0000
  H   H5448     1.0  0.51800  0.58359  0.35471  1.0000
  H   H5449     1.0  0.53385  0.58618  0.34315  1.0000
  C   C4559     1.0  0.67161  0.50496  0.37261  1.0000
  C   C4560     1.0  0.80679  0.71562  0.23085  1.0000
  C   C4561     1.0  0.50156  0.65077  0.35335  1.0000
  C   C4562     1.0  0.89872  0.72290  0.27391  1.0000
  H   H5450     1.0  0.69183  0.64008  0.41798  1.0000
  C   C4563     1.0  0.84423  0.66012  0.23252  1.0000
  C   C4564     1.0  0.65504  0.72246  0.37316  1.0000
  H   H5451     1.0  0.71472  0.68457  0.26608  1.0000
  C   C4565     1.0  0.68833  0.70136  0.31789  1.0000
  C   C4566     1.0  0.51851  0.68866  0.34308  1.0000
  C   C4567     1.0  0.67933  0.71302  0.29321  1.0000
  C   C4568     1.0  0.71250  0.67453  0.26708  1.0000
  H   H5452     1.0  0.51650  0.71002  0.32168  1.0000
  C   C4569     1.0  0.67978  0.63858  0.45671  1.0000
  C   C4570     1.0  0.67742  0.69765  0.31522  1.0000
  C   C4571     1.0  0.66717  0.57821  0.32598  1.0000
  H   H5453     1.0  0.89164  0.71616  0.27756  1.0000
  S   S1234     1.0  0.62272  0.63198  0.43499  1.0000
  H   H5454     1.0  0.68301  0.69605  0.35237  1.0000
  H   H5455     1.0  0.55155  0.70345  0.31497  1.0000
  Fe  Fe620     1.0  0.63476  0.64298  0.44168  1.0000
  C   C4572     1.0  0.49792  0.62304  0.37860  1.0000
  H   H5456     1.0  0.69154  0.61786  0.43411  1.0000
  H   H5457     1.0  0.52246  0.68249  0.35223  1.0000
  C   C4573     1.0  0.69484  0.71093  0.30744  1.0000
  H   H5458     1.0  0.67657  0.63765  0.46759  1.0000
  H   H5459     1.0  0.85824  0.73367  0.33956  1.0000
  H   H5460     1.0  0.65230  0.63431  0.30759  1.0000
  S   S1235     1.0  0.72916  0.72768  0.34686  1.0000
  H   H5461     1.0  0.62747  0.60811  0.30717  1.0000
  C   C4574     1.0  0.66182  0.69907  0.27333  1.0000
  C   C4575     1.0  0.53203  0.61105  0.34634  1.0000
  H   H5462     1.0  0.64632  0.58849  0.30993  1.0000
  C   C4576     1.0  0.65464  0.69856  0.37977  1.0000
  C   C4577     1.0  0.50087  0.63792  0.33756  1.0000
  H   H5463     1.0  0.69651  0.62998  0.39309  1.0000
  C   C4578     1.0  0.66189  0.70890  0.37588  1.0000
  H   H5464     1.0  0.69329  0.65364  0.29003  1.0000
  H   H5465     1.0  0.54504  0.67497  0.33665  1.0000
  H   H5466     1.0  0.68390  0.61688  0.45885  1.0000
  H   H5467     1.0  0.65342  0.66260  0.45648  1.0000
  H   H5468     1.0  0.50619  0.63202  0.32989  1.0000
  C   C4579     1.0  0.68044  0.69995  0.34218  1.0000
  H   H5469     1.0  0.68441  0.57124  0.30298  1.0000
  C   C4580     1.0  0.63612  0.48646  0.34272  1.0000
  C   C4581     1.0  0.70396  0.70035  0.33225  1.0000
  N   N298      1.0  0.67812  0.50133  0.35918  1.0000
  H   H5470     1.0  0.69525  0.67091  0.30006  1.0000
  N   N299      1.0  0.67196  0.58745  0.31301  1.0000
  C   C4582     1.0  0.64092  0.72576  0.37423  1.0000
  C   C4583     1.0  0.54059  0.71387  0.34973  1.0000
  C   C4584     1.0  0.55123  0.71851  0.33967  1.0000
  H   H5471     1.0  0.66559  0.49347  0.34275  1.0000
  S   S1236     1.0  0.64870  0.72223  0.32336  1.0000
  H   H5472     1.0  0.63019  0.63115  0.30599  1.0000
  C   C4585     1.0  0.63351  0.71551  0.37849  1.0000
  C   C4586     1.0  0.53703  0.70154  0.33465  1.0000
  N   N300      1.0  0.79624  0.64227  0.27817  1.0000
  C   C4587     1.0  0.79832  0.62745  0.27924  1.0000
  C   C4588     1.0  0.79014  0.64974  0.26631  1.0000
  C   C4589     1.0  0.81001  0.64529  0.27534  1.0000
  C   C4590     1.0  0.78684  0.64616  0.29067  1.0000
  C   C4591     1.0  0.79045  0.65280  0.29886  1.0000
  C   C4592     1.0  0.77347  0.64348  0.29491  1.0000
  C   C4593     1.0  0.78124  0.65630  0.31062  1.0000
  C   C4594     1.0  0.76436  0.64702  0.30665  1.0000
  C   C4595     1.0  0.76825  0.65338  0.31452  1.0000
  H   H5473     1.0  0.80543  0.62411  0.27004  1.0000
  H   H5474     1.0  0.80258  0.62144  0.28824  1.0000
  H   H5475     1.0  0.78867  0.62441  0.28019  1.0000
  H   H5476     1.0  0.78866  0.66092  0.26494  1.0000
  H   H5477     1.0  0.78004  0.64760  0.26727  1.0000
  H   H5478     1.0  0.79683  0.64690  0.25675  1.0000
  H   H5479     1.0  0.81536  0.63985  0.28375  1.0000
  H   H5480     1.0  0.81680  0.64208  0.26592  1.0000
  H   H5481     1.0  0.80937  0.65640  0.27349  1.0000
  H   H5482     1.0  0.80030  0.65541  0.29641  1.0000
  H   H5483     1.0  0.76990  0.63863  0.28913  1.0000
  H   H5484     1.0  0.78415  0.66135  0.31676  1.0000
  H   H5485     1.0  0.75421  0.64480  0.30963  1.0000
  H   H5486     1.0  0.76119  0.65607  0.32367  1.0000
  N   N301      1.0  0.63201  0.69091  0.38688  1.0000
  C   C4596     1.0  0.64060  0.67692  0.38715  1.0000
  C   C4597     1.0  0.62455  0.69186  0.40097  1.0000
  C   C4598     1.0  0.62179  0.69276  0.37873  1.0000
  C   C4599     1.0  0.64014  0.70156  0.38135  1.0000
  C   C4600     1.0  0.70012  0.65743  0.28030  1.0000
  H   H5487     1.0  0.65279  0.68501  0.29019  1.0000
  H   H5488     1.0  0.82348  0.68869  0.24251  1.0000
  H   H5489     1.0  0.70497  0.61225  0.39670  1.0000
  H   H5490     1.0  0.62252  0.71869  0.37967  1.0000
  H   H5491     1.0  0.64741  0.67407  0.39441  1.0000
  H   H5492     1.0  0.63427  0.66914  0.39053  1.0000
  H   H5493     1.0  0.64702  0.67581  0.37689  1.0000
  H   H5494     1.0  0.61831  0.68398  0.40562  1.0000
  H   H5495     1.0  0.61736  0.70190  0.40142  1.0000
  H   H5496     1.0  0.63180  0.69046  0.40752  1.0000
  H   H5497     1.0  0.62686  0.69285  0.36791  1.0000
  H   H5498     1.0  0.61612  0.68441  0.38240  1.0000
  H   H5499     1.0  0.61375  0.70224  0.37925  1.0000
  H   H5500     1.0  0.66063  0.68830  0.38171  1.0000
  H   H5501     1.0  0.67634  0.49793  0.38091  1.0000
  H   H5502     1.0  0.53438  0.67304  0.32683  1.0000
  H   H5503     1.0  0.54231  0.60620  0.34091  1.0000
  H   H5504     1.0  0.53588  0.59902  0.37112  1.0000
  C   C4601     1.0  0.69033  0.71664  0.29530  1.0000
  H   H5505     1.0  0.53146  0.70265  0.31037  1.0000
  H   H5506     1.0  0.66969  0.68599  0.44697  1.0000
  H   H5507     1.0  0.68386  0.65554  0.47054  1.0000
  H   H5508     1.0  0.72215  0.66693  0.26868  1.0000
  C   C4602     1.0  0.53301  0.59261  0.36597  1.0000
  H   H5509     1.0  0.70325  0.71439  0.30849  1.0000
  C   C4603     1.0  0.67395  0.70211  0.26471  1.0000
  H   H5510     1.0  0.68035  0.67365  0.46575  1.0000
  C   C4604     1.0  0.52358  0.70025  0.31978  1.0000
  H   H5511     1.0  0.52553  0.70217  0.35565  1.0000
  C   C4605     1.0  0.67944  0.65151  0.44778  1.0000
  C   C4606     1.0  0.55499  0.71469  0.32722  1.0000
  H   H5512     1.0  0.71059  0.61012  0.36523  1.0000
  H   H5513     1.0  0.65159  0.62870  0.46885  1.0000
  H   H5514     1.0  0.52618  0.61732  0.33854  1.0000
  H   H5515     1.0  0.69557  0.69637  0.25917  1.0000
  H   H5516     1.0  0.49771  0.62984  0.38483  1.0000
  H   H5517     1.0  0.67350  0.71148  0.25703  1.0000
  C   C4607     1.0  0.68660  0.69329  0.26609  1.0000
  N   N302      1.0  0.61333  0.65604  0.35368  1.0000
  C   C4608     1.0  0.61459  0.66722  0.34148  1.0000
  C   C4609     1.0  0.59852  0.65595  0.35880  1.0000
  C   C4610     1.0  0.61805  0.65913  0.36437  1.0000
  C   C4611     1.0  0.62186  0.64304  0.35015  1.0000
  C   C4612     1.0  0.61624  0.63183  0.35107  1.0000
  C   C4613     1.0  0.63629  0.64135  0.34549  1.0000
  C   C4614     1.0  0.62466  0.61976  0.34756  1.0000
  C   C4615     1.0  0.64459  0.62926  0.34195  1.0000
  C   C4616     1.0  0.63877  0.61848  0.34300  1.0000
  H   H5518     1.0  0.61129  0.66524  0.33312  1.0000
  H   H5519     1.0  0.60809  0.67714  0.34370  1.0000
  H   H5520     1.0  0.62524  0.66871  0.33754  1.0000
  H   H5521     1.0  0.59404  0.65459  0.35092  1.0000
  H   H5522     1.0  0.59243  0.66575  0.36159  1.0000
  H   H5523     1.0  0.59675  0.64783  0.36808  1.0000
  H   H5524     1.0  0.61768  0.65078  0.37362  1.0000
  H   H5525     1.0  0.62869  0.66078  0.36090  1.0000
  H   H5526     1.0  0.61153  0.66860  0.36759  1.0000
  H   H5527     1.0  0.60540  0.63206  0.35451  1.0000
  H   H5528     1.0  0.64127  0.64943  0.34449  1.0000
  H   H5529     1.0  0.62026  0.61123  0.34857  1.0000
  H   H5530     1.0  0.65559  0.62828  0.33831  1.0000
  H   H5531     1.0  0.64517  0.60911  0.34025  1.0000
  C   C4617     1.0  0.54805  0.70632  0.32471  1.0000
  H   H5532     1.0  0.70442  0.67700  0.32560  1.0000
  C   C4618     1.0  0.67368  0.67673  0.44258  1.0000
  H   H5533     1.0  0.67351  0.52239  0.34891  1.0000
  H   H5534     1.0  0.67812  0.59299  0.39539  1.0000
  H   H5535     1.0  0.91164  0.72773  0.30468  1.0000
  H   H5536     1.0  0.71034  0.65042  0.28066  1.0000
  N   N303      1.0  0.69217  0.69572  0.33122  1.0000
  H   H5537     1.0  0.71340  0.69718  0.32460  1.0000
  H   H5538     1.0  0.67138  0.61513  0.31059  1.0000
  H   H5539     1.0  0.68286  0.59564  0.32248  1.0000
  S   S1237     1.0  0.62815  0.65025  0.46165  1.0000
  N   N304      1.0  0.70064  0.67186  0.27847  1.0000
  C   C4619     1.0  0.69586  0.68065  0.33380  1.0000
  C   C4620     1.0  0.68365  0.66425  0.46163  1.0000
  H   H5540     1.0  0.69288  0.58123  0.31567  1.0000
  C   C4621     1.0  0.68741  0.68105  0.27623  1.0000
  H   H5541     1.0  0.67185  0.69066  0.32276  1.0000
  N   N305      1.0  0.68876  0.61666  0.38612  1.0000
  C   C4622     1.0  0.68328  0.62753  0.37533  1.0000
  C   C4623     1.0  0.67769  0.61613  0.39866  1.0000
  C   C4624     1.0  0.70014  0.62047  0.38909  1.0000
  C   C4625     1.0  0.69374  0.60368  0.38142  1.0000
  C   C4626     1.0  0.68707  0.59261  0.38714  1.0000
  C   C4627     1.0  0.70524  0.60202  0.37039  1.0000
  C   C4628     1.0  0.69184  0.58061  0.38224  1.0000
  C   C4629     1.0  0.70992  0.58998  0.36558  1.0000
  C   C4630     1.0  0.70328  0.57927  0.37154  1.0000
  H   H5542     1.0  0.67459  0.62513  0.37293  1.0000
  H   H5543     1.0  0.67956  0.63753  0.37839  1.0000
  H   H5544     1.0  0.69119  0.62894  0.36575  1.0000
  H   H5545     1.0  0.66821  0.61464  0.39692  1.0000
  H   H5546     1.0  0.67462  0.62574  0.40238  1.0000
  H   H5547     1.0  0.68094  0.60783  0.40713  1.0000
  H   H5548     1.0  0.70832  0.62262  0.37991  1.0000
  H   H5549     1.0  0.66407  0.70107  0.30167  1.0000
  H   H5550     1.0  0.69516  0.72420  0.28762  1.0000
  S   S1238     1.0  0.85710  0.72039  0.23115  1.0000
  H   H5551     1.0  0.90285  0.72080  0.25325  1.0000
  N   N306      1.0  0.52974  0.69284  0.33163  1.0000
  H   H5552     1.0  0.67286  0.70640  0.37522  1.0000
  C   C4631     1.0  0.66226  0.68720  0.28337  1.0000
  H   H5553     1.0  0.55689  0.72473  0.34167  1.0000
  H   H5554     1.0  0.68365  0.73197  0.34169  1.0000
  H   H5555     1.0  0.56360  0.71796  0.31961  1.0000
  N   N307      1.0  0.52462  0.60082  0.35596  1.0000
  H   H5556     1.0  0.69829  0.49821  0.34622  1.0000
  C   C4632     1.0  0.84541  0.68563  0.23512  1.0000
  H   H5557     1.0  0.69815  0.49411  0.36404  1.0000
  S   S1239     1.0  0.75108  0.73333  0.36608  1.0000
  C   C4633     1.0  0.83280  0.68176  0.23877  1.0000
  C   C4634     1.0  0.67632  0.48772  0.35949  1.0000
  H   H5558     1.0  0.67546  0.71786  0.28406  1.0000
  C   C4635     1.0  0.90508  0.72546  0.26018  1.0000
  C   C4636     1.0  0.90118  0.72924  0.28282  1.0000
  H   H5559     1.0  0.49779  0.60111  0.35446  1.0000
  H   H5560     1.0  0.66008  0.73164  0.34064  1.0000
  Fe  Fe621     1.0  0.81698  0.64787  0.23142  1.0000
  C   C4637     1.0  0.64740  0.63443  0.47679  1.0000
  C   C4638     1.0  0.66984  0.48540  0.35034  1.0000
  H   H5561     1.0  0.84381  0.65030  0.23144  1.0000
  C   C4639     1.0  0.91385  0.73444  0.25528  1.0000
  C   C4640     1.0  0.91858  0.73458  0.29843  1.0000
  Fe  Fe622     1.0  0.70681  0.73474  0.35520  1.0000
  Fe  Fe623     1.0  0.61823  0.69055  0.71002  1.0000
  H   H5562     1.0  0.68530  0.66164  0.66778  1.0000
  H   H5563     1.0  0.57035  0.70150  0.65366  1.0000
  Fe  Fe624     1.0  0.56839  0.65081  0.64641  1.0000
  S   S1240     1.0  0.55941  0.63292  0.64871  1.0000
  S   S1241     1.0  0.58262  0.65207  0.65863  1.0000
  Fe  Fe625     1.0  0.56270  0.66336  0.61840  1.0000
  S   S1242     1.0  0.55331  0.64668  0.61795  1.0000
  S   S1243     1.0  0.56550  0.68203  0.60201  1.0000
  Fe  Fe626     1.0  0.54242  0.64795  0.63947  1.0000
  S   S1244     1.0  0.52117  0.64315  0.64859  1.0000
  Fe  Fe627     1.0  0.57058  0.63273  0.62719  1.0000
  S   S1245     1.0  0.58219  0.61346  0.62011  1.0000
  S   S1246     1.0  0.55041  0.66599  0.63929  1.0000
  S   S1247     1.0  0.58092  0.64927  0.62545  1.0000
  Fe  Fe628     1.0  0.64970  0.64232  0.53140  1.0000
  S   S1248     1.0  0.62826  0.64365  0.54434  1.0000
  S   S1249     1.0  0.65753  0.63538  0.51124  1.0000
  Fe  Fe629     1.0  0.66023  0.64896  0.55309  1.0000
  S   S1250     1.0  0.63972  0.65083  0.56741  1.0000
  S   S1251     1.0  0.67910  0.65055  0.55883  1.0000
  Fe  Fe630     1.0  0.63853  0.63227  0.56160  1.0000
  S   S1252     1.0  0.62954  0.61706  0.57899  1.0000
  Fe  Fe631     1.0  0.63132  0.66202  0.54910  1.0000
  S   S1253     1.0  0.61511  0.68127  0.55046  1.0000
  S   S1254     1.0  0.65975  0.62939  0.54859  1.0000
  S   S1255     1.0  0.65207  0.66176  0.53480  1.0000
  Fe  Fe632     1.0  0.66477  0.55806  0.62195  1.0000
  S   S1256     1.0  0.64615  0.54966  0.63336  1.0000
  S   S1257     1.0  0.67081  0.56337  0.59923  1.0000
  Fe  Fe633     1.0  0.67391  0.55704  0.64747  1.0000
  S   S1258     1.0  0.65621  0.54822  0.66102  1.0000
  S   S1259     1.0  0.69119  0.56103  0.65403  1.0000
  Fe  Fe634     1.0  0.66033  0.53478  0.64609  1.0000
  S   S1260     1.0  0.66407  0.51158  0.65208  1.0000
  Fe  Fe635     1.0  0.64375  0.56381  0.64703  1.0000
  S   S1261     1.0  0.62503  0.57832  0.65593  1.0000
  S   S1262     1.0  0.67914  0.54245  0.63366  1.0000
  S   S1263     1.0  0.66128  0.57336  0.63445  1.0000
  Fe  Fe636     1.0  0.70159  0.63327  0.69785  1.0000
  H   H5564     1.0  0.73802  0.62471  0.71808  1.0000
  C   C4641     1.0  0.78420  0.61164  0.70259  1.0000
  Fe  Fe637     1.0  0.61883  0.71083  0.68323  1.0000
  S   S1264     1.0  0.61454  0.69004  0.69022  1.0000
  S   S1265     1.0  0.62983  0.71549  0.66138  1.0000
  Fe  Fe638     1.0  0.59297  0.70039  0.69794  1.0000
  S   S1266     1.0  0.57502  0.69412  0.69493  1.0000
  S   S1267     1.0  0.59691  0.72139  0.68962  1.0000
  S   S1268     1.0  0.62478  0.71047  0.70234  1.0000
  Fe  Fe639     1.0  0.69557  0.68871  0.60416  1.0000
  S   S1269     1.0  0.71779  0.68477  0.59335  1.0000
  S   S1270     1.0  0.67665  0.68860  0.59749  1.0000
  Fe  Fe640     1.0  0.70232  0.68883  0.63035  1.0000
  S   S1271     1.0  0.72505  0.68425  0.62219  1.0000
  S   S1272     1.0  0.69343  0.69080  0.65199  1.0000
  Fe  Fe641     1.0  0.72023  0.69994  0.60374  1.0000
  Fe  Fe642     1.0  0.72094  0.66964  0.61259  1.0000
  S   S1273     1.0  0.73380  0.64875  0.61141  1.0000
  S   S1274     1.0  0.69756  0.70556  0.61260  1.0000
  S   S1275     1.0  0.69872  0.67256  0.62273  1.0000
  Fe  Fe643     1.0  0.72423  0.61280  0.68435  1.0000
  S   S1276     1.0  0.70274  0.62226  0.68197  1.0000
  S   S1277     1.0  0.74194  0.60877  0.66699  1.0000
  Fe  Fe644     1.0  0.69712  0.60548  0.69944  1.0000
  S   S1278     1.0  0.68000  0.59735  0.69719  1.0000
  S   S1279     1.0  0.71891  0.59511  0.70088  1.0000
  S   S1280     1.0  0.72383  0.62566  0.69830  1.0000
  C   C4642     1.0  0.66285  0.48645  0.64966  1.0000
  S   S1281     1.0  0.62907  0.67075  0.72116  1.0000
  C   C4643     1.0  0.59855  0.71115  0.65377  1.0000
  H   H5565     1.0  0.67345  0.68127  0.69575  1.0000
  C   C4644     1.0  0.60001  0.66123  0.71179  1.0000
  C   C4645     1.0  0.73661  0.63857  0.62708  1.0000
  C   C4646     1.0  0.72819  0.64167  0.63932  1.0000
  C   C4647     1.0  0.72992  0.63267  0.65171  1.0000
  C   C4648     1.0  0.74007  0.62062  0.65181  1.0000
  C   C4649     1.0  0.74866  0.61774  0.63959  1.0000
  C   C4650     1.0  0.74690  0.62667  0.62725  1.0000
  H   H5566     1.0  0.72028  0.65092  0.63922  1.0000
  H   H5567     1.0  0.72348  0.63513  0.66115  1.0000
  H   H5568     1.0  0.75655  0.60848  0.63964  1.0000
  H   H5569     1.0  0.75343  0.62428  0.61779  1.0000
  C   C4651     1.0  0.84045  0.72041  0.71131  1.0000
  C   C4652     1.0  0.60277  0.70171  0.63399  1.0000
  C   C4653     1.0  0.64761  0.70942  0.65877  1.0000
  C   C4654     1.0  0.65437  0.70647  0.66936  1.0000
  C   C4655     1.0  0.66861  0.70133  0.66708  1.0000
  C   C4656     1.0  0.67599  0.69874  0.65433  1.0000
  C   C4657     1.0  0.66922  0.70178  0.64374  1.0000
  C   C4658     1.0  0.65508  0.70721  0.64593  1.0000
  H   H5570     1.0  0.64866  0.70827  0.67927  1.0000
  H   H5571     1.0  0.67383  0.69904  0.67526  1.0000
  H   H5572     1.0  0.67478  0.69966  0.63393  1.0000
  C   C4659     1.0  0.65348  0.65299  0.71507  1.0000
  H   H5573     1.0  0.58334  0.65475  0.70240  1.0000
  C   C4660     1.0  0.84169  0.72760  0.66867  1.0000
  H   H5574     1.0  0.67245  0.68538  0.55158  1.0000
  C   C4661     1.0  0.65733  0.50054  0.64677  1.0000
  C   C4662     1.0  0.64664  0.50540  0.63985  1.0000
  C   C4663     1.0  0.64159  0.49627  0.63588  1.0000
  C   C4664     1.0  0.66756  0.64953  0.70944  1.0000
  H   H5575     1.0  0.81838  0.70855  0.67441  1.0000
  H   H5576     1.0  0.64212  0.51616  0.63775  1.0000
  H   H5577     1.0  0.63333  0.50014  0.63054  1.0000
  C   C4665     1.0  0.68781  0.57146  0.66577  1.0000
  C   C4666     1.0  0.69888  0.57395  0.66915  1.0000
  C   C4667     1.0  0.69661  0.58211  0.67854  1.0000
  C   C4668     1.0  0.68322  0.58764  0.68483  1.0000
  C   C4669     1.0  0.67214  0.58518  0.68143  1.0000
  C   C4670     1.0  0.67441  0.57723  0.67183  1.0000
  H   H5578     1.0  0.70928  0.56944  0.66457  1.0000
  H   H5579     1.0  0.70522  0.58383  0.68117  1.0000
  H   H5580     1.0  0.66175  0.58927  0.68638  1.0000
  H   H5581     1.0  0.66581  0.57528  0.66940  1.0000
  C   C4671     1.0  0.64069  0.60163  0.58402  1.0000
  C   C4672     1.0  0.63772  0.59447  0.59748  1.0000
  C   C4673     1.0  0.64692  0.58264  0.60212  1.0000
  C   C4674     1.0  0.65897  0.57775  0.59321  1.0000
  C   C4675     1.0  0.66178  0.58468  0.57963  1.0000
  C   C4676     1.0  0.65268  0.59670  0.57505  1.0000
  H   H5582     1.0  0.62847  0.59828  0.60444  1.0000
  H   H5583     1.0  0.64468  0.57737  0.61262  1.0000
  H   H5584     1.0  0.67110  0.58091  0.57271  1.0000
  H   H5585     1.0  0.65492  0.60211  0.56459  1.0000
  C   C4677     1.0  0.67824  0.65993  0.57079  1.0000
  C   C4678     1.0  0.66570  0.66585  0.57839  1.0000
  C   C4679     1.0  0.66539  0.67421  0.58694  1.0000
  C   C4680     1.0  0.67757  0.67675  0.58795  1.0000
  C   C4681     1.0  0.69013  0.67032  0.58086  1.0000
  C   C4682     1.0  0.69045  0.66194  0.57232  1.0000
  H   H5586     1.0  0.65622  0.66430  0.57742  1.0000
  H   H5587     1.0  0.65564  0.67898  0.59256  1.0000
  H   H5588     1.0  0.69959  0.67216  0.58159  1.0000
  H   H5589     1.0  0.70021  0.65736  0.56652  1.0000
  C   C4683     1.0  0.50795  0.64603  0.63984  1.0000
  C   C4684     1.0  0.59365  0.62697  0.68879  1.0000
  H   H5590     1.0  0.71048  0.70965  0.63467  1.0000
  H   H5591     1.0  0.59407  0.67293  0.63740  1.0000
  H   H5592     1.0  0.74726  0.60189  0.70892  1.0000
  C   C4685     1.0  0.50720  0.65590  0.62786  1.0000
  H   H5593     1.0  0.60991  0.69916  0.62489  1.0000
  C   C4686     1.0  0.70855  0.71817  0.63982  1.0000
  H   H5594     1.0  0.61925  0.64612  0.72412  1.0000
  H   H5595     1.0  0.51511  0.66168  0.62343  1.0000
  C   C4687     1.0  0.59462  0.60402  0.62960  1.0000
  C   C4688     1.0  0.59483  0.60761  0.64141  1.0000
  C   C4689     1.0  0.60423  0.59965  0.64935  1.0000
  C   C4690     1.0  0.61373  0.58824  0.64539  1.0000
  C   C4691     1.0  0.61387  0.58488  0.63333  1.0000
  C   C4692     1.0  0.60422  0.59268  0.62553  1.0000
  H   H5596     1.0  0.58760  0.61640  0.64458  1.0000
  H   H5597     1.0  0.60410  0.60233  0.65864  1.0000
  H   H5598     1.0  0.62119  0.57611  0.63018  1.0000
  H   H5599     1.0  0.60420  0.58991  0.61634  1.0000
  C   C4693     1.0  0.58003  0.68146  0.58840  1.0000
  C   C4694     1.0  0.58071  0.69301  0.57791  1.0000
  C   C4695     1.0  0.59161  0.69284  0.56647  1.0000
  C   C4696     1.0  0.60197  0.68110  0.56537  1.0000
  C   C4697     1.0  0.60155  0.66959  0.57602  1.0000
  C   C4698     1.0  0.59061  0.66979  0.58758  1.0000
  H   H5600     1.0  0.57259  0.70206  0.57846  1.0000
  H   H5601     1.0  0.59186  0.70176  0.55831  1.0000
  H   H5602     1.0  0.60951  0.66050  0.57523  1.0000
  H   H5603     1.0  0.59021  0.66086  0.59566  1.0000
  C   C4699     1.0  0.58015  0.66503  0.66736  1.0000
  C   C4700     1.0  0.56706  0.67142  0.67352  1.0000
  C   C4701     1.0  0.56563  0.68048  0.68180  1.0000
  C   C4702     1.0  0.57722  0.68340  0.68375  1.0000
  C   C4703     1.0  0.59026  0.67744  0.67705  1.0000
  C   C4704     1.0  0.59172  0.66816  0.66906  1.0000
  H   H5604     1.0  0.55808  0.66896  0.67239  1.0000
  H   H5605     1.0  0.55550  0.68508  0.68691  1.0000
  H   H5606     1.0  0.59923  0.67986  0.67816  1.0000
  H   H5607     1.0  0.60186  0.66324  0.66432  1.0000
  N   N308      1.0  0.71878  0.71593  0.64803  1.0000
  C   C4705     1.0  0.57046  0.69129  0.63432  1.0000
  H   H5608     1.0  0.70606  0.70538  0.66565  1.0000
  C   C4706     1.0  0.64844  0.63879  0.49824  1.0000
  C   C4707     1.0  0.63671  0.64924  0.49749  1.0000
  C   C4708     1.0  0.63047  0.65236  0.48637  1.0000
  H   H5609     1.0  0.58129  0.69862  0.60852  1.0000
  H   H5610     1.0  0.74980  0.59798  0.69273  1.0000
  H   H5611     1.0  0.63259  0.65508  0.50534  1.0000
  H   H5612     1.0  0.70107  0.52912  0.66486  1.0000
  S   S1282     1.0  0.73521  0.71393  0.59371  1.0000
  C   C4709     1.0  0.68972  0.53811  0.68897  1.0000
  H   H5613     1.0  0.76280  0.59093  0.72306  1.0000
  H   H5614     1.0  0.65283  0.70800  0.58578  1.0000
  H   H5615     1.0  0.57494  0.64210  0.69163  1.0000
  H   H5616     1.0  0.56731  0.68691  0.62745  1.0000
  H   H5617     1.0  0.62271  0.62575  0.69786  1.0000
  C   C4710     1.0  0.62593  0.70533  0.57518  1.0000
  C   C4711     1.0  0.49601  0.65857  0.62174  1.0000
  C   C4712     1.0  0.59577  0.63232  0.58856  1.0000
  H   H5618     1.0  0.58849  0.63754  0.59651  1.0000
  H   H5619     1.0  0.67259  0.59730  0.59425  1.0000
  H   H5620     1.0  0.65182  0.69582  0.52562  1.0000
  H   H5621     1.0  0.63008  0.64570  0.69377  1.0000
  H   H5622     1.0  0.51298  0.59548  0.63996  1.0000
  C   C4713     1.0  0.59383  0.67999  0.62732  1.0000
  H   H5623     1.0  0.65852  0.53091  0.69296  1.0000
  H   H5624     1.0  0.67358  0.60762  0.62249  1.0000
  H   H5625     1.0  0.66400  0.67623  0.67379  1.0000
  H   H5626     1.0  0.65105  0.54951  0.70468  1.0000
  C   C4714     1.0  0.58515  0.70255  0.61526  1.0000
  H   H5627     1.0  0.66273  0.68266  0.73006  1.0000
  C   C4715     1.0  0.63943  0.60979  0.63364  1.0000
  H   H5628     1.0  0.60844  0.62710  0.56431  1.0000
  H   H5629     1.0  0.75442  0.62449  0.69697  1.0000
  C   C4716     1.0  0.65366  0.63132  0.48791  1.0000
  C   C4717     1.0  0.65320  0.60740  0.63392  1.0000
  H   H5630     1.0  0.66684  0.52024  0.67518  1.0000
  H   H5631     1.0  0.58974  0.62167  0.68368  1.0000
  N   N309      1.0  0.65480  0.69866  0.54418  1.0000
  C   C4718     1.0  0.64585  0.69790  0.53573  1.0000
  C   C4719     1.0  0.66248  0.70937  0.53635  1.0000
  H   H5632     1.0  0.71905  0.69458  0.65612  1.0000
  C   C4720     1.0  0.64715  0.70167  0.55762  1.0000
  H   H5633     1.0  0.69211  0.50540  0.69759  1.0000
  H   H5634     1.0  0.67276  0.63900  0.71052  1.0000
  H   H5635     1.0  0.66774  0.70778  0.52591  1.0000
  C   C4721     1.0  0.51457  0.62861  0.61247  1.0000
  C   C4722     1.0  0.64493  0.61832  0.60929  1.0000
  C   C4723     1.0  0.82608  0.71250  0.67632  1.0000
  H   H5636     1.0  0.76905  0.62437  0.68301  1.0000
  H   H5637     1.0  0.65931  0.67715  0.55221  1.0000
  H   H5638     1.0  0.64987  0.70951  0.63772  1.0000
  C   C4724     1.0  0.69195  0.52506  0.66595  1.0000
  H   H5639     1.0  0.82615  0.70135  0.71733  1.0000
  H   H5640     1.0  0.61764  0.70921  0.63914  1.0000
  H   H5641     1.0  0.62659  0.70078  0.55660  1.0000
  H   H5642     1.0  0.66515  0.70266  0.56385  1.0000
  C   C4725     1.0  0.66637  0.53543  0.69363  1.0000
  N   N310      1.0  0.58468  0.69340  0.62889  1.0000
  H   H5643     1.0  0.56785  0.65079  0.58884  1.0000
  H   H5644     1.0  0.65638  0.60274  0.64344  1.0000
  C   C4726     1.0  0.65551  0.62556  0.67274  1.0000
  H   H5645     1.0  0.57170  0.62385  0.57836  1.0000
  C   C4727     1.0  0.63279  0.70245  0.56243  1.0000
  C   C4728     1.0  0.64321  0.62976  0.66842  1.0000
  H   H5646     1.0  0.67901  0.50464  0.67477  1.0000
  H   H5647     1.0  0.62150  0.66059  0.48579  1.0000
  H   H5648     1.0  0.75410  0.63567  0.72234  1.0000
  H   H5649     1.0  0.75883  0.72108  0.59674  1.0000
  H   H5650     1.0  0.78118  0.58713  0.68891  1.0000
  S   S1283     1.0  0.59620  0.69942  0.71854  1.0000
  H   H5651     1.0  0.73610  0.73441  0.64145  1.0000
  H   H5652     1.0  0.82497  0.70027  0.69615  1.0000
  C   C4729     1.0  0.63308  0.70751  0.58350  1.0000
  C   C4730     1.0  0.63840  0.64346  0.66309  1.0000
  C   C4731     1.0  0.66189  0.54616  0.70044  1.0000
  N   N311      1.0  0.70505  0.61042  0.63827  1.0000
  C   C4732     1.0  0.70055  0.59809  0.63854  1.0000
  C   C4733     1.0  0.71965  0.60882  0.63085  1.0000
  C   C4734     1.0  0.70445  0.61100  0.65238  1.0000
  C   C4735     1.0  0.69594  0.62280  0.63211  1.0000
  C   C4736     1.0  0.68152  0.62527  0.63739  1.0000
  C   C4737     1.0  0.70097  0.63286  0.62105  1.0000
  C   C4738     1.0  0.67269  0.63688  0.63173  1.0000
  C   C4739     1.0  0.69204  0.64441  0.61549  1.0000
  C   C4740     1.0  0.67796  0.64643  0.62079  1.0000
  H   H5653     1.0  0.69994  0.59777  0.62822  1.0000
  H   H5654     1.0  0.70779  0.58858  0.64222  1.0000
  H   H5655     1.0  0.69040  0.59738  0.64549  1.0000
  H   H5656     1.0  0.72093  0.60840  0.62007  1.0000
  H   H5657     1.0  0.72627  0.59938  0.63558  1.0000
  H   H5658     1.0  0.72398  0.61729  0.63104  1.0000
  H   H5659     1.0  0.71164  0.60216  0.65724  1.0000
  H   H5660     1.0  0.70742  0.62034  0.65257  1.0000
  H   H5661     1.0  0.69406  0.61093  0.65906  1.0000
  H   H5662     1.0  0.67700  0.61827  0.64602  1.0000
  H   H5663     1.0  0.71179  0.63222  0.61657  1.0000
  H   H5664     1.0  0.66172  0.63852  0.63591  1.0000
  H   H5665     1.0  0.69615  0.65199  0.60712  1.0000
  H   H5666     1.0  0.67118  0.65553  0.61645  1.0000
  N   N312      1.0  0.53594  0.60477  0.63754  1.0000
  C   C4741     1.0  0.54264  0.59085  0.63527  1.0000
  C   C4742     1.0  0.54684  0.61256  0.63372  1.0000
  C   C4743     1.0  0.52982  0.60400  0.65225  1.0000
  C   C4744     1.0  0.52504  0.61090  0.62973  1.0000
  C   C4745     1.0  0.52512  0.62307  0.61952  1.0000
  C   C4746     1.0  0.51379  0.60471  0.63233  1.0000
  H   H5667     1.0  0.68429  0.62195  0.60524  1.0000
  C   C4747     1.0  0.71682  0.70424  0.65963  1.0000
  H   H5668     1.0  0.60056  0.62209  0.59395  1.0000
  H   H5669     1.0  0.55127  0.58613  0.64058  1.0000
  H   H5670     1.0  0.53544  0.58389  0.63905  1.0000
  H   H5671     1.0  0.54695  0.59102  0.62425  1.0000
  H   H5672     1.0  0.55223  0.61328  0.62284  1.0000
  H   H5673     1.0  0.55494  0.60771  0.63969  1.0000
  H   H5674     1.0  0.54254  0.62296  0.63572  1.0000
  H   H5675     1.0  0.52254  0.59714  0.65639  1.0000
  H   H5676     1.0  0.53780  0.60020  0.65840  1.0000
  H   H5677     1.0  0.52408  0.61423  0.65420  1.0000
  H   H5678     1.0  0.53301  0.62873  0.61702  1.0000
  H   H5679     1.0  0.70872  0.72766  0.63186  1.0000
  C   C4748     1.0  0.85915  0.70319  0.70248  1.0000
  H   H5680     1.0  0.68655  0.60527  0.58466  1.0000
  H   H5681     1.0  0.66266  0.62315  0.48846  1.0000
  H   H5682     1.0  0.73458  0.71990  0.63002  1.0000
  C   C4749     1.0  0.58527  0.70903  0.65763  1.0000
  H   H5683     1.0  0.85314  0.72761  0.68253  1.0000
  C   C4750     1.0  0.65866  0.64905  0.66601  1.0000
  C   C4751     1.0  0.64597  0.65300  0.66192  1.0000
  H   H5684     1.0  0.88061  0.71132  0.71355  1.0000
  C   C4752     1.0  0.63530  0.61528  0.62138  1.0000
  H   H5685     1.0  0.65473  0.66368  0.68412  1.0000
  H   H5686     1.0  0.65546  0.71962  0.53542  1.0000
  H   H5687     1.0  0.59471  0.62190  0.56109  1.0000
  H   H5688     1.0  0.62870  0.64672  0.65992  1.0000
  H   H5689     1.0  0.70052  0.53571  0.68430  1.0000
  C   C4753     1.0  0.65915  0.61570  0.60914  1.0000
  H   H5690     1.0  0.61499  0.70580  0.57860  1.0000
  H   H5691     1.0  0.68590  0.62890  0.58750  1.0000
  H   H5692     1.0  0.51462  0.63809  0.60499  1.0000
  H   H5693     1.0  0.62459  0.61682  0.62119  1.0000
  H   H5694     1.0  0.67626  0.67383  0.64888  1.0000
  C   C4754     1.0  0.67484  0.51306  0.68039  1.0000
  C   C4755     1.0  0.65806  0.66908  0.67346  1.0000
  H   H5695     1.0  0.59032  0.67509  0.62114  1.0000
  C   C4756     1.0  0.84561  0.72309  0.68113  1.0000
  H   H5696     1.0  0.63731  0.62239  0.66933  1.0000
  H   H5697     1.0  0.65913  0.61493  0.67717  1.0000
  C   C4757     1.0  0.77064  0.59678  0.71949  1.0000
  C   C4758     1.0  0.79064  0.61205  0.71246  1.0000
  H   H5698     1.0  0.70265  0.64095  0.72021  1.0000
  C   C4759     1.0  0.71673  0.72839  0.65305  1.0000
  H   H5699     1.0  0.64875  0.67550  0.66984  1.0000
  C   C4760     1.0  0.83195  0.72231  0.66626  1.0000
  H   H5700     1.0  0.60455  0.68071  0.62213  1.0000
  C   C4761     1.0  0.60730  0.70748  0.64200  1.0000
  H   H5701     1.0  0.62777  0.70974  0.59337  1.0000
  N   N313      1.0  0.84409  0.70862  0.70478  1.0000
  C   C4762     1.0  0.66469  0.68541  0.54614  1.0000
  C   C4763     1.0  0.66296  0.61023  0.62186  1.0000
  C   C4764     1.0  0.83750  0.69784  0.71457  1.0000
  H   H5702     1.0  0.63805  0.70754  0.53390  1.0000
  H   H5703     1.0  0.64798  0.64509  0.72066  1.0000
  C   C4765     1.0  0.64717  0.70667  0.57916  1.0000
  H   H5704     1.0  0.67451  0.65989  0.64337  1.0000
  C   C4766     1.0  0.67482  0.65972  0.70264  1.0000
  C   C4767     1.0  0.76096  0.61877  0.68908  1.0000
  H   H5705     1.0  0.67581  0.49867  0.61662  1.0000
  C   C4768     1.0  0.64655  0.66665  0.71358  1.0000
  H   H5706     1.0  0.60207  0.71563  0.65996  1.0000
  Fe  Fe645     1.0  0.71698  0.60878  0.71494  1.0000
  H   H5707     1.0  0.63196  0.60703  0.64289  1.0000
  H   H5708     1.0  0.64040  0.68946  0.54061  1.0000
  C   C4769     1.0  0.77655  0.59785  0.68460  1.0000
  N   N314      1.0  0.76666  0.60449  0.69536  1.0000
  H   H5709     1.0  0.84008  0.68846  0.71050  1.0000
  N   N315      1.0  0.58894  0.63131  0.57836  1.0000
  H   H5710     1.0  0.86266  0.69921  0.71221  1.0000
  H   H5711     1.0  0.60471  0.66674  0.71631  1.0000
  C   C4770     1.0  0.65484  0.49657  0.59241  1.0000
  C   C4771     1.0  0.50362  0.62236  0.61539  1.0000
  H   H5712     1.0  0.67235  0.62553  0.57476  1.0000
  C   C4772     1.0  0.59913  0.62287  0.56917  1.0000
  H   H5713     1.0  0.86504  0.71105  0.69646  1.0000
  H   H5714     1.0  0.65751  0.63440  0.58489  1.0000
  C   C4773     1.0  0.77376  0.60424  0.70587  1.0000
  C   C4774     1.0  0.75513  0.59736  0.70077  1.0000
  H   H5715     1.0  0.49524  0.62698  0.61020  1.0000
  H   H5716     1.0  0.56946  0.68405  0.64436  1.0000
  H   H5717     1.0  0.60301  0.61242  0.57481  1.0000
  H   H5718     1.0  0.67178  0.63654  0.59931  1.0000
  H   H5719     1.0  0.66980  0.50860  0.69089  1.0000
  C   C4775     1.0  0.60705  0.62243  0.69063  1.0000
  H   H5720     1.0  0.64099  0.62231  0.60016  1.0000
  C   C4776     1.0  0.69626  0.50915  0.68659  1.0000
  N   N316      1.0  0.60998  0.64923  0.70720  1.0000
  C   C4777     1.0  0.58529  0.63848  0.69333  1.0000
  H   H5721     1.0  0.58192  0.61323  0.59031  1.0000
  C   C4778     1.0  0.74978  0.72790  0.60114  1.0000
  H   H5722     1.0  0.86238  0.69476  0.69694  1.0000
  C   C4779     1.0  0.58335  0.64520  0.57119  1.0000
  C   C4780     1.0  0.57231  0.65398  0.57822  1.0000
  C   C4781     1.0  0.58912  0.65072  0.55745  1.0000
  C   C4782     1.0  0.56724  0.66733  0.57186  1.0000
  C   C4783     1.0  0.58413  0.66417  0.55126  1.0000
  C   C4784     1.0  0.57322  0.67244  0.55844  1.0000
  H   H5723     1.0  0.68453  0.53358  0.66117  1.0000
  C   C4785     1.0  0.57777  0.62395  0.58550  1.0000
  H   H5724     1.0  0.75873  0.58634  0.70489  1.0000
  H   H5725     1.0  0.57066  0.62844  0.59402  1.0000
  H   H5726     1.0  0.61800  0.66049  0.68746  1.0000
  C   C4786     1.0  0.67125  0.55275  0.70164  1.0000
  H   H5727     1.0  0.78508  0.60316  0.67941  1.0000
  C   C4787     1.0  0.60403  0.64149  0.70135  1.0000
  C   C4788     1.0  0.65415  0.70367  0.56649  1.0000
  H   H5728     1.0  0.69789  0.71906  0.64610  1.0000
  H   H5729     1.0  0.59768  0.64498  0.55129  1.0000
  H   H5730     1.0  0.55906  0.67394  0.57759  1.0000
  H   H5731     1.0  0.58900  0.66830  0.54092  1.0000
  H   H5732     1.0  0.56962  0.68295  0.55371  1.0000
  N   N317      1.0  0.66593  0.52437  0.60081  1.0000
  C   C4789     1.0  0.67375  0.52418  0.61073  1.0000
  C   C4790     1.0  0.67331  0.53030  0.58710  1.0000
  C   C4791     1.0  0.65224  0.53348  0.60410  1.0000
  C   C4792     1.0  0.66432  0.51074  0.60095  1.0000
  C   C4793     1.0  0.65674  0.50928  0.59230  1.0000
  C   C4794     1.0  0.67013  0.49865  0.60946  1.0000
  H   H5733     1.0  0.69523  0.51714  0.65977  1.0000
  H   H5734     1.0  0.69233  0.55412  0.69658  1.0000
  C   C4795     1.0  0.50324  0.61041  0.62528  1.0000
  H   H5735     1.0  0.68437  0.51794  0.60861  1.0000
  H   H5736     1.0  0.67479  0.53456  0.61033  1.0000
  H   H5737     1.0  0.66851  0.52027  0.62136  1.0000
  H   H5738     1.0  0.68350  0.52356  0.58407  1.0000
  H   H5739     1.0  0.67508  0.54042  0.58672  1.0000
  H   H5740     1.0  0.66750  0.53197  0.57917  1.0000
  H   H5741     1.0  0.64616  0.52912  0.61413  1.0000
  H   H5742     1.0  0.65312  0.54370  0.60454  1.0000
  H   H5743     1.0  0.64611  0.53534  0.59641  1.0000
  H   H5744     1.0  0.65208  0.51799  0.58550  1.0000
  H   H5745     1.0  0.57856  0.71176  0.66693  1.0000
  H   H5746     1.0  0.71808  0.64294  0.72319  1.0000
  H   H5747     1.0  0.73396  0.70252  0.63596  1.0000
  C   C4796     1.0  0.75052  0.62734  0.72994  1.0000
  N   N318      1.0  0.66639  0.65938  0.66472  1.0000
  C   C4797     1.0  0.73672  0.72627  0.60150  1.0000
  H   H5748     1.0  0.77147  0.59776  0.67658  1.0000
  C   C4798     1.0  0.70684  0.64712  0.72446  1.0000
  C   C4799     1.0  0.83987  0.71307  0.69161  1.0000
  C   C4800     1.0  0.68514  0.54871  0.69594  1.0000
  C   C4801     1.0  0.82995  0.70787  0.68883  1.0000
  C   C4802     1.0  0.61220  0.62956  0.69681  1.0000
  H   H5749     1.0  0.67049  0.68248  0.53633  1.0000
  N   N319      1.0  0.68568  0.51976  0.68033  1.0000
  H   H5750     1.0  0.75459  0.61934  0.68193  1.0000
  S   S1284     1.0  0.69252  0.65560  0.69582  1.0000
  C   C4803     1.0  0.58929  0.69933  0.63766  1.0000
  H   H5751     1.0  0.64842  0.68740  0.70519  1.0000
  H   H5752     1.0  0.84109  0.69477  0.72425  1.0000
  C   C4804     1.0  0.66787  0.67336  0.70105  1.0000
  C   C4805     1.0  0.86833  0.73177  0.71137  1.0000
  C   C4806     1.0  0.65369  0.67683  0.70634  1.0000
  H   H5753     1.0  0.66774  0.56120  0.70674  1.0000
  H   H5754     1.0  0.70541  0.65753  0.71795  1.0000
  C   C4807     1.0  0.59033  0.64570  0.69951  1.0000
  H   H5755     1.0  0.59108  0.65826  0.71972  1.0000
  H   H5756     1.0  0.60408  0.63799  0.58368  1.0000
  C   C4808     1.0  0.87297  0.71870  0.71874  1.0000
  H   H5757     1.0  0.64179  0.66356  0.65788  1.0000
  H   H5758     1.0  0.67838  0.64825  0.67966  1.0000
  H   H5759     1.0  0.65996  0.67355  0.64704  1.0000
  H   H5760     1.0  0.68440  0.59927  0.60267  1.0000
  H   H5761     1.0  0.69993  0.50027  0.68162  1.0000
  H   H5762     1.0  0.72362  0.70284  0.66662  1.0000
  H   H5763     1.0  0.56286  0.70102  0.63532  1.0000
  H   H5764     1.0  0.82878  0.72599  0.65665  1.0000
  S   S1285     1.0  0.69447  0.61722  0.71544  1.0000
  H   H5765     1.0  0.60704  0.63591  0.72692  1.0000
  C   C4809     1.0  0.67976  0.65357  0.66879  1.0000
  H   H5766     1.0  0.84356  0.71757  0.72123  1.0000
  C   C4810     1.0  0.66318  0.63500  0.67158  1.0000
  C   C4811     1.0  0.58066  0.70312  0.64981  1.0000
  H   H5767     1.0  0.62599  0.66046  0.70057  1.0000
  H   H5768     1.0  0.59612  0.66883  0.70324  1.0000
  H   H5769     1.0  0.69624  0.72732  0.66558  1.0000
  C   C4812     1.0  0.66932  0.66693  0.65040  1.0000
  H   H5770     1.0  0.59572  0.70371  0.60990  1.0000
  H   H5771     1.0  0.57868  0.71287  0.61604  1.0000
  H   H5772     1.0  0.68676  0.64648  0.66236  1.0000
  H   H5773     1.0  0.67253  0.63102  0.67528  1.0000
  H   H5774     1.0  0.65812  0.61784  0.58236  1.0000
  C   C4813     1.0  0.68050  0.53102  0.68770  1.0000
  Fe  Fe646     1.0  0.60239  0.71952  0.70950  1.0000
  N   N320      1.0  0.66981  0.61772  0.59644  1.0000
  C   C4814     1.0  0.67830  0.62660  0.59725  1.0000
  C   C4815     1.0  0.67876  0.60434  0.59444  1.0000
  C   C4816     1.0  0.66411  0.62416  0.58415  1.0000
  H   H5775     1.0  0.84561  0.72872  0.70495  1.0000
  H   H5776     1.0  0.79822  0.61815  0.70988  1.0000
  C   C4817     1.0  0.61528  0.64036  0.71915  1.0000
  H   H5777     1.0  0.70550  0.51293  0.68568  1.0000
  H   H5778     1.0  0.82922  0.72483  0.71315  1.0000
  H   H5779     1.0  0.78731  0.61735  0.69242  1.0000
  H   H5780     1.0  0.67066  0.70955  0.54115  1.0000
  C   C4818     1.0  0.62151  0.65415  0.69679  1.0000
  H   H5781     1.0  0.61346  0.61341  0.68713  1.0000
  H   H5782     1.0  0.68722  0.67294  0.72816  1.0000
  C   C4819     1.0  0.73266  0.71203  0.63943  1.0000
  H   H5783     1.0  0.62395  0.63187  0.71644  1.0000
  H   H5784     1.0  0.64874  0.49571  0.58599  1.0000
  C   C4820     1.0  0.78712  0.60488  0.72576  1.0000
  H   H5785     1.0  0.49546  0.66635  0.61255  1.0000
  H   H5786     1.0  0.49798  0.63102  0.65474  1.0000
  C   C4821     1.0  0.77730  0.59712  0.72921  1.0000
  H   H5787     1.0  0.71503  0.73442  0.60688  1.0000
  H   H5788     1.0  0.74084  0.71027  0.64502  1.0000
  C   C4822     1.0  0.74145  0.62109  0.72745  1.0000
  C   C4823     1.0  0.66831  0.48598  0.60934  1.0000
  C   C4824     1.0  0.49751  0.63868  0.64547  1.0000
  C   C4825     1.0  0.70431  0.73291  0.66212  1.0000
  H   H5789     1.0  0.49461  0.60567  0.62760  1.0000
  C   C4826     1.0  0.66055  0.48496  0.60097  1.0000
  Fe  Fe647     1.0  0.85821  0.54799  0.86213  1.0000
  S   S1286     1.0  0.83851  0.56041  0.87221  1.0000
  Fe  Fe648     1.0  0.87203  0.57234  0.85199  1.0000
  S   S1287     1.0  0.85343  0.58641  0.86124  1.0000
  S   S1288     1.0  0.89059  0.58094  0.84006  1.0000
  Fe  Fe649     1.0  0.85185  0.56925  0.87928  1.0000
  S   S1289     1.0  0.84545  0.57306  0.90052  1.0000
  Fe  Fe650     1.0  0.84160  0.57667  0.85321  1.0000
  S   S1290     1.0  0.82349  0.59164  0.84570  1.0000
  S   S1291     1.0  0.87144  0.55579  0.87070  1.0000
  S   S1292     1.0  0.86042  0.56370  0.84240  1.0000
  Fe  Fe651     1.0  0.87074  0.62074  0.92630  1.0000
  S   S1293     1.0  0.85975  0.64036  0.91521  1.0000
  S   S1294     1.0  0.88174  0.60486  0.91382  1.0000
  S   S1295     1.0  0.85444  0.65202  0.94293  1.0000
  Fe  Fe652     1.0  0.84423  0.64069  0.93494  1.0000
  S   S1296     1.0  0.82142  0.64623  0.93643  1.0000
  Fe  Fe653     1.0  0.87095  0.64981  0.92410  1.0000
  S   S1297     1.0  0.87993  0.66763  0.91200  1.0000
  S   S1298     1.0  0.88315  0.63023  0.93394  1.0000
  Fe  Fe654     1.0  0.94007  0.61193  0.85684  1.0000
  S   S1299     1.0  0.92691  0.63115  0.84747  1.0000
  S   S1300     1.0  0.92916  0.59508  0.86919  1.0000
  Fe  Fe655     1.0  0.96638  0.62316  0.84638  1.0000
  S   S1301     1.0  0.95500  0.64283  0.83584  1.0000
  H   H5790     1.0  0.81336  0.63459  0.84888  1.0000
  Fe  Fe656     1.0  0.93859  0.64148  0.85488  1.0000
  S   S1302     1.0  0.93078  0.66067  0.86271  1.0000
  Fe  Fe657     1.0  0.94455  0.63067  0.82938  1.0000
  S   S1303     1.0  0.94114  0.63561  0.80818  1.0000
  S   S1304     1.0  0.95043  0.62242  0.86597  1.0000
  S   S1305     1.0  0.95718  0.61073  0.83822  1.0000
  C   C4827     1.0  0.87924  0.51358  0.83116  1.0000
  H   H5791     1.0  0.83842  0.68556  0.81918  1.0000
  C   C4828     1.0  0.84758  0.67197  0.86252  1.0000
  H   H5792     1.0  0.85300  0.62950  0.88200  1.0000
  C   C4829     1.0  0.84573  0.52009  0.85227  1.0000
  H   H5793     1.0  0.83911  0.65940  0.84187  1.0000
  H   H5794     1.0  0.87868  0.66454  0.87065  1.0000
  C   C4830     1.0  0.86570  0.67421  0.84220  1.0000
  H   H5795     1.0  0.94655  0.68070  0.84351  1.0000
  Fe  Fe658     1.0  0.79873  0.61601  0.77890  1.0000
  S   S1306     1.0  0.77561  0.62010  0.78314  1.0000
  S   S1307     1.0  0.81241  0.59668  0.78790  1.0000
  Fe  Fe659     1.0  0.80029  0.64368  0.76056  1.0000
  S   S1308     1.0  0.77747  0.65008  0.76364  1.0000
  S   S1309     1.0  0.81174  0.65990  0.74796  1.0000
  Fe  Fe660     1.0  0.77696  0.64034  0.78553  1.0000
  S   S1310     1.0  0.76321  0.65205  0.80128  1.0000
  Fe  Fe661     1.0  0.77812  0.62947  0.76067  1.0000
  S   S1311     1.0  0.76707  0.63093  0.74415  1.0000
  S   S1312     1.0  0.79972  0.63564  0.78272  1.0000
  S   S1313     1.0  0.80127  0.62366  0.75622  1.0000
  Fe  Fe662     1.0  0.78936  0.68568  0.87446  1.0000
  S   S1314     1.0  0.77329  0.67322  0.88195  1.0000
  S   S1315     1.0  0.80882  0.68366  0.88098  1.0000
  Fe  Fe663     1.0  0.77842  0.70093  0.84894  1.0000
  S   S1316     1.0  0.76170  0.68969  0.85412  1.0000
  S   S1317     1.0  0.78315  0.71535  0.82903  1.0000
  Fe  Fe664     1.0  0.75886  0.69307  0.87507  1.0000
  S   S1318     1.0  0.73812  0.70225  0.88687  1.0000
  Fe  Fe665     1.0  0.77760  0.67118  0.86023  1.0000
  S   S1319     1.0  0.78364  0.65161  0.85275  1.0000
  S   S1320     1.0  0.77473  0.70561  0.86930  1.0000
  S   S1321     1.0  0.79458  0.68225  0.85342  1.0000
  Fe  Fe666     1.0  0.87530  0.68009  0.78739  1.0000
  S   S1322     1.0  0.85481  0.69455  0.79041  1.0000
  S   S1323     1.0  0.88651  0.67967  0.80305  1.0000
  Fe  Fe667     1.0  0.86815  0.66901  0.76684  1.0000
  S   S1324     1.0  0.84725  0.68268  0.76866  1.0000
  S   S1325     1.0  0.87153  0.65300  0.75493  1.0000
  Fe  Fe668     1.0  0.85789  0.69873  0.76778  1.0000
  S   S1326     1.0  0.85022  0.72009  0.75688  1.0000
  Fe  Fe669     1.0  0.84638  0.67707  0.79080  1.0000
  S   S1327     1.0  0.82825  0.66966  0.80502  1.0000
  S   S1328     1.0  0.87921  0.68554  0.76444  1.0000
  S   S1329     1.0  0.86658  0.66228  0.78934  1.0000
  H   H5796     1.0  0.62652  0.72433  0.75030  1.0000
  S   S1330     1.0  0.72543  0.60210  0.73412  1.0000
  C   C4831     1.0  0.72440  0.73007  0.85550  1.0000
  H   H5797     1.0  0.82816  0.61232  0.85668  1.0000
  H   H5798     1.0  0.98970  0.65356  0.83133  1.0000
  C   C4832     1.0  0.79424  0.70388  0.81934  1.0000
  C   C4833     1.0  0.79202  0.69075  0.82222  1.0000
  C   C4834     1.0  0.80236  0.68034  0.81737  1.0000
  C   C4835     1.0  0.81478  0.68316  0.80921  1.0000
  C   C4836     1.0  0.81657  0.69653  0.80531  1.0000
  C   C4837     1.0  0.80634  0.70691  0.81053  1.0000
  H   H5799     1.0  0.78260  0.68839  0.82886  1.0000
  H   H5800     1.0  0.80089  0.67003  0.82038  1.0000
  H   H5801     1.0  0.82600  0.69884  0.79868  1.0000
  H   H5802     1.0  0.80811  0.71706  0.80829  1.0000
  C   C4838     1.0  0.72917  0.71683  0.87724  1.0000
  C   C4839     1.0  0.73152  0.71851  0.86316  1.0000
  C   C4840     1.0  0.96966  0.66073  0.85207  1.0000
  H   H5803     1.0  0.81662  0.64957  0.88134  1.0000
  H   H5804     1.0  0.73868  0.71081  0.85816  1.0000
  H   H5805     1.0  0.88613  0.66990  0.84558  1.0000
  H   H5806     1.0  0.94993  0.61263  0.89689  1.0000
  C   C4841     1.0  0.76964  0.65242  0.81497  1.0000
  C   C4842     1.0  0.78220  0.64415  0.81738  1.0000
  C   C4843     1.0  0.78680  0.64442  0.82864  1.0000
  C   C4844     1.0  0.77888  0.65298  0.83752  1.0000
  C   C4845     1.0  0.76650  0.66149  0.83491  1.0000
  C   C4846     1.0  0.76187  0.66115  0.82370  1.0000
  H   H5807     1.0  0.78818  0.63727  0.81082  1.0000
  H   H5808     1.0  0.79645  0.63789  0.83052  1.0000
  H   H5809     1.0  0.76020  0.66794  0.84181  1.0000
  H   H5810     1.0  0.75213  0.66756  0.82191  1.0000
  C   C4847     1.0  0.82918  0.65728  0.74791  1.0000
  H   H5811     1.0  0.70027  0.62555  0.74250  1.0000
  H   H5812     1.0  0.87908  0.52287  0.83390  1.0000
  C   C4848     1.0  0.85611  0.65437  0.75033  1.0000
  C   C4849     1.0  0.85071  0.64285  0.75285  1.0000
  C   C4850     1.0  0.83716  0.64432  0.75179  1.0000
  H   H5813     1.0  0.81450  0.67269  0.96977  1.0000
  H   H5814     1.0  0.85281  0.67600  0.74287  1.0000
  H   H5815     1.0  0.85683  0.63289  0.75612  1.0000
  H   H5816     1.0  0.83285  0.63547  0.75408  1.0000
  H   H5817     1.0  0.71440  0.62899  0.74621  1.0000
  C   C4851     1.0  0.88847  0.50162  0.83520  1.0000
  C   C4852     1.0  0.58742  0.73178  0.77260  1.0000
  C   C4853     1.0  0.75518  0.62283  0.74210  1.0000
  C   C4854     1.0  0.75052  0.61201  0.75184  1.0000
  C   C4855     1.0  0.74146  0.60568  0.74928  1.0000
  H   H5818     1.0  0.84925  0.53008  0.90657  1.0000
  C   C4856     1.0  0.71953  0.72682  0.88363  1.0000
  H   H5819     1.0  0.75404  0.60843  0.76124  1.0000
  H   H5820     1.0  0.79563  0.60398  0.85784  1.0000
  C   C4857     1.0  0.94206  0.62078  0.90059  1.0000
  H   H5821     1.0  0.91566  0.65173  0.91284  1.0000
  H   H5822     1.0  0.81212  0.50971  0.91320  1.0000
  C   C4858     1.0  0.81758  0.63290  0.85770  1.0000
  H   H5823     1.0  0.85353  0.67296  0.82183  1.0000
  C   C4859     1.0  0.84054  0.51154  0.84767  1.0000
  C   C4860     1.0  0.87119  0.66724  0.86441  1.0000
  C   C4861     1.0  0.84467  0.49730  0.85136  1.0000
  H   H5824     1.0  0.80775  0.65282  0.86145  1.0000
  S   S1331     1.0  0.85418  0.62005  0.94538  1.0000
  C   C4862     1.0  0.69126  0.72016  0.86381  1.0000
  H   H5825     1.0  0.80248  0.72199  0.78215  1.0000
  H   H5826     1.0  0.93099  0.68368  0.82893  1.0000
  C   C4863     1.0  0.92714  0.64922  0.80560  1.0000
  C   C4864     1.0  0.92105  0.65738  0.81517  1.0000
  C   C4865     1.0  0.90885  0.66711  0.81394  1.0000
  C   C4866     1.0  0.90263  0.66862  0.80324  1.0000
  C   C4867     1.0  0.90887  0.66070  0.79347  1.0000
  C   C4868     1.0  0.92121  0.65110  0.79458  1.0000
  H   H5827     1.0  0.92563  0.65603  0.82365  1.0000
  H   H5828     1.0  0.90408  0.67329  0.82146  1.0000
  H   H5829     1.0  0.90411  0.66187  0.78517  1.0000
  H   H5830     1.0  0.92591  0.64478  0.78717  1.0000
  C   C4869     1.0  0.89336  0.66541  0.89775  1.0000
  C   C4870     1.0  0.90094  0.67547  0.89211  1.0000
  C   C4871     1.0  0.91224  0.67389  0.88126  1.0000
  C   C4872     1.0  0.91607  0.66224  0.87589  1.0000
  C   C4873     1.0  0.90830  0.65224  0.88121  1.0000
  C   C4874     1.0  0.89687  0.65384  0.89217  1.0000
  H   H5831     1.0  0.89819  0.68446  0.89631  1.0000
  H   H5832     1.0  0.91814  0.68168  0.87712  1.0000
  H   H5833     1.0  0.91122  0.64328  0.87697  1.0000
  H   H5834     1.0  0.89091  0.64612  0.89644  1.0000
  C   C4875     1.0  0.81705  0.65797  0.92189  1.0000
  C   C4876     1.0  0.80430  0.65958  0.91890  1.0000
  C   C4877     1.0  0.80146  0.66767  0.90645  1.0000
  C   C4878     1.0  0.81129  0.67435  0.89713  1.0000
  C   C4879     1.0  0.82377  0.67318  0.90041  1.0000
  C   C4880     1.0  0.82667  0.66499  0.91272  1.0000
  H   H5835     1.0  0.79681  0.65421  0.92600  1.0000
  H   H5836     1.0  0.79176  0.66863  0.90402  1.0000
  H   H5837     1.0  0.83127  0.67858  0.89336  1.0000
  H   H5838     1.0  0.83638  0.66409  0.91508  1.0000
  C   C4881     1.0  0.90144  0.58426  0.84846  1.0000
  C   C4882     1.0  0.91178  0.59116  0.84070  1.0000
  C   C4883     1.0  0.92012  0.59476  0.84699  1.0000
  C   C4884     1.0  0.91853  0.59101  0.86110  1.0000
  C   C4885     1.0  0.90847  0.58370  0.86886  1.0000
  C   C4886     1.0  0.89983  0.58047  0.86259  1.0000
  H   H5839     1.0  0.91336  0.59373  0.82975  1.0000
  H   H5840     1.0  0.92800  0.60016  0.84089  1.0000
  H   H5841     1.0  0.90733  0.58063  0.87975  1.0000
  H   H5842     1.0  0.89202  0.57499  0.86864  1.0000
  C   C4887     1.0  0.85555  0.58190  0.90416  1.0000
  C   C4888     1.0  0.85121  0.58680  0.91618  1.0000
  C   C4889     1.0  0.85903  0.59413  0.91911  1.0000
  C   C4890     1.0  0.87147  0.59613  0.91026  1.0000
  C   C4891     1.0  0.87591  0.59102  0.89838  1.0000
  C   C4892     1.0  0.86785  0.58414  0.89519  1.0000
  H   H5843     1.0  0.84171  0.58503  0.92318  1.0000
  H   H5844     1.0  0.85559  0.59796  0.92836  1.0000
  H   H5845     1.0  0.88560  0.59243  0.89160  1.0000
  H   H5846     1.0  0.87132  0.58025  0.88599  1.0000
  C   C4893     1.0  0.82110  0.59306  0.82935  1.0000
  C   C4894     1.0  0.81137  0.60410  0.82419  1.0000
  C   C4895     1.0  0.80877  0.60535  0.81143  1.0000
  C   C4896     1.0  0.81581  0.59551  0.80377  1.0000
  C   C4897     1.0  0.82572  0.58457  0.80883  1.0000
  C   C4898     1.0  0.82842  0.58337  0.82157  1.0000
  H   H5847     1.0  0.80567  0.61165  0.83013  1.0000
  H   H5848     1.0  0.80105  0.61374  0.80769  1.0000
  H   H5849     1.0  0.83126  0.57695  0.80290  1.0000
  H   H5850     1.0  0.83598  0.57484  0.82543  1.0000
  H   H5851     1.0  0.83333  0.51600  0.84112  1.0000
  H   H5852     1.0  0.84255  0.53102  0.84923  1.0000
  H   H5853     1.0  0.87547  0.52785  0.88587  1.0000
  H   H5854     1.0  0.96434  0.66794  0.79867  1.0000
  C   C4899     1.0  0.85520  0.51448  0.86058  1.0000
  C   C4900     1.0  0.93386  0.59727  0.89974  1.0000
  H   H5855     1.0  0.78925  0.58378  0.82760  1.0000
  H   H5856     1.0  0.96391  0.68775  0.84741  1.0000
  H   H5857     1.0  0.83745  0.70078  0.84092  1.0000
  C   C4901     1.0  0.67348  0.72612  0.84449  1.0000
  C   C4902     1.0  0.86990  0.51350  0.82396  1.0000
  H   H5858     1.0  0.75308  0.62375  0.86213  1.0000
  H   H5859     1.0  0.59561  0.72639  0.77779  1.0000
  C   C4903     1.0  0.81769  0.49645  0.88065  1.0000
  C   C4904     1.0  0.84845  0.66716  0.74542  1.0000
  C   C4905     1.0  0.70320  0.63274  0.74668  1.0000
  C   C4906     1.0  0.85584  0.53701  0.90601  1.0000
  H   H5860     1.0  0.75344  0.73153  0.86506  1.0000
  S   S1332     1.0  0.83780  0.48711  0.84513  1.0000
  H   H5861     1.0  0.93978  0.60055  0.88925  1.0000
  C   C4907     1.0  0.91866  0.63162  0.90953  1.0000
  N   N321      1.0  0.97438  0.66993  0.83903  1.0000
  H   H5862     1.0  0.82901  0.67856  0.74085  1.0000
  H   H5863     1.0  0.82360  0.69667  0.83686  1.0000
  H   H5864     1.0  0.70541  0.66576  0.73782  1.0000
  H   H5865     1.0  0.86968  0.67668  0.83134  1.0000
  C   C4908     1.0  0.70586  0.65530  0.74412  1.0000
  C   C4909     1.0  0.94188  0.67980  0.82540  1.0000
  H   H5866     1.0  0.75498  0.73324  0.84069  1.0000
  H   H5867     1.0  0.93966  0.67736  0.80650  1.0000
  C   C4910     1.0  0.66098  0.65056  0.74745  1.0000
  H   H5868     1.0  0.83140  0.60460  0.90017  1.0000
  H   H5869     1.0  0.90433  0.62114  0.89792  1.0000
  C   C4911     1.0  0.84857  0.62160  0.89019  1.0000
  H   H5870     1.0  0.90712  0.55105  0.88567  1.0000
  C   C4912     1.0  0.92309  0.64299  0.90959  1.0000
  H   H5871     1.0  0.83350  0.64623  0.89320  1.0000
  C   C4913     1.0  0.81446  0.64321  0.86479  1.0000
  H   H5872     1.0  0.67764  0.63409  0.75109  1.0000
  S   S1333     1.0  0.86250  0.52475  0.86625  1.0000
  H   H5873     1.0  0.85238  0.61182  0.88678  1.0000
  H   H5874     1.0  0.83358  0.63498  0.90944  1.0000
  H   H5875     1.0  0.82631  0.66837  0.85386  1.0000
  C   C4914     1.0  0.85734  0.66801  0.87051  1.0000
  C   C4915     1.0  0.85924  0.50023  0.86437  1.0000
  S   S1334     1.0  0.98944  0.62147  0.84297  1.0000
  H   H5876     1.0  0.81815  0.64056  0.90345  1.0000
  H   H5877     1.0  0.83692  0.67280  0.86774  1.0000
  C   C4916     1.0  0.92796  0.62021  0.90490  1.0000
  C   C4917     1.0  0.83103  0.61813  0.87370  1.0000
  C   C4918     1.0  0.82804  0.62841  0.88118  1.0000
  C   C4919     1.0  0.85144  0.67524  0.84810  1.0000
  H   H5878     1.0  0.85241  0.69055  0.82157  1.0000
  N   N322      1.0  0.92281  0.60864  0.90427  1.0000
  H   H5879     1.0  0.97707  0.69049  0.83230  1.0000
  H   H5880     1.0  0.73798  0.59727  0.75682  1.0000
  H   H5881     1.0  0.92126  0.60008  0.92565  1.0000
  H   H5882     1.0  0.96985  0.65065  0.85041  1.0000
  C   C4920     1.0  0.58614  0.72601  0.76262  1.0000
  C   C4921     1.0  0.95092  0.67799  0.83372  1.0000
  H   H5883     1.0  0.76107  0.62794  0.83776  1.0000
  H   H5884     1.0  0.71760  0.72555  0.89454  1.0000
  C   C4922     1.0  0.97420  0.68306  0.84190  1.0000
  H   H5885     1.0  0.66856  0.73089  0.83564  1.0000
  H   H5886     1.0  0.82597  0.69159  0.85385  1.0000
  H   H5887     1.0  0.81726  0.51724  0.87002  1.0000
  H   H5888     1.0  0.71692  0.65083  0.74416  1.0000
  H   H5889     1.0  0.90779  0.63204  0.91275  1.0000
  H   H5890     1.0  0.77642  0.60023  0.81123  1.0000
  H   H5891     1.0  0.85566  0.54462  0.89628  1.0000
  H   H5892     1.0  0.76889  0.60272  0.88063  1.0000
  H   H5893     1.0  0.76619  0.63343  0.85447  1.0000
  H   H5894     1.0  0.57588  0.72836  0.74670  1.0000
  C   C4923     1.0  0.85771  0.72454  0.73950  1.0000
  C   C4924     1.0  0.81369  0.50595  0.90412  1.0000
  H   H5895     1.0  0.83125  0.61226  0.91344  1.0000
  C   C4925     1.0  0.96068  0.67093  0.80840  1.0000
  C   C4926     1.0  0.82588  0.62039  0.86212  1.0000
  H   H5896     1.0  0.90975  0.60493  0.89355  1.0000
  H   H5897     1.0  0.59316  0.71665  0.76046  1.0000
  H   H5898     1.0  0.88033  0.51466  0.92153  1.0000
  H   H5899     1.0  0.86251  0.52277  0.82114  1.0000
  H   H5900     1.0  0.87989  0.56345  0.92127  1.0000
  C   C4927     1.0  0.94674  0.67623  0.81280  1.0000
  H   H5901     1.0  0.88575  0.51500  0.89659  1.0000
  C   C4928     1.0  0.96515  0.67230  0.82974  1.0000
  C   C4929     1.0  0.89454  0.55797  0.90357  1.0000
  H   H5902     1.0  0.99341  0.67027  0.82400  1.0000
  H   H5903     1.0  0.86856  0.51430  0.89734  1.0000
  H   H5904     1.0  0.86659  0.49579  0.87076  1.0000
  H   H5905     1.0  0.90046  0.56529  0.90273  1.0000
  H   H5906     1.0  0.64575  0.66862  0.74221  1.0000
  C   C4930     1.0  0.91358  0.61341  0.89462  1.0000
  H   H5907     1.0  0.80428  0.64749  0.97723  1.0000
  H   H5908     1.0  0.91142  0.59399  0.91784  1.0000
  C   C4931     1.0  0.87501  0.54779  0.91495  1.0000
  H   H5909     1.0  0.86590  0.54766  0.92303  1.0000
  H   H5910     1.0  0.87190  0.65238  0.96670  1.0000
  N   N323      1.0  0.83337  0.62558  0.89358  1.0000
  H   H5911     1.0  0.90549  0.61041  0.92138  1.0000
  H   H5912     1.0  0.81776  0.66071  0.95931  1.0000
  H   H5913     1.0  0.85412  0.66589  0.88152  1.0000
  N   N324      1.0  0.89026  0.62978  0.82696  1.0000
  C   C4932     1.0  0.90525  0.62806  0.82145  1.0000
  C   C4933     1.0  0.88545  0.62079  0.82141  1.0000
  C   C4934     1.0  0.88343  0.64400  0.82180  1.0000
  C   C4935     1.0  0.88746  0.62679  0.84199  1.0000
  C   C4936     1.0  0.89127  0.63468  0.84877  1.0000
  C   C4937     1.0  0.88142  0.61584  0.85029  1.0000
  C   C4938     1.0  0.88945  0.63162  0.86292  1.0000
  C   C4939     1.0  0.87969  0.61284  0.86441  1.0000
  C   C4940     1.0  0.88378  0.62064  0.87072  1.0000
  H   H5914     1.0  0.91088  0.61762  0.82522  1.0000
  H   H5915     1.0  0.90795  0.63006  0.81014  1.0000
  H   H5916     1.0  0.90959  0.63500  0.82445  1.0000
  H   H5917     1.0  0.89075  0.60994  0.82427  1.0000
  H   H5918     1.0  0.88764  0.62343  0.81010  1.0000
  H   H5919     1.0  0.87418  0.62165  0.82501  1.0000
  H   H5920     1.0  0.88730  0.65153  0.82450  1.0000
  H   H5921     1.0  0.88531  0.64657  0.81049  1.0000
  H   H5922     1.0  0.87215  0.64583  0.82591  1.0000
  H   H5923     1.0  0.89611  0.64305  0.84313  1.0000
  H   H5924     1.0  0.87838  0.60911  0.84611  1.0000
  H   H5925     1.0  0.89280  0.63758  0.86780  1.0000
  H   H5926     1.0  0.87558  0.60409  0.87040  1.0000
  H   H5927     1.0  0.88275  0.61805  0.88165  1.0000
  N   N325      1.0  0.83834  0.63072  0.79463  1.0000
  C   C4941     1.0  0.83551  0.62469  0.78479  1.0000
  C   C4942     1.0  0.82500  0.63596  0.80341  1.0000
  C   C4943     1.0  0.84443  0.64260  0.78713  1.0000
  C   C4944     1.0  0.84802  0.62034  0.80221  1.0000
  C   C4945     1.0  0.84419  0.61455  0.81628  1.0000
  C   C4946     1.0  0.86158  0.61518  0.79531  1.0000
  C   C4947     1.0  0.85338  0.60420  0.82291  1.0000
  C   C4948     1.0  0.87069  0.60487  0.80208  1.0000
  C   C4949     1.0  0.86656  0.59933  0.81583  1.0000
  H   H5928     1.0  0.83080  0.61578  0.79002  1.0000
  H   H5929     1.0  0.82840  0.63217  0.77874  1.0000
  H   H5930     1.0  0.84495  0.62108  0.77742  1.0000
  H   H5931     1.0  0.81913  0.62792  0.80852  1.0000
  H   H5932     1.0  0.81827  0.64417  0.79743  1.0000
  H   H5933     1.0  0.82647  0.64044  0.81123  1.0000
  H   H5934     1.0  0.85398  0.64004  0.77945  1.0000
  H   H5935     1.0  0.83733  0.65073  0.78146  1.0000
  H   H5936     1.0  0.84689  0.64712  0.79428  1.0000
  H   H5937     1.0  0.83404  0.61756  0.82233  1.0000
  H   H5938     1.0  0.86515  0.61884  0.78453  1.0000
  H   H5939     1.0  0.85010  0.59966  0.83352  1.0000
  H   H5940     1.0  0.88092  0.60095  0.79655  1.0000
  H   H5941     1.0  0.87351  0.59107  0.82095  1.0000
  C   C4950     1.0  0.86975  0.51999  0.92024  1.0000
  H   H5942     1.0  0.82143  0.71902  0.76210  1.0000
  S   S1335     1.0  0.86769  0.62460  0.97419  1.0000
  H   H5943     1.0  0.70653  0.70670  0.87452  1.0000
  C   C4951     1.0  0.87527  0.52133  0.89623  1.0000
  H   H5944     1.0  0.85072  0.54271  0.91425  1.0000
  C   C4952     1.0  0.85401  0.49168  0.85981  1.0000
  H   H5945     1.0  0.92962  0.58881  0.89926  1.0000
  N   N326      1.0  0.87008  0.52957  0.90685  1.0000
  C   C4953     1.0  0.89051  0.54063  0.89492  1.0000
  C   C4954     1.0  0.91498  0.60305  0.91788  1.0000
  H   H5946     1.0  0.95902  0.66481  0.85734  1.0000
  C   C4955     1.0  0.82162  0.66327  0.96699  1.0000
  C   C4956     1.0  0.99273  0.63025  0.86435  1.0000
  C   C4957     1.0  0.89826  0.54993  0.89399  1.0000
  H   H5947     1.0  0.77464  0.73251  0.84905  1.0000
  C   C4958     1.0  0.68941  0.71660  0.88797  1.0000
  H   H5948     1.0  0.76340  0.62620  0.87204  1.0000
  C   C4959     1.0  0.87857  0.53931  0.90546  1.0000
  H   H5949     1.0  0.86397  0.51211  0.92142  1.0000
  C   C4960     1.0  0.82791  0.61432  0.90374  1.0000
  H   H5950     1.0  0.82884  0.63761  0.96596  1.0000
  H   H5951     1.0  0.69380  0.71184  0.89682  1.0000
  H   H5952     1.0  0.94103  0.59296  0.90672  1.0000
  C   C4961     1.0  0.82948  0.63739  0.90012  1.0000
  H   H5953     1.0  0.91900  0.61794  0.88430  1.0000
  C   C4962     1.0  0.68503  0.65266  0.73993  1.0000
  H   H5954     1.0  0.81932  0.49328  0.87123  1.0000
  C   C4963     1.0  0.81651  0.51023  0.87983  1.0000
  H   H5955     1.0  0.76260  0.62232  0.81649  1.0000
  H   H5956     1.0  0.76050  0.59805  0.87031  1.0000
  C   C4964     1.0  0.83504  0.66860  0.74420  1.0000
  H   H5957     1.0  0.67147  0.72840  0.89885  1.0000
  H   H5958     1.0  0.65345  0.64439  0.75244  1.0000
  H   H5959     1.0  0.89397  0.53481  0.88709  1.0000
  C   C4965     1.0  0.88297  0.55687  0.91406  1.0000
  H   H5960     1.0  0.79179  0.60558  0.73350  1.0000
  C   C4966     1.0  0.69657  0.71368  0.87538  1.0000
  H   H5961     1.0  0.77834  0.59084  0.87032  1.0000
  C   C4967     1.0  0.67834  0.72950  0.86459  1.0000
  H   H5962     1.0  0.78859  0.58900  0.84903  1.0000
  C   C4968     1.0  0.83159  0.69276  0.84302  1.0000
  H   H5963     1.0  0.97632  0.65887  0.85933  1.0000
  H   H5964     1.0  0.83184  0.66555  0.96164  1.0000
  H   H5965     1.0  0.68414  0.72115  0.84013  1.0000
  N   N327      1.0  0.84084  0.67985  0.83991  1.0000
  H   H5966     1.0  0.81379  0.52566  0.89080  1.0000
  C   C4969     1.0  0.83250  0.66950  0.84324  1.0000
  Fe  Fe670     1.0  0.86561  0.63142  0.95218  1.0000
  H   H5967     1.0  0.82499  0.67231  0.83661  1.0000
  C   C4970     1.0  0.81961  0.64112  0.87632  1.0000
  C   C4971     1.0  0.87536  0.67028  0.85030  1.0000
  C   C4972     1.0  0.96983  0.66902  0.81666  1.0000
  H   H5968     1.0  0.85295  0.62017  0.89916  1.0000
  C   C4973     1.0  0.84662  0.68229  0.82502  1.0000
  H   H5969     1.0  0.86467  0.52521  0.92884  1.0000
  H   H5970     1.0  0.81648  0.61677  0.90617  1.0000
  C   C4974     1.0  0.94639  0.63227  0.90058  1.0000
  C   C4975     1.0  0.93691  0.64338  0.90499  1.0000
  H   H5971     1.0  0.83721  0.60817  0.87690  1.0000
  H   H5972     1.0  0.95713  0.63265  0.89691  1.0000
  H   H5973     1.0  0.94022  0.65237  0.90472  1.0000
  N   N328      1.0  0.78853  0.68308  0.78208  1.0000
  C   C4976     1.0  0.79721  0.66962  0.78668  1.0000
  C   C4977     1.0  0.77714  0.68623  0.79378  1.0000
  C   C4978     1.0  0.78229  0.68210  0.77138  1.0000
  C   C4979     1.0  0.79715  0.69328  0.77656  1.0000
  C   C4980     1.0  0.79529  0.70446  0.78258  1.0000
  C   C4981     1.0  0.80812  0.69194  0.76504  1.0000
  C   C4982     1.0  0.80389  0.71369  0.77726  1.0000
  C   C4983     1.0  0.81667  0.70120  0.75984  1.0000
  C   C4984     1.0  0.81459  0.71202  0.76597  1.0000
  H   H5974     1.0  0.80270  0.67010  0.79418  1.0000
  H   H5975     1.0  0.79096  0.66183  0.79159  1.0000
  H   H5976     1.0  0.80509  0.66583  0.77811  1.0000
  H   H5977     1.0  0.78104  0.68599  0.80269  1.0000
  H   H5978     1.0  0.77056  0.67864  0.79733  1.0000
  H   H5979     1.0  0.77027  0.69631  0.79104  1.0000
  H   H5980     1.0  0.77528  0.67489  0.77542  1.0000
  H   H5981     1.0  0.77627  0.69217  0.76710  1.0000
  H   H5982     1.0  0.79006  0.67825  0.76280  1.0000
  H   H5983     1.0  0.78749  0.70616  0.79160  1.0000
  H   H5984     1.0  0.81031  0.68353  0.76013  1.0000
  C   C4985     1.0  0.73693  0.61015  0.73703  1.0000
  C   C4986     1.0  0.86963  0.50144  0.82089  1.0000
  H   H5985     1.0  0.98299  0.62775  0.86996  1.0000
  N   N329      1.0  0.77382  0.61170  0.85918  1.0000
  C   C4987     1.0  0.78753  0.61334  0.85909  1.0000
  C   C4988     1.0  0.76363  0.62427  0.86206  1.0000
  C   C4989     1.0  0.77023  0.60033  0.87057  1.0000
  C   C4990     1.0  0.77421  0.60871  0.84606  1.0000
  C   C4991     1.0  0.78224  0.59627  0.84254  1.0000
  C   C4992     1.0  0.76709  0.61803  0.83629  1.0000
  C   C4993     1.0  0.78276  0.59319  0.83024  1.0000
  C   C4994     1.0  0.76786  0.61492  0.82393  1.0000
  C   C4995     1.0  0.77560  0.60250  0.82094  1.0000
  H   H5986     1.0  0.79068  0.62166  0.85059  1.0000
  H   H5987     1.0  0.78767  0.61595  0.86862  1.0000
  H   H5988     1.0  0.89556  0.50171  0.84098  1.0000
  N   N330      1.0  0.69992  0.64696  0.73890  1.0000
  H   H5989     1.0  0.69809  0.63182  0.75763  1.0000
  C   C4996     1.0  0.81457  0.51497  0.89153  1.0000
  H   H5990     1.0  0.66808  0.71806  0.85111  1.0000
  C   C4997     1.0  0.61326  0.73028  0.73617  1.0000
  H   H5991     1.0  0.86177  0.50207  0.81574  1.0000
  C   C4998     1.0  0.83189  0.63981  0.97436  1.0000
  H   H5992     1.0  0.70035  0.65613  0.75472  1.0000
  H   H5993     1.0  0.98041  0.66458  0.81270  1.0000
  H   H5994     1.0  0.69758  0.71806  0.85420  1.0000
  H   H5995     1.0  0.87113  0.70491  0.73835  1.0000
  C   C4999     1.0  0.87895  0.48904  0.82482  1.0000
  H   H5996     1.0  0.61645  0.72061  0.73315  1.0000
  H   H5997     1.0  0.84256  0.64132  0.97057  1.0000
  C   C5000     1.0  0.67497  0.64477  0.74658  1.0000
  C   C5001     1.0  0.65660  0.66422  0.74172  1.0000
  H   H5998     1.0  0.82520  0.69980  0.75123  1.0000
  C   C5002     1.0  0.81492  0.49210  0.90505  1.0000
  C   C5003     1.0  0.81706  0.48692  0.89326  1.0000
  C   C5004     1.0  0.57641  0.73261  0.75482  1.0000
  C   C5005     1.0  0.67133  0.73230  0.87761  1.0000
  C   C5006     1.0  0.87117  0.64869  0.97752  1.0000
  H   H5999     1.0  0.77444  0.59176  0.73965  1.0000
  C   C5007     1.0  0.61893  0.73241  0.74591  1.0000
  C   C5008     1.0  0.98887  0.66363  0.83347  1.0000
  H   H6000     1.0  0.58749  0.73229  0.79912  1.0000
  N   N331      1.0  0.82259  0.65196  0.97911  1.0000
  C   C5009     1.0  0.88840  0.48952  0.83206  1.0000
  H   H6001     1.0  0.72627  0.73121  0.84462  1.0000
  C   C5010     1.0  0.67685  0.72593  0.88908  1.0000
  H   H6002     1.0  0.98150  0.68181  0.84837  1.0000
  H   H6003     1.0  0.83217  0.67488  0.97852  1.0000
  C   C5011     1.0  0.86763  0.71505  0.73277  1.0000
  C   C5012     1.0  0.66619  0.67214  0.73489  1.0000
  C   C5013     1.0  0.68019  0.66647  0.73390  1.0000
  H   H6004     1.0  0.81424  0.48568  0.91509  1.0000
  Fe  Fe671     1.0  0.66021  0.92367  0.14564  1.0000
  S   S1336     1.0  0.64242  0.93044  0.16195  1.0000
  S   S1337     1.0  0.68145  0.91361  0.14937  1.0000
  Fe  Fe672     1.0  0.64288  0.93209  0.12439  1.0000
  S   S1338     1.0  0.63790  0.93432  0.10409  1.0000
  Fe  Fe673     1.0  0.63075  0.92056  0.15384  1.0000
  S   S1339     1.0  0.61775  0.90557  0.16672  1.0000
  S   S1340     1.0  0.65604  0.94284  0.12970  1.0000
  S   S1341     1.0  0.64897  0.91237  0.13864  1.0000
  Fe  Fe674     1.0  0.54234  0.86385  0.15705  1.0000
  S   S1342     1.0  0.55829  0.84435  0.15960  1.0000
  H   H6005     1.0  0.61326  0.87968  0.09487  1.0000
  Fe  Fe675     1.0  0.56395  0.88102  0.14962  1.0000
  S   S1343     1.0  0.58134  0.86284  0.15123  1.0000
  S   S1344     1.0  0.56940  0.90163  0.14323  1.0000
  Fe  Fe676     1.0  0.57089  0.85454  0.14047  1.0000
  S   S1345     1.0  0.58442  0.84269  0.12488  1.0000
  Fe  Fe677     1.0  0.56733  0.85437  0.17018  1.0000
  S   S1346     1.0  0.57406  0.84312  0.18969  1.0000
  S   S1347     1.0  0.55446  0.87345  0.13705  1.0000
  S   S1348     1.0  0.55038  0.87317  0.16940  1.0000
  Fe  Fe678     1.0  0.64637  0.87044  0.03645  1.0000
  S   S1349     1.0  0.63362  0.85663  0.05176  1.0000
  S   S1350     1.0  0.65038  0.87278  0.01351  1.0000
  Fe  Fe679     1.0  0.65099  0.88198  0.05869  1.0000
  S   S1351     1.0  0.63797  0.86953  0.07526  1.0000
  S   S1352     1.0  0.66365  0.89249  0.06514  1.0000
  Fe  Fe680     1.0  0.64910  0.85263  0.06447  1.0000
  S   S1353     1.0  0.65792  0.83308  0.07766  1.0000
  Fe  Fe681     1.0  0.62393  0.87489  0.06102  1.0000
  S   S1354     1.0  0.60111  0.88101  0.06801  1.0000
  S   S1355     1.0  0.66285  0.86475  0.04830  1.0000
  S   S1356     1.0  0.63584  0.88910  0.04520  1.0000
  H   H6006     1.0  0.80432  0.73987  0.08981  1.0000
  H   H6007     1.0  0.75113  0.77013  0.14808  1.0000
  H   H6008     1.0  0.60381  0.91354  0.10445  1.0000
  H   H6009     1.0  0.65770  0.94446  0.17953  1.0000
  H   H6010     1.0  0.62330  0.85042  0.20909  1.0000
  Fe  Fe682     1.0  0.71046  0.82890  0.11825  1.0000
  S   S1357     1.0  0.72026  0.80659  0.12292  1.0000
  S   S1358     1.0  0.70392  0.84292  0.09965  1.0000
  Fe  Fe683     1.0  0.70982  0.83317  0.14570  1.0000
  S   S1359     1.0  0.71938  0.81145  0.15334  1.0000
  S   S1360     1.0  0.70168  0.84996  0.15710  1.0000
  Fe  Fe684     1.0  0.73353  0.81287  0.13266  1.0000
  S   S1361     1.0  0.75613  0.80487  0.13205  1.0000
  Fe  Fe685     1.0  0.70556  0.80661  0.14324  1.0000
  S   S1362     1.0  0.69294  0.79096  0.15370  1.0000
  S   S1363     1.0  0.72519  0.83522  0.12598  1.0000
  S   S1364     1.0  0.69454  0.82826  0.13762  1.0000
  Fe  Fe686     1.0  0.71193  0.89129  0.21236  1.0000
  C   C5014     1.0  0.81345  0.89899  0.21857  1.0000
  S   S1365     1.0  0.69455  0.90839  0.20639  1.0000
  H   H6011     1.0  0.49640  0.85087  0.16813  1.0000
  C   C5015     1.0  0.49943  0.85408  0.15720  1.0000
  S   S1366     1.0  0.74425  0.85747  0.18525  1.0000
  N   N332      1.0  0.64986  0.81091  0.15376  1.0000
  H   H6012     1.0  0.58804  0.90843  0.10643  1.0000
  C   C5016     1.0  0.64236  0.82056  0.14362  1.0000
  H   H6013     1.0  0.58718  0.88384  0.11534  1.0000
  H   H6014     1.0  0.58567  0.89779  0.02931  1.0000
  S   S1367     1.0  0.73424  0.88961  0.20198  1.0000
  C   C5017     1.0  0.66787  0.88379  0.18714  1.0000
  H   H6015     1.0  0.56217  0.83864  0.11522  1.0000
  H   H6016     1.0  0.68101  0.85243  0.19589  1.0000
  H   H6017     1.0  0.54351  0.80406  0.14806  1.0000
  H   H6018     1.0  0.61072  0.89476  0.02324  1.0000
  Fe  Fe687     1.0  0.63754  0.94909  0.14573  1.0000
  H   H6019     1.0  0.81945  0.74281  0.18908  1.0000
  C   C5018     1.0  0.68250  0.84369  0.19175  1.0000
  H   H6020     1.0  0.77483  0.79440  0.15960  1.0000
  C   C5019     1.0  0.85143  0.77338  0.21022  1.0000
  C   C5020     1.0  0.76651  0.74557  0.15555  1.0000
  S   S1368     1.0  0.73942  0.85974  0.22248  1.0000
  C   C5021     1.0  0.62895  0.88949  0.13283  1.0000
  C   C5022     1.0  0.62852  0.83881  0.12365  1.0000
  H   H6021     1.0  0.61819  0.88846  0.19536  1.0000
  S   S1369     1.0  0.71111  0.87052  0.21140  1.0000
  H   H6022     1.0  0.63319  0.88482  0.09647  1.0000
  H   H6023     1.0  0.59826  0.89247  0.09237  1.0000
  H   H6024     1.0  0.62796  0.89096  0.14293  1.0000
  S   S1370     1.0  0.51991  0.86222  0.16248  1.0000
  C   C5023     1.0  0.71399  0.85282  0.16373  1.0000
  C   C5024     1.0  0.72743  0.84502  0.16175  1.0000
  C   C5025     1.0  0.73688  0.84682  0.16800  1.0000
  C   C5026     1.0  0.73289  0.85638  0.17622  1.0000
  C   C5027     1.0  0.71963  0.86457  0.17763  1.0000
  C   C5028     1.0  0.71017  0.86276  0.17146  1.0000
  H   H6025     1.0  0.73046  0.83741  0.15568  1.0000
  H   H6026     1.0  0.74718  0.84056  0.16676  1.0000
  H   H6027     1.0  0.71667  0.87234  0.18345  1.0000
  H   H6028     1.0  0.69985  0.86896  0.17281  1.0000
  C   C5029     1.0  0.69223  0.78706  0.17121  1.0000
  C   C5030     1.0  0.67964  0.78635  0.18034  1.0000
  C   C5031     1.0  0.67837  0.78560  0.19414  1.0000
  C   C5032     1.0  0.68974  0.78509  0.19898  1.0000
  C   C5033     1.0  0.70261  0.78464  0.19002  1.0000
  C   C5034     1.0  0.70382  0.78582  0.17610  1.0000
  H   H6029     1.0  0.67072  0.78694  0.17674  1.0000
  H   H6030     1.0  0.66853  0.78546  0.20102  1.0000
  H   H6031     1.0  0.71149  0.78407  0.19374  1.0000
  H   H6032     1.0  0.71366  0.78592  0.16913  1.0000
  H   H6033     1.0  0.60743  0.89315  0.13508  1.0000
  H   H6034     1.0  0.67888  0.97486  0.15352  1.0000
  H   H6035     1.0  0.84945  0.78397  0.20415  1.0000
  H   H6036     1.0  0.79491  0.78106  0.16931  1.0000
  C   C5035     1.0  0.69542  0.94358  0.18809  1.0000
  C   C5036     1.0  0.77896  0.76493  0.11884  1.0000
  C   C5037     1.0  0.76564  0.77089  0.11680  1.0000
  C   C5038     1.0  0.75851  0.78324  0.12070  1.0000
  C   C5039     1.0  0.76479  0.78973  0.12646  1.0000
  C   C5040     1.0  0.77821  0.78388  0.12820  1.0000
  C   C5041     1.0  0.78522  0.77145  0.12454  1.0000
  H   H6037     1.0  0.76074  0.76587  0.11238  1.0000
  H   H6038     1.0  0.74819  0.78772  0.11925  1.0000
  H   H6039     1.0  0.78316  0.78893  0.13252  1.0000
  H   H6040     1.0  0.79556  0.76705  0.12596  1.0000
  C   C5042     1.0  0.64311  0.86456  0.00548  1.0000
  C   C5043     1.0  0.64283  0.86958  0.99165  1.0000
  C   C5044     1.0  0.71584  0.82554  0.19812  1.0000
  C   C5045     1.0  0.63234  0.85151  0.99182  1.0000
  C   C5046     1.0  0.63260  0.84650  0.00564  1.0000
  C   C5047     1.0  0.63785  0.85304  0.01248  1.0000
  C   C5048     1.0  0.64313  0.88470  0.11145  1.0000
  H   H6041     1.0  0.59340  0.88368  0.12946  1.0000
  H   H6042     1.0  0.62877  0.83747  0.01109  1.0000
  H   H6043     1.0  0.63811  0.84898  0.02307  1.0000
  C   C5049     1.0  0.66947  0.83597  0.08543  1.0000
  C   C5050     1.0  0.67200  0.84896  0.08269  1.0000
  C   C5051     1.0  0.68203  0.85111  0.08786  1.0000
  C   C5052     1.0  0.68966  0.84029  0.09576  1.0000
  C   C5053     1.0  0.68654  0.82746  0.09933  1.0000
  C   C5054     1.0  0.67646  0.82529  0.09411  1.0000
  H   H6044     1.0  0.66653  0.85733  0.07625  1.0000
  H   H6045     1.0  0.68410  0.86114  0.08545  1.0000
  H   H6046     1.0  0.69239  0.81906  0.10550  1.0000
  H   H6047     1.0  0.67443  0.81525  0.09638  1.0000
  C   C5055     1.0  0.58852  0.85298  0.10873  1.0000
  C   C5056     1.0  0.60118  0.84914  0.10005  1.0000
  C   C5057     1.0  0.60495  0.85762  0.08740  1.0000
  C   C5058     1.0  0.59593  0.86980  0.08326  1.0000
  C   C5059     1.0  0.58305  0.87341  0.09171  1.0000
  C   C5060     1.0  0.57940  0.86505  0.10450  1.0000
  H   H6048     1.0  0.60819  0.83971  0.10322  1.0000
  H   H6049     1.0  0.61487  0.85469  0.08088  1.0000
  H   H6050     1.0  0.57605  0.88283  0.08853  1.0000
  H   H6051     1.0  0.56950  0.86792  0.11102  1.0000
  C   C5061     1.0  0.59163  0.83892  0.18989  1.0000
  C   C5062     1.0  0.60160  0.84215  0.17815  1.0000
  C   C5063     1.0  0.61552  0.83856  0.17862  1.0000
  C   C5064     1.0  0.61956  0.83164  0.19082  1.0000
  C   C5065     1.0  0.60964  0.82846  0.20258  1.0000
  C   C5066     1.0  0.59571  0.83210  0.20210  1.0000
  H   H6052     1.0  0.59860  0.84737  0.16871  1.0000
  H   H6053     1.0  0.62315  0.84113  0.16951  1.0000
  H   H6054     1.0  0.61268  0.82308  0.21203  1.0000
  H   H6055     1.0  0.58806  0.82955  0.21122  1.0000
  C   C5067     1.0  0.64459  0.92126  0.09481  1.0000
  C   C5068     1.0  0.65816  0.91385  0.09392  1.0000
  C   C5069     1.0  0.66382  0.90489  0.08494  1.0000
  C   C5070     1.0  0.65586  0.90295  0.07711  1.0000
  C   C5071     1.0  0.64213  0.90994  0.07843  1.0000
  C   C5072     1.0  0.63659  0.91921  0.08709  1.0000
  H   H6056     1.0  0.66448  0.91560  0.09958  1.0000
  H   H6057     1.0  0.67448  0.89964  0.08384  1.0000
  H   H6058     1.0  0.63597  0.90864  0.07232  1.0000
  H   H6059     1.0  0.62615  0.92502  0.08761  1.0000
  C   C5073     1.0  0.60371  0.90501  0.16073  1.0000
  C   C5074     1.0  0.59862  0.91552  0.15067  1.0000
  C   C5075     1.0  0.58764  0.91469  0.14585  1.0000
  C   C5076     1.0  0.58194  0.90316  0.15074  1.0000
  C   C5077     1.0  0.58692  0.89272  0.16091  1.0000
  C   C5078     1.0  0.59767  0.89370  0.16597  1.0000
  H   H6060     1.0  0.60309  0.92432  0.14664  1.0000
  H   H6061     1.0  0.58374  0.92285  0.13810  1.0000
  H   H6062     1.0  0.58245  0.88388  0.16494  1.0000
  H   H6063     1.0  0.60138  0.88559  0.17388  1.0000
  C   C5079     1.0  0.68463  0.91136  0.16563  1.0000
  C   C5080     1.0  0.69739  0.90384  0.16836  1.0000
  C   C5081     1.0  0.70035  0.90246  0.18102  1.0000
  C   C5082     1.0  0.69066  0.90880  0.19095  1.0000
  C   C5083     1.0  0.67783  0.91610  0.18830  1.0000
  C   C5084     1.0  0.67478  0.91722  0.17577  1.0000
  H   H6064     1.0  0.70507  0.89915  0.16064  1.0000
  H   H6065     1.0  0.71031  0.89688  0.18293  1.0000
  H   H6066     1.0  0.67027  0.92094  0.19597  1.0000
  H   H6067     1.0  0.66486  0.92275  0.17394  1.0000
  H   H6068     1.0  0.65321  0.88240  0.10490  1.0000
  H   H6069     1.0  0.62499  0.87524  0.17792  1.0000
  C   C5085     1.0  0.52942  0.83510  0.11935  1.0000
  H   H6070     1.0  0.52361  0.86859  0.13291  1.0000
  C   C5086     1.0  0.59897  0.89134  0.99108  1.0000
  C   C5087     1.0  0.61722  0.89081  0.12821  1.0000
  H   H6071     1.0  0.61238  0.88339  0.03896  1.0000
  S   S1371     1.0  0.63707  0.82707  0.19103  1.0000
  C   C5088     1.0  0.83027  0.74176  0.16843  1.0000
  C   C5089     1.0  0.61159  0.88392  0.02847  1.0000
  S   S1372     1.0  0.64700  0.79443  0.22080  1.0000
  C   C5090     1.0  0.78749  0.77597  0.16861  1.0000
  C   C5091     1.0  0.64839  0.88126  0.18053  1.0000
  H   H6072     1.0  0.74032  0.75862  0.15740  1.0000
  H   H6073     1.0  0.66998  0.97623  0.17056  1.0000
  C   C5092     1.0  0.52705  0.84311  0.10683  1.0000
  C   C5093     1.0  0.66981  0.97255  0.16165  1.0000
  N   N333      1.0  0.70112  0.82973  0.20457  1.0000
  H   H6074     1.0  0.66377  0.79113  0.15571  1.0000
  C   C5094     1.0  0.51092  0.85997  0.15153  1.0000
  H   H6075     1.0  0.56010  0.81527  0.14795  1.0000
  C   C5095     1.0  0.63206  0.97003  0.11300  1.0000
  C   C5096     1.0  0.84282  0.74166  0.15899  1.0000
  H   H6076     1.0  0.81745  0.90425  0.22399  1.0000
  S   S1373     1.0  0.62968  0.97005  0.15113  1.0000
  C   C5097     1.0  0.64273  0.83438  0.12046  1.0000
  H   H6077     1.0  0.64274  0.88393  0.17264  1.0000
  H   H6078     1.0  0.74092  0.77178  0.16484  1.0000
  S   S1374     1.0  0.78747  0.74908  0.11470  1.0000
  H   H6079     1.0  0.79562  0.89190  0.20964  1.0000
  N   N334      1.0  0.54434  0.82439  0.13634  1.0000
  C   C5098     1.0  0.55863  0.82189  0.13794  1.0000
  C   C5099     1.0  0.53513  0.83133  0.14718  1.0000
  C   C5100     1.0  0.54115  0.81093  0.13843  1.0000
  H   H6080     1.0  0.64821  0.86678  0.21401  1.0000
  H   H6081     1.0  0.65315  0.97718  0.12938  1.0000
  H   H6082     1.0  0.82131  0.74152  0.16531  1.0000
  H   H6083     1.0  0.54721  0.80583  0.12991  1.0000
  H   H6084     1.0  0.56620  0.81694  0.12990  1.0000
  H   H6085     1.0  0.56137  0.83150  0.13753  1.0000
  H   H6086     1.0  0.52411  0.83274  0.14730  1.0000
  H   H6087     1.0  0.53704  0.84161  0.14575  1.0000
  H   H6088     1.0  0.53664  0.82562  0.15749  1.0000
  H   H6089     1.0  0.69935  0.80898  0.21386  1.0000
  H   H6090     1.0  0.53012  0.81169  0.13918  1.0000
  C   C5101     1.0  0.54216  0.83285  0.12295  1.0000
  C   C5102     1.0  0.59894  0.86748  0.99696  1.0000
  H   H6091     1.0  0.64161  0.84783  0.20457  1.0000
  H   H6092     1.0  0.51023  0.86557  0.11818  1.0000
  H   H6093     1.0  0.67730  0.95691  0.14385  1.0000
  H   H6094     1.0  0.66370  0.89213  0.16728  1.0000
  H   H6095     1.0  0.55755  0.85258  0.09382  1.0000
  N   N335      1.0  0.66993  0.95785  0.16509  1.0000
  H   H6096     1.0  0.64037  0.97505  0.10615  1.0000
  C   C5103     1.0  0.66036  0.88617  0.17733  1.0000
  N   N336      1.0  0.63105  0.86833  0.19730  1.0000
  H   H6097     1.0  0.80589  0.87677  0.21761  1.0000
  H   H6098     1.0  0.62145  0.87811  0.02335  1.0000
  H   H6099     1.0  0.64843  0.83772  0.11022  1.0000
  C   C5104     1.0  0.64379  0.87348  0.19367  1.0000
  H   H6100     1.0  0.85049  0.76655  0.20420  1.0000
  C   C5105     1.0  0.70598  0.93531  0.18058  1.0000
  N   N337      1.0  0.61897  0.97558  0.10848  1.0000
  C   C5106     1.0  0.78930  0.76192  0.17298  1.0000
  H   H6101     1.0  0.60747  0.95553  0.10540  1.0000
  H   H6102     1.0  0.62116  0.88072  0.21210  1.0000
  C   C5107     1.0  0.79757  0.88578  0.21969  1.0000
  C   C5108     1.0  0.63198  0.85532  0.20763  1.0000
  H   H6103     1.0  0.63392  0.79990  0.16443  1.0000
  H   H6104     1.0  0.60962  0.87525  0.20588  1.0000
  C   C5109     1.0  0.58862  0.95494  0.13738  1.0000
  H   H6105     1.0  0.66608  0.82177  0.14855  1.0000
  N   N338      1.0  0.75886  0.75526  0.16452  1.0000
  C   C5110     1.0  0.68242  0.95013  0.17018  1.0000
  C   C5111     1.0  0.68520  0.82213  0.17975  1.0000
  C   C5112     1.0  0.67407  0.84481  0.18303  1.0000
  C   C5113     1.0  0.67541  0.83405  0.17707  1.0000
  C   C5114     1.0  0.53718  0.84935  0.09763  1.0000
  H   H6106     1.0  0.68626  0.81380  0.17508  1.0000
  H   H6107     1.0  0.66664  0.85415  0.18073  1.0000
  H   H6108     1.0  0.66892  0.83494  0.17032  1.0000
  H   H6109     1.0  0.60239  0.87157  0.11897  1.0000
  N   N339      1.0  0.68807  0.87814  0.12597  1.0000
  C   C5115     1.0  0.68422  0.88931  0.11455  1.0000
  C   C5116     1.0  0.68892  0.88454  0.13661  1.0000
  C   C5117     1.0  0.70191  0.87001  0.12116  1.0000
  C   C5118     1.0  0.67801  0.86933  0.13076  1.0000
  C   C5119     1.0  0.67547  0.86313  0.12156  1.0000
  C   C5120     1.0  0.67034  0.86683  0.14441  1.0000
  C   C5121     1.0  0.66545  0.85544  0.12556  1.0000
  C   C5122     1.0  0.66025  0.85921  0.14829  1.0000
  C   C5123     1.0  0.65769  0.85368  0.13885  1.0000
  H   H6110     1.0  0.68471  0.88553  0.10549  1.0000
  H   H6111     1.0  0.67360  0.89528  0.11762  1.0000
  H   H6112     1.0  0.69121  0.89651  0.11110  1.0000
  H   H6113     1.0  0.67883  0.89086  0.14066  1.0000
  H   H6114     1.0  0.69628  0.89138  0.13268  1.0000
  H   H6115     1.0  0.69261  0.87687  0.14523  1.0000
  H   H6116     1.0  0.70248  0.86573  0.11239  1.0000
  H   H6117     1.0  0.70990  0.87611  0.11796  1.0000
  H   H6118     1.0  0.70492  0.86127  0.12935  1.0000
  H   H6119     1.0  0.68125  0.86416  0.11116  1.0000
  H   H6120     1.0  0.67205  0.87052  0.15230  1.0000
  H   H6121     1.0  0.66372  0.85090  0.11826  1.0000
  H   H6122     1.0  0.65443  0.85755  0.15869  1.0000
  H   H6123     1.0  0.64973  0.84799  0.14185  1.0000
  C   C5124     1.0  0.63144  0.88611  0.10670  1.0000
  N   N340      1.0  0.84181  0.77208  0.22372  1.0000
  C   C5125     1.0  0.64187  0.88660  0.12440  1.0000
  S   S1375     1.0  0.62403  0.93974  0.13934  1.0000
  H   H6124     1.0  0.59385  0.90770  0.12096  1.0000
  C   C5126     1.0  0.85439  0.74191  0.16314  1.0000
  H   H6125     1.0  0.75834  0.78344  0.15746  1.0000
  S   S1376     1.0  0.68767  0.78609  0.21589  1.0000
  C   C5127     1.0  0.59678  0.88232  0.11881  1.0000
  C   C5128     1.0  0.61805  0.88946  0.11490  1.0000
  H   H6126     1.0  0.63667  0.85866  0.18029  1.0000
  C   C5129     1.0  0.62111  0.83444  0.13670  1.0000
  C   C5130     1.0  0.77990  0.75530  0.17180  1.0000
  H   H6127     1.0  0.82204  0.89060  0.21534  1.0000
  Fe  Fe688     1.0  0.64208  0.81680  0.21158  1.0000
  S   S1377     1.0  0.87583  0.74155  0.20964  1.0000
  C   C5131     1.0  0.68388  0.95104  0.18293  1.0000
  C   C5132     1.0  0.49587  0.85618  0.13472  1.0000
  C   C5133     1.0  0.54973  0.84756  0.10090  1.0000
  H   H6128     1.0  0.71866  0.83291  0.18851  1.0000
  H   H6129     1.0  0.63105  0.97136  0.12341  1.0000
  C   C5134     1.0  0.82779  0.77464  0.22140  1.0000
  H   H6130     1.0  0.71465  0.92912  0.18485  1.0000
  H   H6131     1.0  0.61001  0.83787  0.13911  1.0000
  H   H6132     1.0  0.70079  0.81131  0.19056  1.0000
  H   H6133     1.0  0.66894  0.87539  0.20799  1.0000
  C   C5135     1.0  0.69250  0.83159  0.19483  1.0000
  C   C5136     1.0  0.60311  0.97107  0.13152  1.0000
  H   H6134     1.0  0.86233  0.77063  0.21101  1.0000
  C   C5137     1.0  0.51483  0.86398  0.13741  1.0000
  H   H6135     1.0  0.77190  0.75089  0.14562  1.0000
  H   H6136     1.0  0.67603  0.95736  0.18913  1.0000
  H   H6137     1.0  0.62144  0.82252  0.15648  1.0000
  H   H6138     1.0  0.52099  0.83101  0.12634  1.0000
  H   H6139     1.0  0.64786  0.96016  0.17164  1.0000
  C   C5138     1.0  0.65900  0.79922  0.14795  1.0000
  C   C5139     1.0  0.61948  0.87863  0.20293  1.0000
  C   C5140     1.0  0.64961  0.82550  0.13029  1.0000
  C   C5141     1.0  0.65139  0.87182  0.20357  1.0000
  H   H6140     1.0  0.68879  0.84554  0.21515  1.0000
  H   H6141     1.0  0.58127  0.94953  0.14479  1.0000
  H   H6142     1.0  0.78190  0.74435  0.17511  1.0000
  C   C5142     1.0  0.62786  0.82549  0.14660  1.0000
  C   C5143     1.0  0.69945  0.84221  0.20947  1.0000
  Fe  Fe689     1.0  0.66643  0.79820  0.22290  1.0000
  H   H6143     1.0  0.72267  0.82508  0.20478  1.0000
  C   C5144     1.0  0.59332  0.96440  0.14091  1.0000
  H   H6144     1.0  0.65922  0.95923  0.14970  1.0000
  C   C5145     1.0  0.66910  0.95403  0.15277  1.0000
  Fe  Fe690     1.0  0.73816  0.88127  0.22313  1.0000
  H   H6145     1.0  0.77556  0.90410  0.21978  1.0000
  C   C5146     1.0  0.60355  0.95868  0.11499  1.0000
  C   C5147     1.0  0.50725  0.86222  0.12908  1.0000
  C   C5148     1.0  0.66327  0.87684  0.20028  1.0000
  C   C5149     1.0  0.69742  0.81898  0.21657  1.0000
  H   H6146     1.0  0.65754  0.82978  0.98512  1.0000
  H   H6147     1.0  0.74762  0.75438  0.18522  1.0000
  H   H6148     1.0  0.79817  0.75609  0.17710  1.0000
  H   H6149     1.0  0.70334  0.81751  0.22439  1.0000
  H   H6150     1.0  0.66980  0.94291  0.15458  1.0000
  H   H6151     1.0  0.78017  0.73835  0.09281  1.0000
  H   H6152     1.0  0.59980  0.85700  0.01707  1.0000
  H   H6153     1.0  0.61885  0.86099  0.18844  1.0000
  H   H6154     1.0  0.59917  0.90027  0.00687  1.0000
  H   H6155     1.0  0.62891  0.97970  0.08714  1.0000
  H   H6156     1.0  0.66067  0.82247  0.12732  1.0000
  H   H6157     1.0  0.63559  0.95896  0.11318  1.0000
  H   H6158     1.0  0.70216  0.85068  0.20088  1.0000
  C   C5150     1.0  0.62789  0.86574  0.18539  1.0000
  H   H6159     1.0  0.68632  0.82160  0.22145  1.0000
  H   H6160     1.0  0.61419  0.89739  0.08851  1.0000
  C   C5151     1.0  0.60798  0.89028  0.09582  1.0000
  H   H6161     1.0  0.65090  0.88588  0.12792  1.0000
  C   C5152     1.0  0.59747  0.90601  0.11044  1.0000
  N   N341      1.0  0.70744  0.86067  0.05179  1.0000
  C   C5153     1.0  0.71668  0.86312  0.03818  1.0000
  C   C5154     1.0  0.69480  0.87168  0.05208  1.0000
  C   C5155     1.0  0.71447  0.86165  0.06189  1.0000
  C   C5156     1.0  0.70387  0.84733  0.05444  1.0000
  C   C5157     1.0  0.70809  0.83612  0.06474  1.0000
  C   C5158     1.0  0.69593  0.84523  0.04651  1.0000
  C   C5159     1.0  0.70398  0.82389  0.06732  1.0000
  C   C5160     1.0  0.69167  0.83305  0.04933  1.0000
  C   C5161     1.0  0.69559  0.82244  0.05980  1.0000
  H   H6162     1.0  0.71974  0.87300  0.03586  1.0000
  H   H6163     1.0  0.72619  0.85492  0.03750  1.0000
  H   H6164     1.0  0.71173  0.86342  0.02996  1.0000
  H   H6165     1.0  0.68999  0.87327  0.04342  1.0000
  H   H6166     1.0  0.69675  0.88170  0.05167  1.0000
  H   H6167     1.0  0.68691  0.86939  0.06152  1.0000
  H   H6168     1.0  0.72451  0.85424  0.06172  1.0000
  H   H6169     1.0  0.71665  0.87190  0.05993  1.0000
  H   H6170     1.0  0.70801  0.85983  0.07238  1.0000
  H   H6171     1.0  0.71416  0.83663  0.07133  1.0000
  H   H6172     1.0  0.69263  0.85315  0.03828  1.0000
  H   H6173     1.0  0.70685  0.81568  0.07560  1.0000
  H   H6174     1.0  0.68499  0.83196  0.04362  1.0000
  H   H6175     1.0  0.69188  0.81319  0.06228  1.0000
  H   H6176     1.0  0.71846  0.81536  0.19564  1.0000
  C   C5162     1.0  0.75286  0.74752  0.17798  1.0000
  N   N342      1.0  0.60538  0.89192  0.10998  1.0000
  N   N343      1.0  0.59992  0.87840  0.02855  1.0000
  C   C5163     1.0  0.60144  0.86459  0.03747  1.0000
  C   C5164     1.0  0.69357  0.94184  0.16262  1.0000
  C   C5165     1.0  0.58699  0.88697  0.03478  1.0000
  C   C5166     1.0  0.59963  0.87859  0.01446  1.0000
  C   C5167     1.0  0.59923  0.89089  0.00445  1.0000
  C   C5168     1.0  0.59941  0.86686  0.01031  1.0000
  C   C5169     1.0  0.84080  0.74279  0.18597  1.0000
  H   H6177     1.0  0.74519  0.74235  0.17725  1.0000
  H   H6178     1.0  0.51711  0.84482  0.10447  1.0000
  H   H6179     1.0  0.61108  0.85765  0.03336  1.0000
  H   H6180     1.0  0.63418  0.81331  0.17203  1.0000
  H   H6181     1.0  0.69347  0.94040  0.15286  1.0000
  C   C5170     1.0  0.70513  0.93456  0.16782  1.0000
  H   H6182     1.0  0.59256  0.86006  0.03880  1.0000
  H   H6183     1.0  0.67714  0.88757  0.18467  1.0000
  C   C5171     1.0  0.55226  0.83944  0.11334  1.0000
  H   H6184     1.0  0.66784  0.80210  0.13984  1.0000
  H   H6185     1.0  0.66046  0.97880  0.15800  1.0000
  C   C5172     1.0  0.77618  0.78346  0.16318  1.0000
  H   H6186     1.0  0.66418  0.81103  0.16508  1.0000
  H   H6187     1.0  0.65327  0.79454  0.14367  1.0000
  H   H6188     1.0  0.64659  0.79790  0.17383  1.0000
  H   H6189     1.0  0.58670  0.88683  0.04553  1.0000
  C   C5173     1.0  0.65737  0.95551  0.17564  1.0000
  C   C5174     1.0  0.76671  0.77695  0.16198  1.0000
  C   C5175     1.0  0.74733  0.76437  0.15847  1.0000
  H   H6190     1.0  0.59039  0.94438  0.12192  1.0000
  C   C5176     1.0  0.76838  0.76259  0.16611  1.0000
  C   C5177     1.0  0.65835  0.81794  0.15746  1.0000
  C   C5178     1.0  0.64068  0.80527  0.16649  1.0000
  Fe  Fe691     1.0  0.73361  0.86830  0.20239  1.0000
  C   C5179     1.0  0.77774  0.90949  0.22606  1.0000
  H   H6191     1.0  0.57792  0.88335  0.03477  1.0000
  S   S1378     1.0  0.83940  0.74378  0.20276  1.0000
  H   H6192     1.0  0.63155  0.85664  0.21790  1.0000
  S   S1379     1.0  0.66214  0.81999  0.21226  1.0000
  H   H6193     1.0  0.60197  0.86478  0.04788  1.0000
  H   H6194     1.0  0.65184  0.82668  0.16203  1.0000
  C   C5180     1.0  0.69359  0.82086  0.18854  1.0000
  H   H6195     1.0  0.70619  0.84060  0.21661  1.0000
  H   H6196     1.0  0.62321  0.84555  0.11595  1.0000
  H   H6197     1.0  0.69604  0.94387  0.19814  1.0000
  H   H6198     1.0  0.71323  0.92783  0.16217  1.0000
  H   H6199     1.0  0.58968  0.96626  0.15113  1.0000
  H   H6200     1.0  0.53520  0.85574  0.08803  1.0000
  C   C5181     1.0  0.59376  0.95206  0.12448  1.0000
  C   C5182     1.0  0.60837  0.96860  0.11817  1.0000
  H   H6201     1.0  0.75784  0.92302  0.22645  1.0000
  H   H6202     1.0  0.77441  0.73739  0.16008  1.0000
  H   H6203     1.0  0.66665  0.81258  0.98502  1.0000
  C   C5183     1.0  0.82921  0.74253  0.18185  1.0000
  H   H6204     1.0  0.62617  0.96299  0.09355  1.0000
  H   H6205     1.0  0.81093  0.90640  0.20926  1.0000
  H   H6206     1.0  0.86244  0.74244  0.17976  1.0000
  C   C5184     1.0  0.62148  0.97377  0.09436  1.0000
  H   H6207     1.0  0.64683  0.87851  0.98616  1.0000
  H   H6208     1.0  0.65589  0.96005  0.18447  1.0000
  N   N344      1.0  0.80126  0.89383  0.22723  1.0000
  C   C5185     1.0  0.85344  0.74223  0.17666  1.0000
  H   H6209     1.0  0.75962  0.74039  0.15341  1.0000
  C   C5186     1.0  0.63737  0.86317  0.98487  1.0000
  H   H6210     1.0  0.86413  0.74186  0.15588  1.0000
  H   H6211     1.0  0.76075  0.73940  0.18259  1.0000
  S   S1380     1.0  0.62609  0.84258  0.98360  1.0000
  S   S1381     1.0  0.80466  0.74224  0.14597  1.0000
  H   H6212     1.0  0.82482  0.78495  0.21508  1.0000
  H   H6213     1.0  0.61182  0.97709  0.09062  1.0000
  S   S1382     1.0  0.84427  0.74117  0.14201  1.0000
  H   H6214     1.0  0.82709  0.76733  0.21578  1.0000
  C   C5187     1.0  0.59887  0.87964  0.98734  1.0000
  H   H6215     1.0  0.78821  0.88188  0.22555  1.0000
  H   H6216     1.0  0.60691  0.97777  0.13504  1.0000
  H   H6217     1.0  0.59890  0.90078  0.98354  1.0000
  H   H6218     1.0  0.59898  0.85837  0.99394  1.0000
  H   H6219     1.0  0.84334  0.75056  0.22655  1.0000
  Fe  Fe692     1.0  0.80309  0.73715  0.12712  1.0000
  H   H6220     1.0  0.79524  0.73869  0.07132  1.0000
  C   C5188     1.0  0.76737  0.92046  0.22980  1.0000
  C   C5189     1.0  0.63729  0.98442  0.14565  1.0000
  S   S1383     1.0  0.75640  0.88270  0.23013  1.0000
  Fe  Fe693     1.0  0.78447  0.78104  0.38487  1.0000
  S   S1384     1.0  0.80070  0.78072  0.39544  1.0000
  S   S1385     1.0  0.76591  0.77164  0.39512  1.0000
  Fe  Fe694     1.0  0.79680  0.79917  0.35911  1.0000
  S   S1386     1.0  0.81421  0.80039  0.36705  1.0000
  S   S1387     1.0  0.79367  0.80934  0.33811  1.0000
  Fe  Fe695     1.0  0.81548  0.77815  0.37562  1.0000
  S   S1388     1.0  0.83533  0.76282  0.37665  1.0000
  Fe  Fe696     1.0  0.79828  0.80301  0.38618  1.0000
  S   S1389     1.0  0.79696  0.81943  0.39702  1.0000
  S   S1390     1.0  0.79956  0.77656  0.36583  1.0000
  S   S1391     1.0  0.78062  0.80370  0.37742  1.0000
  Fe  Fe697     1.0  0.88480  0.78264  0.31065  1.0000
  S   S1392     1.0  0.87617  0.80408  0.31317  1.0000
  S   S1393     1.0  0.88736  0.76485  0.32801  1.0000
  Fe  Fe698     1.0  0.88823  0.78959  0.28012  1.0000
  S   S1394     1.0  0.88011  0.81192  0.27977  1.0000
  S   S1395     1.0  0.89538  0.78130  0.26080  1.0000
  Fe  Fe699     1.0  0.89272  0.80924  0.29500  1.0000
  S   S1396     1.0  0.90294  0.82626  0.29355  1.0000
  Fe  Fe700     1.0  0.86431  0.80522  0.29799  1.0000
  S   S1397     1.0  0.84199  0.81477  0.30282  1.0000
  S   S1398     1.0  0.90255  0.78747  0.29357  1.0000
  S   S1399     1.0  0.87127  0.78319  0.29725  1.0000
  Fe  Fe701     1.0  0.77926  0.90214  0.28393  1.0000
  S   S1400     1.0  0.79981  0.90665  0.27245  1.0000
  S   S1401     1.0  0.75997  0.90992  0.27554  1.0000
  Fe  Fe702     1.0  0.79045  0.88447  0.30831  1.0000
  S   S1402     1.0  0.81194  0.88707  0.29887  1.0000
  S   S1403     1.0  0.78606  0.87278  0.32991  1.0000
  Fe  Fe703     1.0  0.80232  0.90899  0.29225  1.0000
  S   S1404     1.0  0.81273  0.92524  0.29243  1.0000
  Fe  Fe704     1.0  0.80788  0.88452  0.27998  1.0000
  S   S1405     1.0  0.82426  0.87235  0.26627  1.0000
  S   S1406     1.0  0.78087  0.90673  0.30314  1.0000
  S   S1407     1.0  0.78724  0.87971  0.29003  1.0000
  H   H6221     1.0  0.97665  0.84551  0.40319  1.0000
  S   S1408     1.0  0.62365  0.79018  0.25821  1.0000
  C   C5190     1.0  0.83134  0.76097  0.33906  1.0000
  C   C5191     1.0  0.88792  0.75547  0.24238  1.0000
  H   H6222     1.0  0.63588  0.79347  0.31053  1.0000
  C   C5192     1.0  0.87589  0.85410  0.30203  1.0000
  H   H6223     1.0  0.68684  0.86795  0.23746  1.0000
  H   H6224     1.0  0.80656  0.77772  0.33477  1.0000
  H   H6225     1.0  0.89573  0.92965  0.38202  1.0000
  H   H6226     1.0  0.83990  0.78819  0.30234  1.0000
  Fe  Fe705     1.0  0.84566  0.83053  0.43602  1.0000
  S   S1409     1.0  0.85777  0.84342  0.41885  1.0000
  S   S1410     1.0  0.84122  0.81276  0.43083  1.0000
  Fe  Fe706     1.0  0.84592  0.84638  0.45695  1.0000
  S   S1411     1.0  0.85808  0.86043  0.44100  1.0000
  Fe  Fe707     1.0  0.84429  0.86091  0.42778  1.0000
  S   S1412     1.0  0.83454  0.87922  0.41384  1.0000
  Fe  Fe708     1.0  0.87042  0.84160  0.43354  1.0000
  S   S1413     1.0  0.89325  0.83649  0.42598  1.0000
  S   S1414     1.0  0.83105  0.84827  0.44404  1.0000
  S   S1415     1.0  0.85941  0.82731  0.45037  1.0000
  Fe  Fe709     1.0  0.84411  0.93792  0.34666  1.0000
  S   S1416     1.0  0.85053  0.95632  0.33198  1.0000
  S   S1417     1.0  0.83311  0.92279  0.34486  1.0000
  Fe  Fe710     1.0  0.86141  0.93755  0.36587  1.0000
  S   S1418     1.0  0.86973  0.95565  0.35273  1.0000
  S   S1419     1.0  0.86886  0.92429  0.38443  1.0000
  Fe  Fe711     1.0  0.84805  0.96482  0.35036  1.0000
  Fe  Fe712     1.0  0.87164  0.94604  0.33546  1.0000
  S   S1420     1.0  0.88924  0.94596  0.31723  1.0000
  S   S1421     1.0  0.83950  0.94723  0.36486  1.0000
  S   S1422     1.0  0.86551  0.92716  0.34879  1.0000
  Fe  Fe713     1.0  0.93359  0.84859  0.34217  1.0000
  S   S1423     1.0  0.95108  0.85549  0.32586  1.0000
  S   S1424     1.0  0.92110  0.83327  0.34393  1.0000
  Fe  Fe714     1.0  0.93276  0.86849  0.35888  1.0000
  S   S1425     1.0  0.94975  0.87745  0.34392  1.0000
  S   S1426     1.0  0.92147  0.87737  0.37727  1.0000
  Fe  Fe715     1.0  0.93921  0.87648  0.32839  1.0000
  S   S1427     1.0  0.93618  0.89335  0.31028  1.0000
  Fe  Fe716     1.0  0.96043  0.85588  0.34276  1.0000
  H   H6227     1.0  0.86481  0.77207  0.23164  1.0000
  S   S1428     1.0  0.92126  0.86961  0.34342  1.0000
  S   S1429     1.0  0.94400  0.84686  0.35894  1.0000
  H   H6228     1.0  0.81633  0.78765  0.44276  1.0000
  H   H6229     1.0  0.75972  0.80420  0.41079  1.0000
  C   C5193     1.0  0.87932  0.92596  0.29356  1.0000
  C   C5194     1.0  0.89215  0.87857  0.32317  1.0000
  C   C5195     1.0  0.89945  0.88726  0.31305  1.0000
  H   H6230     1.0  0.77397  0.74524  0.36033  1.0000
  C   C5196     1.0  0.86873  0.88626  0.45304  1.0000
  H   H6231     1.0  0.80424  0.78963  0.31957  1.0000
  C   C5197     1.0  0.87110  0.89566  0.32174  1.0000
  H   H6232     1.0  0.85371  0.92669  0.29495  1.0000
  H   H6233     1.0  0.85111  0.78746  0.39163  1.0000
  C   C5198     1.0  0.90174  0.93088  0.31577  1.0000
  C   C5199     1.0  0.90214  0.91933  0.32637  1.0000
  C   C5200     1.0  0.91266  0.90764  0.32486  1.0000
  C   C5201     1.0  0.92262  0.90748  0.31267  1.0000
  C   C5202     1.0  0.92192  0.91891  0.30202  1.0000
  C   C5203     1.0  0.91160  0.93059  0.30360  1.0000
  H   H6234     1.0  0.89458  0.91953  0.33579  1.0000
  H   H6235     1.0  0.91315  0.89887  0.33315  1.0000
  H   H6236     1.0  0.92958  0.91884  0.29259  1.0000
  H   H6237     1.0  0.91135  0.93949  0.29539  1.0000
  C   C5204     1.0  0.89956  0.84833  0.41187  1.0000
  C   C5205     1.0  0.89700  0.86203  0.41235  1.0000
  C   C5206     1.0  0.90370  0.87098  0.40165  1.0000
  C   C5207     1.0  0.91275  0.86626  0.39038  1.0000
  C   C5208     1.0  0.91475  0.85272  0.38965  1.0000
  C   C5209     1.0  0.90827  0.84375  0.40042  1.0000
  H   H6238     1.0  0.89030  0.86559  0.42122  1.0000
  H   H6239     1.0  0.90200  0.88149  0.40220  1.0000
  H   H6240     1.0  0.92154  0.84901  0.38097  1.0000
  H   H6241     1.0  0.91030  0.83315  0.40004  1.0000
  C   C5210     1.0  0.84413  0.89173  0.40602  1.0000
  C   C5211     1.0  0.85634  0.89103  0.40955  1.0000
  C   C5212     1.0  0.86380  0.90120  0.40308  1.0000
  C   C5213     1.0  0.85913  0.91199  0.39298  1.0000
  C   C5214     1.0  0.84698  0.91259  0.38942  1.0000
  C   C5215     1.0  0.83943  0.90256  0.39602  1.0000
  H   H6242     1.0  0.86007  0.88265  0.41722  1.0000
  H   H6243     1.0  0.87327  0.90061  0.40578  1.0000
  H   H6244     1.0  0.84336  0.92077  0.38155  1.0000
  H   H6245     1.0  0.82999  0.90316  0.39324  1.0000
  H   H6246     1.0  0.74255  0.75940  0.40160  1.0000
  H   H6247     1.0  0.88693  0.82542  0.39006  1.0000
  H   H6248     1.0  0.86391  0.74473  0.31523  1.0000
  C   C5216     1.0  0.88203  0.81967  0.38644  1.0000
  C   C5217     1.0  0.65428  0.76409  0.34415  1.0000
  H   H6249     1.0  0.81185  0.76781  0.43773  1.0000
  H   H6250     1.0  0.85533  0.79738  0.35486  1.0000
  C   C5218     1.0  0.80687  0.78851  0.43985  1.0000
  C   C5219     1.0  0.99180  0.86751  0.34858  1.0000
  H   H6251     1.0  0.79967  0.80964  0.44043  1.0000
  H   H6252     1.0  0.75725  0.80710  0.43995  1.0000
  H   H6253     1.0  0.62663  0.78510  0.28896  1.0000
  H   H6254     1.0  0.64311  0.78282  0.27776  1.0000
  C   C5220     1.0  0.79742  0.80090  0.43858  1.0000
  C   C5221     1.0  0.62927  0.77281  0.26509  1.0000
  C   C5222     1.0  0.64255  0.76563  0.26039  1.0000
  C   C5223     1.0  0.64708  0.75208  0.26692  1.0000
  H   H6255     1.0  0.82874  0.77913  0.29964  1.0000
  H   H6256     1.0  0.67471  0.82316  0.24744  1.0000
  C   C5224     1.0  0.62050  0.76634  0.27618  1.0000
  H   H6257     1.0  0.64938  0.77058  0.25184  1.0000
  H   H6258     1.0  0.82406  0.87438  0.46112  1.0000
  C   C5225     1.0  0.82255  0.88225  0.45178  1.0000
  H   H6259     1.0  0.61020  0.77183  0.27981  1.0000
  H   H6260     1.0  0.72673  0.84151  0.28174  1.0000
  H   H6261     1.0  0.78207  0.92970  0.24985  1.0000
  C   C5226     1.0  0.68950  0.83379  0.24804  1.0000
  H   H6262     1.0  0.95880  0.82524  0.39161  1.0000
  C   C5227     1.0  0.81884  0.92438  0.30680  1.0000
  C   C5228     1.0  0.82251  0.93578  0.30811  1.0000
  C   C5229     1.0  0.82713  0.93544  0.31962  1.0000
  C   C5230     1.0  0.82822  0.92362  0.32980  1.0000
  C   C5231     1.0  0.82521  0.91204  0.32815  1.0000
  C   C5232     1.0  0.82038  0.91243  0.31679  1.0000
  H   H6263     1.0  0.82140  0.94504  0.30038  1.0000
  H   H6264     1.0  0.82947  0.94443  0.32076  1.0000
  H   H6265     1.0  0.82667  0.90275  0.33569  1.0000
  H   H6266     1.0  0.81788  0.90352  0.31571  1.0000
  C   C5233     1.0  0.75803  0.90142  0.26404  1.0000
  C   C5234     1.0  0.74660  0.90620  0.25804  1.0000
  C   C5235     1.0  0.76668  0.88386  0.25085  1.0000
  C   C5236     1.0  0.76789  0.89003  0.26062  1.0000
  H   H6267     1.0  0.61818  0.74799  0.29125  1.0000
  H   H6268     1.0  0.77446  0.87516  0.24815  1.0000
  H   H6269     1.0  0.77656  0.88613  0.26535  1.0000
  C   C5237     1.0  0.90785  0.82810  0.30769  1.0000
  C   C5238     1.0  0.90526  0.81939  0.32043  1.0000
  C   C5239     1.0  0.90936  0.82113  0.33143  1.0000
  C   C5240     1.0  0.91611  0.83153  0.32980  1.0000
  C   C5241     1.0  0.91848  0.84039  0.31713  1.0000
  C   C5242     1.0  0.91434  0.83868  0.30614  1.0000
  H   H6270     1.0  0.90032  0.81118  0.32175  1.0000
  H   H6271     1.0  0.90755  0.81421  0.34117  1.0000
  H   H6272     1.0  0.92367  0.84844  0.31574  1.0000
  H   H6273     1.0  0.91642  0.84544  0.29632  1.0000
  C   C5243     1.0  0.83690  0.83034  0.29212  1.0000
  C   C5244     1.0  0.84457  0.83393  0.27892  1.0000
  C   C5245     1.0  0.84052  0.84676  0.27079  1.0000
  C   C5246     1.0  0.82890  0.85601  0.27595  1.0000
  C   C5247     1.0  0.82122  0.85234  0.28911  1.0000
  C   C5248     1.0  0.82514  0.83948  0.29713  1.0000
  H   H6274     1.0  0.85352  0.82680  0.27492  1.0000
  H   H6275     1.0  0.84645  0.84958  0.26059  1.0000
  H   H6276     1.0  0.81229  0.85942  0.29320  1.0000
  H   H6277     1.0  0.81922  0.83673  0.30735  1.0000
  C   C5249     1.0  0.88827  0.76925  0.25767  1.0000
  H   H6278     1.0  0.85685  0.84046  0.30567  1.0000
  H   H6279     1.0  0.97912  0.83242  0.38553  1.0000
  H   H6280     1.0  0.87325  0.93595  0.28910  1.0000
  H   H6281     1.0  0.94311  0.86221  0.40748  1.0000
  C   C5250     1.0  0.80967  0.81763  0.40591  1.0000
  C   C5251     1.0  0.81970  0.80562  0.40772  1.0000
  C   C5252     1.0  0.82935  0.80431  0.41532  1.0000
  C   C5253     1.0  0.82926  0.81507  0.42090  1.0000
  C   C5254     1.0  0.81941  0.82718  0.41885  1.0000
  C   C5255     1.0  0.80955  0.82838  0.41152  1.0000
  H   H6282     1.0  0.81975  0.79720  0.40363  1.0000
  H   H6283     1.0  0.83682  0.79484  0.41705  1.0000
  H   H6284     1.0  0.81917  0.83547  0.42323  1.0000
  H   H6285     1.0  0.80172  0.83764  0.41030  1.0000
  C   C5256     1.0  0.84939  0.76372  0.36276  1.0000
  C   C5257     1.0  0.84913  0.77457  0.35146  1.0000
  C   C5258     1.0  0.86071  0.77496  0.34061  1.0000
  C   C5259     1.0  0.87256  0.76456  0.34116  1.0000
  C   C5260     1.0  0.87277  0.75378  0.35248  1.0000
  C   C5261     1.0  0.86122  0.75336  0.36323  1.0000
  H   H6286     1.0  0.84003  0.78262  0.35114  1.0000
  H   H6287     1.0  0.86049  0.78328  0.33185  1.0000
  H   H6288     1.0  0.62439  0.78249  0.31314  1.0000
  H   H6289     1.0  0.82272  0.76532  0.34626  1.0000
  C   C5262     1.0  0.79176  0.82694  0.33569  1.0000
  C   C5263     1.0  0.79138  0.83532  0.32281  1.0000
  C   C5264     1.0  0.78981  0.84941  0.32088  1.0000
  C   C5265     1.0  0.78838  0.85516  0.33189  1.0000
  C   C5266     1.0  0.78874  0.84676  0.34477  1.0000
  C   C5267     1.0  0.79056  0.83267  0.34664  1.0000
  H   H6290     1.0  0.79242  0.83092  0.31429  1.0000
  H   H6291     1.0  0.78958  0.85579  0.31093  1.0000
  H   H6292     1.0  0.78758  0.85112  0.35334  1.0000
  H   H6293     1.0  0.79089  0.82628  0.35661  1.0000
  C   C5268     1.0  0.76179  0.76081  0.38722  1.0000
  C   C5269     1.0  0.77054  0.75678  0.37554  1.0000
  C   C5270     1.0  0.76703  0.74837  0.36931  1.0000
  C   C5271     1.0  0.81095  0.77989  0.32366  1.0000
  H   H6294     1.0  0.64570  0.75686  0.31019  1.0000
  C   C5272     1.0  0.84551  0.88348  0.46334  1.0000
  H   H6295     1.0  0.78010  0.76003  0.37133  1.0000
  S   S1430     1.0  0.65803  0.80285  0.24375  1.0000
  C   C5273     1.0  0.95195  0.83139  0.39857  1.0000
  C   C5274     1.0  0.94313  0.85191  0.40749  1.0000
  C   C5275     1.0  0.94155  0.82564  0.40807  1.0000
  C   C5276     1.0  0.93278  0.84606  0.41692  1.0000
  C   C5277     1.0  0.93208  0.83290  0.41730  1.0000
  H   H6296     1.0  0.94069  0.81555  0.40818  1.0000
  H   H6297     1.0  0.92503  0.85182  0.42380  1.0000
  H   H6298     1.0  0.92386  0.82851  0.42447  1.0000
  N   N345      1.0  0.79841  0.88654  0.35695  1.0000
  C   C5278     1.0  0.78432  0.88455  0.35915  1.0000
  C   C5279     1.0  0.79725  0.90126  0.35569  1.0000
  C   C5280     1.0  0.80658  0.88295  0.34386  1.0000
  C   C5281     1.0  0.80494  0.87763  0.36811  1.0000
  C   C5282     1.0  0.81037  0.88268  0.37629  1.0000
  C   C5283     1.0  0.80628  0.86334  0.37090  1.0000
  C   C5284     1.0  0.81655  0.87391  0.38667  1.0000
  C   C5285     1.0  0.81243  0.85468  0.38133  1.0000
  C   C5286     1.0  0.81755  0.85996  0.38922  1.0000
  H   H6299     1.0  0.77796  0.88651  0.36917  1.0000
  S   S1431     1.0  0.83637  0.85039  0.47839  1.0000
  H   H6300     1.0  0.78423  0.87411  0.35873  1.0000
  H   H6301     1.0  0.79078  0.90474  0.36504  1.0000
  H   H6302     1.0  0.79248  0.90764  0.34708  1.0000
  H   H6303     1.0  0.80745  0.90373  0.35363  1.0000
  H   H6304     1.0  0.80666  0.87244  0.34347  1.0000
  H   H6305     1.0  0.80229  0.88973  0.33510  1.0000
  H   H6306     1.0  0.81741  0.88363  0.34208  1.0000
  H   H6307     1.0  0.80991  0.89337  0.37495  1.0000
  H   H6308     1.0  0.80249  0.85873  0.36507  1.0000
  H   H6309     1.0  0.82046  0.87797  0.39293  1.0000
  H   H6310     1.0  0.81304  0.84382  0.38342  1.0000
  H   H6311     1.0  0.82217  0.85324  0.39741  1.0000
  N   N346      1.0  0.87639  0.87345  0.37401  1.0000
  C   C5287     1.0  0.89031  0.87621  0.36801  1.0000
  C   C5288     1.0  0.86637  0.88655  0.37131  1.0000
  C   C5289     1.0  0.87509  0.86864  0.38890  1.0000
  C   C5290     1.0  0.87357  0.86319  0.36853  1.0000
  C   C5291     1.0  0.88358  0.85607  0.35903  1.0000
  C   C5292     1.0  0.86049  0.85984  0.37293  1.0000
  C   C5293     1.0  0.88051  0.84646  0.35408  1.0000
  C   C5294     1.0  0.85755  0.85015  0.36797  1.0000
  C   C5295     1.0  0.86752  0.84352  0.35852  1.0000
  H   H6312     1.0  0.89186  0.88022  0.35683  1.0000
  H   H6313     1.0  0.89214  0.88390  0.37240  1.0000
  H   H6314     1.0  0.89844  0.86693  0.37013  1.0000
  H   H6315     1.0  0.86876  0.89473  0.37452  1.0000
  H   H6316     1.0  0.85571  0.88592  0.37692  1.0000
  H   H6317     1.0  0.86636  0.89008  0.36029  1.0000
  H   H6318     1.0  0.88190  0.85843  0.39139  1.0000
  H   H6319     1.0  0.87797  0.87565  0.39332  1.0000
  H   H6320     1.0  0.86444  0.86786  0.39444  1.0000
  H   H6321     1.0  0.89396  0.85757  0.35535  1.0000
  H   H6322     1.0  0.85248  0.86459  0.38041  1.0000
  H   H6323     1.0  0.88840  0.84103  0.34699  1.0000
  H   H6324     1.0  0.84752  0.84767  0.37162  1.0000
  H   H6325     1.0  0.86529  0.83589  0.35481  1.0000
  N   N347      1.0  0.72944  0.86191  0.27170  1.0000
  H   H6326     1.0  0.73635  0.74451  0.39048  1.0000
  C   C5296     1.0  0.72008  0.87523  0.26792  1.0000
  C   C5297     1.0  0.83980  0.74875  0.34409  1.0000
  C   C5298     1.0  0.73901  0.86238  0.27958  1.0000
  C   C5299     1.0  0.74811  0.85031  0.28460  1.0000
  C   C5300     1.0  0.73982  0.87465  0.28233  1.0000
  C   C5301     1.0  0.75717  0.85047  0.29216  1.0000
  C   C5302     1.0  0.74891  0.87467  0.28992  1.0000
  C   C5303     1.0  0.75752  0.86262  0.29486  1.0000
  H   H6327     1.0  0.96886  0.83961  0.37280  1.0000
  H   H6328     1.0  0.85601  0.75450  0.23222  1.0000
  H   H6329     1.0  0.82206  0.78887  0.33831  1.0000
  H   H6330     1.0  0.71391  0.87933  0.27703  1.0000
  Fe  Fe717     1.0  0.63135  0.73572  0.33471  1.0000
  H   H6331     1.0  0.82463  0.91511  0.43856  1.0000
  H   H6332     1.0  0.82256  0.79625  0.30218  1.0000
  H   H6333     1.0  0.80984  0.77172  0.31944  1.0000
  H   H6334     1.0  0.76458  0.86274  0.30069  1.0000
  C   C5304     1.0  0.85152  0.74295  0.33552  1.0000
  H   H6335     1.0  0.73371  0.88444  0.27858  1.0000
  H   H6336     1.0  0.76064  0.93579  0.24173  1.0000
  H   H6337     1.0  0.74944  0.88418  0.29178  1.0000
  C   C5305     1.0  0.84691  0.79901  0.24565  1.0000
  C   C5306     1.0  0.82938  0.78625  0.30546  1.0000
  C   C5307     1.0  0.87819  0.90466  0.31117  1.0000
  H   H6338     1.0  0.66958  0.77361  0.34540  1.0000
  H   H6339     1.0  0.74834  0.84068  0.28261  1.0000
  H   H6340     1.0  0.76857  0.81349  0.41611  1.0000
  H   H6341     1.0  0.88190  0.74574  0.35296  1.0000
  C   C5308     1.0  0.81721  0.90038  0.46369  1.0000
  H   H6342     1.0  0.89179  0.74649  0.30048  1.0000
  S   S1432     1.0  0.63483  0.75273  0.34164  1.0000
  H   H6343     1.0  0.86561  0.74866  0.27265  1.0000
  H   H6344     1.0  0.92089  0.73921  0.30567  1.0000
  Fe  Fe718     1.0  0.65187  0.82444  0.23273  1.0000
  C   C5309     1.0  0.76885  0.80325  0.41480  1.0000
  N   N348      1.0  0.82549  0.78098  0.32035  1.0000
  C   C5310     1.0  0.78538  0.80221  0.43446  1.0000
  H   H6345     1.0  0.84197  0.80283  0.38215  1.0000
  C   C5311     1.0  0.87359  0.84857  0.28206  1.0000
  C   C5312     1.0  0.85001  0.87891  0.28571  1.0000
  C   C5313     1.0  0.84749  0.89261  0.27913  1.0000
  C   C5314     1.0  0.87180  0.89170  0.27243  1.0000
  C   C5315     1.0  0.85835  0.89899  0.27247  1.0000
  H   H6346     1.0  0.86712  0.85031  0.27465  1.0000
  H   H6347     1.0  0.87582  0.83751  0.28661  1.0000
  H   H6348     1.0  0.88364  0.85101  0.27628  1.0000
  H   H6349     1.0  0.87754  0.84337  0.30786  1.0000
  H   H6350     1.0  0.84112  0.87453  0.29022  1.0000
  H   H6351     1.0  0.83703  0.89828  0.27897  1.0000
  H   H6352     1.0  0.88026  0.89661  0.26702  1.0000
  H   H6353     1.0  0.85629  0.90955  0.26720  1.0000
  C   C5316     1.0  0.66505  0.78682  0.28547  1.0000
  C   C5317     1.0  0.67938  0.77125  0.30549  1.0000
  C   C5318     1.0  0.67869  0.78727  0.28410  1.0000
  C   C5319     1.0  0.68583  0.77953  0.29409  1.0000
  H   H6354     1.0  0.63889  0.77657  0.32066  1.0000
  H   H6355     1.0  0.66016  0.79310  0.27735  1.0000
  H   H6356     1.0  0.68489  0.76526  0.31333  1.0000
  H   H6357     1.0  0.68372  0.79371  0.27521  1.0000
  H   H6358     1.0  0.69636  0.77995  0.29300  1.0000
  N   N349      1.0  0.72872  0.77282  0.34701  1.0000
  C   C5320     1.0  0.71818  0.78270  0.34009  1.0000
  C   C5321     1.0  0.73582  0.76219  0.33900  1.0000
  C   C5322     1.0  0.72138  0.76607  0.36037  1.0000
  C   C5323     1.0  0.73880  0.77985  0.34802  1.0000
  C   C5324     1.0  0.74660  0.78682  0.33609  1.0000
  C   C5325     1.0  0.74120  0.78006  0.36064  1.0000
  C   C5326     1.0  0.75621  0.79350  0.33675  1.0000
  C   C5327     1.0  0.75078  0.78685  0.36118  1.0000
  C   C5328     1.0  0.75831  0.79350  0.34928  1.0000
  H   H6359     1.0  0.72259  0.78728  0.32943  1.0000
  C   C5329     1.0  0.91623  0.74100  0.26405  1.0000
  H   H6360     1.0  0.71290  0.79110  0.34557  1.0000
  H   H6361     1.0  0.74079  0.76640  0.32843  1.0000
  H   H6362     1.0  0.72853  0.75657  0.33824  1.0000
  H   H6363     1.0  0.74393  0.75461  0.34381  1.0000
  H   H6364     1.0  0.71553  0.77344  0.36694  1.0000
  H   H6365     1.0  0.69628  0.82468  0.25223  1.0000
  H   H6366     1.0  0.72858  0.75791  0.36588  1.0000
  H   H6367     1.0  0.74538  0.78706  0.32614  1.0000
  H   H6368     1.0  0.73598  0.77489  0.37026  1.0000
  H   H6369     1.0  0.76214  0.79868  0.32754  1.0000
  H   H6370     1.0  0.75253  0.78678  0.37091  1.0000
  H   H6371     1.0  0.76585  0.79860  0.34978  1.0000
  N   N350      1.0  0.91018  0.92126  0.36544  1.0000
  C   C5330     1.0  0.91993  0.91449  0.37451  1.0000
  C   C5331     1.0  0.90069  0.93288  0.37112  1.0000
  C   C5332     1.0  0.90199  0.91160  0.36590  1.0000
  C   C5333     1.0  0.91770  0.92535  0.35126  1.0000
  C   C5334     1.0  0.92875  0.91590  0.34509  1.0000
  C   C5335     1.0  0.91392  0.93841  0.34298  1.0000
  C   C5336     1.0  0.93590  0.91948  0.33167  1.0000
  C   C5337     1.0  0.92110  0.94185  0.32954  1.0000
  C   C5338     1.0  0.93211  0.93244  0.32393  1.0000
  H   H6372     1.0  0.92708  0.92101  0.37356  1.0000
  H   H6373     1.0  0.91449  0.91217  0.38537  1.0000
  H   H6374     1.0  0.92615  0.90452  0.37234  1.0000
  H   H6375     1.0  0.90613  0.94087  0.37040  1.0000
  H   H6376     1.0  0.89201  0.93754  0.36592  1.0000
  H   H6377     1.0  0.90846  0.90266  0.36167  1.0000
  H   H6378     1.0  0.89670  0.90767  0.37651  1.0000
  H   H6379     1.0  0.89394  0.91657  0.35993  1.0000
  H   H6380     1.0  0.93169  0.90552  0.35042  1.0000
  H   H6381     1.0  0.90525  0.94608  0.34648  1.0000
  H   H6382     1.0  0.94406  0.91198  0.32705  1.0000
  H   H6383     1.0  0.91777  0.95173  0.32327  1.0000
  H   H6384     1.0  0.93737  0.93503  0.31339  1.0000
  H   H6385     1.0  0.71016  0.77776  0.33961  1.0000
  H   H6386     1.0  0.82088  0.80156  0.32316  1.0000
  C   C5339     1.0  0.85606  0.77998  0.23451  1.0000
  C   C5340     1.0  0.84987  0.79325  0.38126  1.0000
  C   C5341     1.0  0.87813  0.74929  0.25238  1.0000
  H   H6387     1.0  0.87291  0.92769  0.31971  1.0000
  C   C5342     1.0  0.79227  0.77853  0.43293  1.0000
  N   N351      1.0  0.87061  0.91819  0.30511  1.0000
  H   H6388     1.0  0.83877  0.75663  0.24202  1.0000
  H   H6389     1.0  0.71309  0.85192  0.27413  1.0000
  C   C5343     1.0  0.82650  0.79114  0.32721  1.0000
  H   H6390     1.0  0.73052  0.85731  0.25258  1.0000
  H   H6391     1.0  0.96608  0.86820  0.37156  1.0000
  H   H6392     1.0  0.81308  0.87524  0.23741  1.0000
  H   H6393     1.0  0.91054  0.88411  0.30990  1.0000
  C   C5344     1.0  0.67817  0.75278  0.34372  1.0000
  H   H6394     1.0  0.98157  0.87364  0.34839  1.0000
  H   H6395     1.0  0.71260  0.87437  0.26258  1.0000
  H   H6396     1.0  0.87165  0.89956  0.43332  1.0000
  C   C5345     1.0  0.76772  0.78003  0.42496  1.0000
  C   C5346     1.0  0.75470  0.74390  0.37459  1.0000
  H   H6397     1.0  0.86477  0.81982  0.40353  1.0000
  C   C5347     1.0  0.86471  0.92645  0.31561  1.0000
  H   H6398     1.0  0.96601  0.86236  0.40204  1.0000
  H   H6399     1.0  0.89755  0.86862  0.32768  1.0000
  C   C5348     1.0  0.89918  0.75294  0.29451  1.0000
  C   C5349     1.0  0.73739  0.85743  0.25897  1.0000
  C   C5350     1.0  0.83428  0.76770  0.32521  1.0000
  C   C5351     1.0  0.66757  0.76439  0.34444  1.0000
  C   C5352     1.0  0.75753  0.79700  0.43830  1.0000
  H   H6400     1.0  0.87946  0.88377  0.45339  1.0000
  H   H6401     1.0  0.88740  0.80431  0.36041  1.0000
  C   C5353     1.0  0.87800  0.88279  0.32756  1.0000
  C   C5354     1.0  0.78235  0.79104  0.43161  1.0000
  H   H6402     1.0  0.74432  0.86432  0.25277  1.0000
  H   H6403     1.0  0.71494  0.85481  0.28960  1.0000
  H   H6404     1.0  0.82586  0.80893  0.24569  1.0000
  H   H6405     1.0  0.87540  0.77719  0.38128  1.0000
  H   H6406     1.0  0.86813  0.77582  0.36825  1.0000
  C   C5355     1.0  0.67546  0.74091  0.34239  1.0000
  H   H6407     1.0  0.88242  0.78350  0.36365  1.0000
  H   H6408     1.0  0.84550  0.78696  0.37729  1.0000
  H   H6409     1.0  0.87019  0.80410  0.35085  1.0000
  C   C5356     1.0  0.89302  0.76535  0.24506  1.0000
  H   H6410     1.0  0.85128  0.91249  0.30836  1.0000
  C   C5357     1.0  0.65155  0.75232  0.34266  1.0000
  C   C5358     1.0  0.80433  0.77737  0.43697  1.0000
  H   H6411     1.0  0.85902  0.93681  0.31152  1.0000
  H   H6412     1.0  0.83873  0.87847  0.47185  1.0000
  H   H6413     1.0  0.87420  0.76640  0.27712  1.0000
  H   H6414     1.0  0.85388  0.81335  0.35883  1.0000
  C   C5359     1.0  0.74940  0.75636  0.39255  1.0000
  H   H6415     1.0  0.64613  0.77308  0.34491  1.0000
  C   C5360     1.0  0.85470  0.74922  0.32183  1.0000
  C   C5361     1.0  0.85933  0.88048  0.46383  1.0000
  H   H6416     1.0  0.77901  0.89138  0.35108  1.0000
  H   H6417     1.0  0.73889  0.91498  0.26070  1.0000
  C   C5362     1.0  0.74543  0.90006  0.24816  1.0000
  C   C5363     1.0  0.75571  0.88908  0.24428  1.0000
  C   C5364     1.0  0.74583  0.74797  0.38624  1.0000
  C   C5365     1.0  0.95316  0.84469  0.39812  1.0000
  H   H6418     1.0  0.95174  0.87153  0.38528  1.0000
  H   H6419     1.0  0.76404  0.84114  0.29591  1.0000
  C   C5366     1.0  0.86359  0.87121  0.28603  1.0000
  C   C5367     1.0  0.87443  0.87802  0.27908  1.0000
  C   C5368     1.0  0.65817  0.77846  0.29700  1.0000
  S   S1433     1.0  0.69478  0.75368  0.34387  1.0000
  H   H6420     1.0  0.80942  0.88912  0.24532  1.0000
  C   C5369     1.0  0.84332  0.78145  0.23122  1.0000
  N   N352      1.0  0.96421  0.85103  0.38845  1.0000
  C   C5370     1.0  0.95809  0.86359  0.37956  1.0000
  H   H6421     1.0  0.82808  0.90140  0.42986  1.0000
  H   H6422     1.0  0.84782  0.90510  0.43207  1.0000
  H   H6423     1.0  0.77808  0.80079  0.40673  1.0000
  H   H6424     1.0  0.65741  0.74663  0.26338  1.0000
  C   C5371     1.0  0.67734  0.83291  0.24530  1.0000
  N   N353      1.0  0.86666  0.85662  0.29265  1.0000
  H   H6425     1.0  0.87164  0.86088  0.30942  1.0000
  C   C5372     1.0  0.63538  0.78282  0.31134  1.0000
  C   C5373     1.0  0.66579  0.77067  0.30691  1.0000
  S   S1434     1.0  0.98310  0.84697  0.34331  1.0000
  C   C5374     1.0  0.72071  0.85212  0.27969  1.0000
  H   H6426     1.0  0.81169  0.88378  0.45123  1.0000
  H   H6427     1.0  0.85741  0.92176  0.32433  1.0000
  H   H6428     1.0  0.88503  0.87269  0.27847  1.0000
  H   H6429     1.0  0.79106  0.76952  0.43073  1.0000
  H   H6430     1.0  0.79608  0.88085  0.24688  1.0000
  N   N354      1.0  0.91239  0.74511  0.28783  1.0000
  H   H6431     1.0  0.82013  0.90954  0.46442  1.0000
  H   H6432     1.0  0.89422  0.76090  0.28684  1.0000
  Fe  Fe719     1.0  0.63821  0.80062  0.24091  1.0000
  H   H6433     1.0  0.88743  0.92844  0.29688  1.0000
  C   C5375     1.0  0.86953  0.81657  0.39398  1.0000
  S   S1435     1.0  0.87211  0.73604  0.25011  1.0000
  H   H6434     1.0  0.88636  0.85558  0.29658  1.0000
  N   N355      1.0  0.64369  0.77781  0.29897  1.0000
  H   H6435     1.0  0.71377  0.76107  0.35919  1.0000
  C   C5376     1.0  0.64279  0.76353  0.30073  1.0000
  C   C5377     1.0  0.86323  0.80901  0.38949  1.0000
  H   H6436     1.0  0.85365  0.80691  0.39595  1.0000
  H   H6437     1.0  0.72585  0.88284  0.26084  1.0000
  Fe  Fe720     1.0  0.71692  0.86390  0.23150  1.0000
  S   S1436     1.0  0.65333  0.84412  0.23625  1.0000
  H   H6438     1.0  0.66124  0.76410  0.31590  1.0000
  H   H6439     1.0  0.74385  0.84699  0.26086  1.0000
  S   S1437     1.0  0.71580  0.88492  0.23358  1.0000
  C   C5378     1.0  0.88828  0.81523  0.37435  1.0000
  H   H6440     1.0  0.63214  0.76279  0.30148  1.0000
  H   H6441     1.0  0.64953  0.75909  0.29200  1.0000
  C   C5379     1.0  0.85778  0.78864  0.24161  1.0000
  H   H6442     1.0  0.76755  0.77171  0.43420  1.0000
  H   H6443     1.0  0.77858  0.81215  0.43328  1.0000
  H   H6444     1.0  0.89807  0.81762  0.36852  1.0000
  H   H6445     1.0  0.95126  0.86143  0.37437  1.0000
  C   C5380     1.0  0.85425  0.85142  0.30070  1.0000
  H   H6446     1.0  0.84731  0.85206  0.29412  1.0000
  C   C5381     1.0  0.63737  0.78609  0.28742  1.0000
  H   H6447     1.0  0.63686  0.79712  0.28597  1.0000
  H   H6448     1.0  0.75798  0.78160  0.42171  1.0000
  H   H6449     1.0  0.86317  0.90991  0.29270  1.0000
  H   H6450     1.0  0.83736  0.79168  0.32569  1.0000
  N   N356      1.0  0.82599  0.89509  0.45160  1.0000
  N   N357      1.0  0.76939  0.79268  0.42748  1.0000
  C   C5382     1.0  0.86936  0.80423  0.37724  1.0000
  C   C5383     1.0  0.88207  0.80763  0.36978  1.0000
  C   C5384     1.0  0.86056  0.80303  0.35863  1.0000
  C   C5385     1.0  0.84623  0.76139  0.31667  1.0000
  C   C5386     1.0  0.86430  0.89514  0.44175  1.0000
  H   H6451     1.0  0.88425  0.92030  0.28527  1.0000
  H   H6452     1.0  0.98098  0.85901  0.38903  1.0000
  H   H6453     1.0  0.75789  0.78957  0.44816  1.0000
  H   H6454     1.0  0.89906  0.90639  0.29957  1.0000
  C   C5387     1.0  0.85926  0.91671  0.30006  1.0000
  H   H6455     1.0  0.84840  0.85714  0.30879  1.0000
  H   H6456     1.0  0.84832  0.80569  0.25117  1.0000
  N   N358      1.0  0.86314  0.79594  0.37230  1.0000
  C   C5388     1.0  0.87270  0.78259  0.37133  1.0000
  H   H6457     1.0  0.74759  0.79786  0.43574  1.0000
  C   C5389     1.0  0.89265  0.90012  0.30712  1.0000
  H   H6458     1.0  0.86016  0.89862  0.32568  1.0000
  H   H6459     1.0  0.83747  0.74403  0.35482  1.0000
  C   C5390     1.0  0.82241  0.90512  0.43932  1.0000
  C   C5391     1.0  0.84064  0.89241  0.45198  1.0000
  H   H6460     1.0  0.77603  0.77642  0.41657  1.0000
  C   C5392     1.0  0.87815  0.76337  0.26748  1.0000
  H   H6461     1.0  0.91740  0.76316  0.27353  1.0000
  H   H6462     1.0  0.84938  0.76572  0.30601  1.0000
  H   H6463     1.0  0.87235  0.87610  0.33558  1.0000
  C   C5393     1.0  0.85048  0.89824  0.44117  1.0000
  C   C5394     1.0  0.62505  0.75287  0.28274  1.0000
  C   C5395     1.0  0.87321  0.75337  0.26488  1.0000
  H   H6464     1.0  0.82911  0.87786  0.44297  1.0000
  C   C5396     1.0  0.69301  0.84641  0.24511  1.0000
  H   H6465     1.0  0.81801  0.89273  0.47333  1.0000
  H   H6466     1.0  0.73698  0.90424  0.24307  1.0000
  H   H6467     1.0  0.86148  0.74497  0.37196  1.0000
  S   S1438     1.0  0.70852  0.84748  0.24786  1.0000
  H   H6468     1.0  0.80074  0.91122  0.24285  1.0000
  H   H6469     1.0  0.86763  0.78729  0.24401  1.0000
  S   S1439     1.0  0.61758  0.74009  0.32023  1.0000
  C   C5397     1.0  0.79153  0.91341  0.23911  1.0000
  C   C5398     1.0  0.66853  0.84472  0.23997  1.0000
  H   H6470     1.0  0.81133  0.90699  0.43938  1.0000
  H   H6471     1.0  0.92320  0.75954  0.28884  1.0000
  C   C5399     1.0  0.78101  0.92421  0.24297  1.0000
  H   H6472     1.0  0.90081  0.76988  0.23738  1.0000
  C   C5400     1.0  0.83427  0.80080  0.24256  1.0000
  C   C5401     1.0  0.97227  0.85464  0.39603  1.0000
  C   C5402     1.0  0.68424  0.85816  0.23968  1.0000
  C   C5403     1.0  0.79009  0.90547  0.23083  1.0000
  C   C5404     1.0  0.92170  0.75469  0.28133  1.0000
  C   C5405     1.0  0.67191  0.85734  0.23736  1.0000
  H   H6473     1.0  0.80616  0.90321  0.46336  1.0000
  S   S1440     1.0  0.63132  0.82275  0.23149  1.0000
  C   C5406     1.0  0.80509  0.88441  0.23970  1.0000
  C   C5407     1.0  0.66219  0.74075  0.34168  1.0000
  H   H6474     1.0  0.98236  0.84694  0.37267  1.0000
  C   C5408     1.0  0.97399  0.84205  0.37954  1.0000
  C   C5409     1.0  0.63840  0.74576  0.27827  1.0000
  H   H6475     1.0  0.90064  0.75811  0.30178  1.0000
  H   H6476     1.0  0.93205  0.74944  0.27647  1.0000
  H   H6477     1.0  0.63566  0.73635  0.37186  1.0000
  C   C5410     1.0  0.84510  0.75787  0.23145  1.0000
  H   H6478     1.0  0.89184  0.75238  0.23273  1.0000
  C   C5411     1.0  0.83243  0.79219  0.23544  1.0000
  H   H6479     1.0  0.66505  0.86651  0.23339  1.0000
  C   C5412     1.0  0.76893  0.92768  0.23838  1.0000
  H   H6480     1.0  0.92277  0.74817  0.25943  1.0000
  H   H6481     1.0  0.82239  0.79416  0.23337  1.0000
  H   H6482     1.0  0.99157  0.86841  0.31373  1.0000
  H   H6483     1.0  0.86277  0.87344  0.47256  1.0000
  C   C5413     1.0  0.90999  0.73853  0.27816  1.0000
  H   H6484     1.0  0.82004  0.77341  0.23116  1.0000
  H   H6485     1.0  0.91845  0.73668  0.24450  1.0000
  H   H6486     1.0  0.86527  0.84395  0.48021  1.0000
  C   C5414     1.0  0.87256  0.91452  0.56730  1.0000
  H   H6487     1.0  0.77723  0.81801  0.66185  1.0000
  H   H6488     1.0  0.97795  0.86484  0.65465  1.0000
  Fe  Fe721     1.0  0.85447  0.78596  0.68654  1.0000
  S   S1441     1.0  0.85733  0.79401  0.66419  1.0000
  S   S1442     1.0  0.84561  0.80205  0.69885  1.0000
  Fe  Fe722     1.0  0.85010  0.77610  0.66372  1.0000
  S   S1443     1.0  0.83795  0.78161  0.64768  1.0000
  Fe  Fe723     1.0  0.87815  0.78043  0.66255  1.0000
  S   S1444     1.0  0.89450  0.78888  0.64586  1.0000
  S   S1445     1.0  0.84510  0.76914  0.68642  1.0000
  S   S1446     1.0  0.87612  0.77377  0.68513  1.0000
  Fe  Fe724     1.0  0.77941  0.84328  0.68789  1.0000
  S   S1447     1.0  0.75913  0.85362  0.68258  1.0000
  S   S1448     1.0  0.78243  0.82206  0.70040  1.0000
  Fe  Fe725     1.0  0.79323  0.86662  0.67077  1.0000
  S   S1449     1.0  0.77380  0.87916  0.66453  1.0000
  S   S1450     1.0  0.81418  0.87010  0.65915  1.0000
  Fe  Fe726     1.0  0.76339  0.87196  0.68634  1.0000
  S   S1451     1.0  0.74833  0.88518  0.70017  1.0000
  Fe  Fe727     1.0  0.77140  0.85970  0.66148  1.0000
  S   S1452     1.0  0.76959  0.85702  0.64164  1.0000
  S   S1453     1.0  0.78320  0.86111  0.69291  1.0000
  S   S1454     1.0  0.79125  0.84760  0.66656  1.0000
  Fe  Fe728     1.0  0.75830  0.76808  0.62066  1.0000
  S   S1455     1.0  0.78124  0.76201  0.61334  1.0000
  S   S1456     1.0  0.74055  0.76146  0.61746  1.0000
  Fe  Fe729     1.0  0.76067  0.78951  0.63426  1.0000
  S   S1457     1.0  0.78351  0.78532  0.62795  1.0000
  S   S1458     1.0  0.74872  0.80427  0.64765  1.0000
  Fe  Fe730     1.0  0.78054  0.78453  0.60788  1.0000
  S   S1459     1.0  0.79193  0.79465  0.58752  1.0000
  Fe  Fe731     1.0  0.78227  0.76340  0.63401  1.0000
  H   H6489     1.0  0.88384  0.98421  0.58439  1.0000
  S   S1460     1.0  0.75759  0.79055  0.61370  1.0000
  S   S1461     1.0  0.75946  0.76764  0.64184  1.0000
  Fe  Fe732     1.0  0.83456  0.85060  0.57398  1.0000
  S   S1462     1.0  0.85431  0.83712  0.56558  1.0000
  S   S1463     1.0  0.81581  0.84381  0.58845  1.0000
  Fe  Fe733     1.0  0.84649  0.87583  0.56363  1.0000
  S   S1464     1.0  0.86707  0.86437  0.55419  1.0000
  S   S1465     1.0  0.84271  0.89856  0.56123  1.0000
  Fe  Fe734     1.0  0.85526  0.85392  0.54671  1.0000
  S   S1466     1.0  0.86495  0.84907  0.52559  1.0000
  Fe  Fe735     1.0  0.86445  0.84869  0.57355  1.0000
  S   S1467     1.0  0.88041  0.83760  0.58605  1.0000
  S   S1468     1.0  0.83471  0.86675  0.55469  1.0000
  S   S1469     1.0  0.84466  0.86085  0.58345  1.0000
  Fe  Fe736     1.0  0.86547  0.94049  0.61923  1.0000
  S   S1470     1.0  0.84990  0.95644  0.60930  1.0000
  S   S1471     1.0  0.88729  0.93827  0.60756  1.0000
  Fe  Fe737     1.0  0.84434  0.93098  0.64364  1.0000
  S   S1472     1.0  0.82702  0.94655  0.63581  1.0000
  S   S1473     1.0  0.83983  0.91619  0.66359  1.0000
  Fe  Fe738     1.0  0.83768  0.94028  0.61593  1.0000
  S   S1474     1.0  0.82517  0.93743  0.60289  1.0000
  Fe  Fe739     1.0  0.84101  0.96118  0.63007  1.0000
  S   S1475     1.0  0.85412  0.92385  0.62412  1.0000
  S   S1476     1.0  0.85746  0.94607  0.63963  1.0000
  Fe  Fe740     1.0  0.92561  0.84787  0.64004  1.0000
  S   S1477     1.0  0.94052  0.84203  0.62129  1.0000
  S   S1478     1.0  0.91122  0.83731  0.65725  1.0000
  Fe  Fe741     1.0  0.93119  0.87598  0.63311  1.0000
  S   S1479     1.0  0.94606  0.87320  0.61345  1.0000
  S   S1480     1.0  0.92478  0.89365  0.64318  1.0000
  Fe  Fe742     1.0  0.93094  0.86286  0.61063  1.0000
  S   S1481     1.0  0.92272  0.86831  0.59144  1.0000
  Fe  Fe743     1.0  0.95443  0.85279  0.62567  1.0000
  S   S1482     1.0  0.91536  0.86791  0.62914  1.0000
  S   S1483     1.0  0.94029  0.85637  0.64543  1.0000
  H   H6490     1.0  0.75749  0.79341  0.58328  1.0000
  C   C5415     1.0  0.89812  0.92655  0.61752  1.0000
  C   C5416     1.0  0.89418  0.92422  0.63170  1.0000
  C   C5417     1.0  0.90272  0.91450  0.63961  1.0000
  C   C5418     1.0  0.91491  0.90675  0.63333  1.0000
  C   C5419     1.0  0.91881  0.90898  0.61916  1.0000
  C   C5420     1.0  0.91059  0.91914  0.61125  1.0000
  H   H6491     1.0  0.88465  0.92998  0.63660  1.0000
  H   H6492     1.0  0.89971  0.91276  0.65058  1.0000
  H   H6493     1.0  0.92827  0.90299  0.61429  1.0000
  H   H6494     1.0  0.91376  0.92101  0.60029  1.0000
  C   C5421     1.0  0.85676  0.84967  0.51255  1.0000
  C   C5422     1.0  0.84248  0.85320  0.51420  1.0000
  C   C5423     1.0  0.83647  0.85336  0.50365  1.0000
  C   C5424     1.0  0.89502  0.87563  0.66244  1.0000
  H   H6495     1.0  0.83607  0.85573  0.52364  1.0000
  H   H6496     1.0  0.82541  0.85602  0.50510  1.0000
  C   C5425     1.0  0.89204  0.84626  0.58757  1.0000
  C   C5426     1.0  0.89431  0.85836  0.57846  1.0000
  C   C5427     1.0  0.90410  0.86469  0.57949  1.0000
  C   C5428     1.0  0.91118  0.85944  0.59005  1.0000
  C   C5429     1.0  0.90885  0.84739  0.59923  1.0000
  C   C5430     1.0  0.89951  0.84068  0.59781  1.0000
  H   H6497     1.0  0.88878  0.86264  0.57040  1.0000
  H   H6498     1.0  0.90616  0.87374  0.57210  1.0000
  H   H6499     1.0  0.91439  0.84312  0.60730  1.0000
  H   H6500     1.0  0.89797  0.83121  0.60479  1.0000
  C   C5431     1.0  0.83725  0.90777  0.57429  1.0000
  C   C5432     1.0  0.84350  0.90436  0.58540  1.0000
  C   C5433     1.0  0.84027  0.91347  0.59419  1.0000
  C   C5434     1.0  0.83047  0.92574  0.59209  1.0000
  C   C5435     1.0  0.82393  0.92872  0.58135  1.0000
  C   C5436     1.0  0.82749  0.91997  0.57238  1.0000
  H   H6501     1.0  0.85122  0.89506  0.58681  1.0000
  H   H6502     1.0  0.84531  0.91104  0.60254  1.0000
  H   H6503     1.0  0.81631  0.93809  0.57968  1.0000
  H   H6504     1.0  0.82277  0.92279  0.56375  1.0000
  C   C5437     1.0  0.79894  0.80809  0.58773  1.0000
  C   C5438     1.0  0.80828  0.81338  0.57627  1.0000
  C   C5439     1.0  0.81383  0.82416  0.57636  1.0000
  C   C5440     1.0  0.80988  0.82982  0.58786  1.0000
  C   C5441     1.0  0.80038  0.82467  0.59916  1.0000
  C   C5442     1.0  0.79508  0.81377  0.59917  1.0000
  H   H6505     1.0  0.81128  0.80908  0.56732  1.0000
  H   H6506     1.0  0.82102  0.82816  0.56750  1.0000
  H   H6507     1.0  0.79720  0.82900  0.60806  1.0000
  H   H6508     1.0  0.78776  0.80998  0.60796  1.0000
  C   C5443     1.0  0.82116  0.88268  0.66107  1.0000
  C   C5444     1.0  0.81509  0.88990  0.67142  1.0000
  C   C5445     1.0  0.82095  0.90011  0.67229  1.0000
  C   C5446     1.0  0.83249  0.90347  0.66248  1.0000
  C   C5447     1.0  0.83848  0.89623  0.65214  1.0000
  C   C5448     1.0  0.83309  0.88558  0.65171  1.0000
  H   H6509     1.0  0.80595  0.88761  0.67877  1.0000
  H   H6510     1.0  0.81635  0.90563  0.68038  1.0000
  H   H6511     1.0  0.84733  0.89874  0.64451  1.0000
  H   H6512     1.0  0.83781  0.88002  0.64367  1.0000
  C   C5449     1.0  0.76463  0.84174  0.64397  1.0000
  C   C5450     1.0  0.77165  0.83279  0.63526  1.0000
  C   C5451     1.0  0.76718  0.82094  0.63661  1.0000
  C   C5452     1.0  0.75553  0.81817  0.64652  1.0000
  C   C5453     1.0  0.74879  0.82694  0.65546  1.0000
  C   C5454     1.0  0.75339  0.83864  0.65427  1.0000
  H   H6513     1.0  0.78044  0.83509  0.62740  1.0000
  H   H6514     1.0  0.77241  0.81426  0.62965  1.0000
  H   H6515     1.0  0.73980  0.82482  0.66317  1.0000
  H   H6516     1.0  0.74794  0.84552  0.66103  1.0000
  C   C5455     1.0  0.73304  0.87984  0.70926  1.0000
  H   H6517     1.0  0.97489  0.87374  0.62025  1.0000
  C   C5456     1.0  0.71647  0.86629  0.71254  1.0000
  C   C5457     1.0  0.72818  0.87110  0.70475  1.0000
  H   H6518     1.0  0.77626  0.77436  0.58573  1.0000
  H   H6519     1.0  0.71272  0.85962  0.70891  1.0000
  H   H6520     1.0  0.73331  0.86822  0.69517  1.0000
  C   C5458     1.0  0.89929  0.80221  0.64910  1.0000
  C   C5459     1.0  0.89548  0.80483  0.66216  1.0000
  C   C5460     1.0  0.89934  0.81556  0.66460  1.0000
  C   C5461     1.0  0.90698  0.82369  0.65399  1.0000
  C   C5462     1.0  0.91070  0.82116  0.64089  1.0000
  C   C5463     1.0  0.90687  0.81039  0.63846  1.0000
  H   H6521     1.0  0.88973  0.79846  0.67043  1.0000
  H   H6522     1.0  0.89653  0.81745  0.67476  1.0000
  H   H6523     1.0  0.91654  0.82744  0.63265  1.0000
  H   H6524     1.0  0.90984  0.80836  0.62835  1.0000
  C   C5464     1.0  0.82785  0.80730  0.70045  1.0000
  C   C5465     1.0  0.81989  0.79794  0.70223  1.0000
  C   C5466     1.0  0.80575  0.80242  0.70287  1.0000
  C   C5467     1.0  0.79974  0.81632  0.70108  1.0000
  C   C5468     1.0  0.80770  0.82566  0.69934  1.0000
  C   C5469     1.0  0.82167  0.82111  0.69938  1.0000
  H   H6525     1.0  0.82460  0.78722  0.70335  1.0000
  H   H6526     1.0  0.79958  0.79517  0.70438  1.0000
  H   H6527     1.0  0.80311  0.83637  0.69807  1.0000
  H   H6528     1.0  0.82777  0.82834  0.69818  1.0000
  C   C5470     1.0  0.82759  0.77107  0.64766  1.0000
  H   H6529     1.0  0.84831  0.94372  0.56221  1.0000
  C   C5471     1.0  0.80966  0.81867  0.65133  1.0000
  C   C5472     1.0  0.80882  0.75658  0.64737  1.0000
  C   C5473     1.0  0.81356  0.76578  0.63574  1.0000
  C   C5474     1.0  0.82278  0.77310  0.63595  1.0000
  H   H6530     1.0  0.96272  0.86004  0.65533  1.0000
  C   C5475     1.0  0.91328  0.83215  0.55740  1.0000
  H   H6531     1.0  0.81002  0.76734  0.62657  1.0000
  H   H6532     1.0  0.82593  0.78062  0.62709  1.0000
  C   C5476     1.0  0.72394  0.74874  0.65314  1.0000
  C   C5477     1.0  0.86490  0.84641  0.50017  1.0000
  C   C5478     1.0  0.86258  0.92450  0.56141  1.0000
  C   C5479     1.0  0.81764  0.82544  0.63977  1.0000
  C   C5480     1.0  0.97970  0.88567  0.66417  1.0000
  H   H6533     1.0  0.88932  0.88442  0.59567  1.0000
  H   H6534     1.0  0.87662  0.90538  0.56331  1.0000
  C   C5481     1.0  0.84939  0.85171  0.63984  1.0000
  H   H6535     1.0  0.92727  0.81487  0.53164  1.0000
  C   C5482     1.0  0.85641  0.93624  0.56647  1.0000
  H   H6536     1.0  0.76079  0.78721  0.55530  1.0000
  H   H6537     1.0  0.83841  0.85421  0.64374  1.0000
  C   C5483     1.0  0.87518  0.89291  0.65830  1.0000
  H   H6538     1.0  0.89423  0.83066  0.52275  1.0000
  H   H6539     1.0  0.87207  0.89463  0.59810  1.0000
  C   C5484     1.0  0.80285  0.87172  0.62164  1.0000
  H   H6540     1.0  0.85918  0.92284  0.55324  1.0000
  H   H6541     1.0  0.85510  0.94707  0.58156  1.0000
  C   C5485     1.0  0.87681  0.91610  0.57840  1.0000
  H   H6542     1.0  0.87267  0.93031  0.59181  1.0000
  C   C5486     1.0  0.87936  0.97773  0.59404  1.0000
  C   C5487     1.0  0.91370  0.82775  0.54563  1.0000
  H   H6543     1.0  0.78843  0.91469  0.64503  1.0000
  H   H6544     1.0  0.87594  0.84365  0.49875  1.0000
  C   C5488     1.0  0.85925  0.87683  0.68027  1.0000
  C   C5489     1.0  0.85697  0.85584  0.69679  1.0000
  H   H6545     1.0  0.84747  0.86403  0.62000  1.0000
  H   H6546     1.0  0.74079  0.84564  0.72194  1.0000
  C   C5490     1.0  0.84148  0.83010  0.66316  1.0000
  C   C5491     1.0  0.81028  0.87265  0.60824  1.0000
  H   H6547     1.0  0.69231  0.74817  0.67354  1.0000
  C   C5492     1.0  0.98340  0.86878  0.62514  1.0000
  C   C5493     1.0  0.88191  0.89269  0.59050  1.0000
  H   H6548     1.0  0.89841  0.89835  0.56600  1.0000
  C   C5494     1.0  0.96600  0.88408  0.66973  1.0000
  H   H6549     1.0  0.86358  0.97584  0.61917  1.0000
  H   H6550     1.0  0.92373  0.83143  0.57271  1.0000
  H   H6551     1.0  0.88716  0.85102  0.67396  1.0000
  C   C5495     1.0  0.70960  0.87006  0.72495  1.0000
  C   C5496     1.0  0.88165  0.80018  0.60801  1.0000
  C   C5497     1.0  0.92438  0.82789  0.56369  1.0000
  C   C5498     1.0  0.88069  0.87278  0.64936  1.0000
  H   H6552     1.0  0.98932  0.88743  0.62339  1.0000
  C   C5499     1.0  0.95847  0.88738  0.64897  1.0000
  H   H6553     1.0  0.76485  0.82023  0.72841  1.0000
  H   H6554     1.0  0.84482  0.82335  0.65576  1.0000
  H   H6555     1.0  0.77110  0.75306  0.56403  1.0000
  C   C5500     1.0  0.98651  0.85461  0.62928  1.0000
  C   C5501     1.0  0.93626  0.81910  0.55846  1.0000
  H   H6556     1.0  0.85470  0.85313  0.66973  1.0000
  H   H6557     1.0  0.87113  0.83080  0.67017  1.0000
  H   H6558     1.0  0.84006  0.77831  0.60304  1.0000
  H   H6559     1.0  0.83193  0.83756  0.66112  1.0000
  H   H6560     1.0  0.90080  0.86496  0.66252  1.0000
  C   C5502     1.0  0.85449  0.85750  0.62628  1.0000
  C   C5503     1.0  0.75123  0.73837  0.60632  1.0000
  H   H6561     1.0  0.94034  0.87291  0.66400  1.0000
  Fe  Fe744     1.0  0.86707  0.75735  0.68345  1.0000
  N   N359      1.0  0.77170  0.86235  0.59386  1.0000
  C   C5504     1.0  0.76175  0.87562  0.59190  1.0000
  C   C5505     1.0  0.77997  0.86246  0.60322  1.0000
  C   C5506     1.0  0.78112  0.86120  0.58044  1.0000
  C   C5507     1.0  0.76431  0.85115  0.59982  1.0000
  C   C5508     1.0  0.76742  0.83947  0.59418  1.0000
  C   C5509     1.0  0.75390  0.85152  0.61191  1.0000
  C   C5510     1.0  0.76043  0.82895  0.60027  1.0000
  C   C5511     1.0  0.74678  0.84109  0.61775  1.0000
  C   C5512     1.0  0.75009  0.82979  0.61199  1.0000
  H   H6562     1.0  0.75462  0.87557  0.58577  1.0000
  H   H6563     1.0  0.75544  0.87822  0.60169  1.0000
  H   H6564     1.0  0.76701  0.88415  0.58662  1.0000
  H   H6565     1.0  0.77348  0.86432  0.61322  1.0000
  H   H6566     1.0  0.78605  0.87046  0.59900  1.0000
  H   H6567     1.0  0.78733  0.85256  0.60527  1.0000
  H   H6568     1.0  0.77554  0.86094  0.57293  1.0000
  H   H6569     1.0  0.78637  0.86984  0.57610  1.0000
  H   H6570     1.0  0.78951  0.85195  0.58126  1.0000
  H   H6571     1.0  0.77548  0.83798  0.58528  1.0000
  H   H6572     1.0  0.75150  0.85963  0.61728  1.0000
  H   H6573     1.0  0.76331  0.81993  0.59606  1.0000
  H   H6574     1.0  0.73915  0.84140  0.62721  1.0000
  H   H6575     1.0  0.74495  0.82145  0.61694  1.0000
  C   C5513     1.0  0.73958  0.74751  0.61159  1.0000
  S   S1484     1.0  0.97698  0.84450  0.62639  1.0000
  H   H6576     1.0  0.80839  0.82139  0.66088  1.0000
  H   H6577     1.0  0.82020  0.91144  0.61829  1.0000
  H   H6578     1.0  0.78731  0.81876  0.67279  1.0000
  H   H6579     1.0  0.81303  0.86398  0.60353  1.0000
  H   H6580     1.0  0.89928  0.90053  0.59974  1.0000
  H   H6581     1.0  0.89535  0.91808  0.59165  1.0000
  S   S1485     1.0  0.83428  0.98353  0.63131  1.0000
  C   C5514     1.0  0.89115  0.90874  0.59553  1.0000
  H   H6582     1.0  0.82198  0.83338  0.64052  1.0000
  H   H6583     1.0  0.88230  0.91037  0.60425  1.0000
  H   H6584     1.0  0.81126  0.91821  0.63300  1.0000
  H   H6585     1.0  0.81840  0.90028  0.63450  1.0000
  H   H6586     1.0  0.79585  0.89701  0.64809  1.0000
  H   H6587     1.0  0.87799  0.96174  0.61909  1.0000
  C   C5515     1.0  0.81424  0.88471  0.60093  1.0000
  H   H6588     1.0  0.89537  0.87827  0.67189  1.0000
  H   H6589     1.0  0.74606  0.78257  0.59283  1.0000
  H   H6590     1.0  0.88981  0.79898  0.61350  1.0000
  H   H6591     1.0  0.88601  0.86186  0.65020  1.0000
  H   H6592     1.0  0.94483  0.87012  0.67992  1.0000
  H   H6593     1.0  0.90429  0.83892  0.56187  1.0000
  C   C5516     1.0  0.87484  0.97289  0.61849  1.0000
  C   C5517     1.0  0.94505  0.87711  0.66978  1.0000
  H   H6594     1.0  0.86106  0.81542  0.62258  1.0000
  N   N360      1.0  0.86938  0.79567  0.61741  1.0000
  H   H6595     1.0  0.77342  0.78907  0.56301  1.0000
  C   C5518     1.0  0.80358  0.79408  0.67296  1.0000
  C   C5519     1.0  0.79943  0.88281  0.62783  1.0000
  H   H6596     1.0  0.88208  0.78094  0.63031  1.0000
  H   H6597     1.0  0.83821  0.85518  0.66665  1.0000
  C   C5520     1.0  0.87412  0.78159  0.62485  1.0000
  S   S1486     1.0  0.59469  0.73774  0.71956  1.0000
  H   H6598     1.0  0.74373  0.79304  0.57640  1.0000
  H   H6599     1.0  0.90016  0.97513  0.61471  1.0000
  C   C5521     1.0  0.96738  0.86469  0.66076  1.0000
  H   H6600     1.0  0.96116  0.89580  0.69865  1.0000
  C   C5522     1.0  0.86350  0.80446  0.62747  1.0000
  C   C5523     1.0  0.85374  0.78556  0.61004  1.0000
  H   H6601     1.0  0.85500  0.75144  0.71256  1.0000
  C   C5524     1.0  0.86856  0.85487  0.62077  1.0000
  H   H6602     1.0  0.85677  0.77556  0.61612  1.0000
  H   H6603     1.0  0.82625  0.82717  0.61829  1.0000
  H   H6604     1.0  0.90517  0.81555  0.52992  1.0000
  H   H6605     1.0  0.81006  0.74723  0.66815  1.0000
  C   C5525     1.0  0.77054  0.76764  0.58408  1.0000
  H   H6606     1.0  0.77595  0.77407  0.55701  1.0000
  C   C5526     1.0  0.75148  0.78659  0.58229  1.0000
  N   N361      1.0  0.88726  0.90524  0.58457  1.0000
  H   H6607     1.0  0.76527  0.76255  0.59420  1.0000
  C   C5527     1.0  0.83892  0.79963  0.59502  1.0000
  C   C5528     1.0  0.85900  0.79680  0.60974  1.0000
  H   H6608     1.0  0.88016  0.83413  0.64789  1.0000
  C   C5529     1.0  0.87741  0.85659  0.67878  1.0000
  C   C5530     1.0  0.82005  0.82198  0.62727  1.0000
  N   N362      1.0  0.76047  0.77540  0.57564  1.0000
  H   H6609     1.0  0.87671  0.97482  0.62765  1.0000
  H   H6610     1.0  0.85108  0.85023  0.70572  1.0000
  S   S1487     1.0  0.79592  0.74881  0.64746  1.0000
  C   C5531     1.0  0.72654  0.74585  0.61195  1.0000
  H   H6611     1.0  0.80191  0.79767  0.63614  1.0000
  H   H6612     1.0  0.80788  0.80095  0.67617  1.0000
  C   C5532     1.0  0.80343  0.80852  0.65062  1.0000
  C   C5533     1.0  0.81080  0.89587  0.60701  1.0000
  C   C5534     1.0  0.84683  0.84755  0.67042  1.0000
  H   H6613     1.0  0.73219  0.77527  0.58433  1.0000
  H   H6614     1.0  0.86558  0.77781  0.63274  1.0000
  H   H6615     1.0  0.82698  0.75990  0.66832  1.0000
  C   C5535     1.0  0.72591  0.88396  0.72146  1.0000
  H   H6616     1.0  0.85387  0.80183  0.63433  1.0000
  C   C5536     1.0  0.87257  0.84060  0.64235  1.0000
  H   H6617     1.0  0.67359  0.81917  0.72052  1.0000
  H   H6618     1.0  0.83117  0.80071  0.58951  1.0000
  N   N363      1.0  0.88065  0.87795  0.66117  1.0000
  C   C5537     1.0  0.82334  0.76145  0.65920  1.0000
  H   H6619     1.0  0.91223  0.82982  0.51893  1.0000
  H   H6620     1.0  0.87881  0.77444  0.61785  1.0000
  C   C5538     1.0  0.84398  0.78700  0.60262  1.0000
  H   H6621     1.0  0.86788  0.81797  0.66367  1.0000
  H   H6622     1.0  0.88608  0.79420  0.59992  1.0000
  H   H6623     1.0  0.87251  0.85920  0.61020  1.0000
  C   C5539     1.0  0.81383  0.75427  0.65908  1.0000
  N   N364      1.0  0.95925  0.87844  0.66253  1.0000
  H   H6624     1.0  0.93817  0.88717  0.67096  1.0000
  H   H6625     1.0  0.73397  0.74013  0.57062  1.0000
  N   N365      1.0  0.85259  0.83674  0.66251  1.0000
  H   H6626     1.0  0.94485  0.81580  0.56338  1.0000
  H   H6627     1.0  0.88608  0.87848  0.63968  1.0000
  H   H6628     1.0  0.98516  0.89800  0.68845  1.0000
  H   H6629     1.0  0.81427  0.90491  0.60098  1.0000
  N   N366      1.0  0.79494  0.80157  0.66301  1.0000
  H   H6630     1.0  0.79972  0.86233  0.62734  1.0000
  C   C5540     1.0  0.81446  0.81178  0.62633  1.0000
  C   C5541     1.0  0.85861  0.74133  0.71815  1.0000
  C   C5542     1.0  0.79335  0.91963  0.61830  1.0000
  C   C5543     1.0  0.73850  0.76748  0.57893  1.0000
  C   C5544     1.0  0.75292  0.76608  0.57406  1.0000
  H   H6631     1.0  0.87078  0.80333  0.63392  1.0000
  C   C5545     1.0  0.81302  0.90940  0.62825  1.0000
  C   C5546     1.0  0.78359  0.81174  0.66922  1.0000
  H   H6632     1.0  0.81244  0.78658  0.66856  1.0000
  H   H6633     1.0  0.78222  0.78677  0.66991  1.0000
  H   H6634     1.0  0.77668  0.80686  0.67830  1.0000
  H   H6635     1.0  0.73145  0.75507  0.64940  1.0000
  H   H6636     1.0  0.82009  0.88543  0.59050  1.0000
  H   H6637     1.0  0.94634  0.80769  0.54289  1.0000
  H   H6638     1.0  0.78101  0.90353  0.64051  1.0000
  H   H6639     1.0  0.87932  0.81108  0.60295  1.0000
  H   H6640     1.0  0.79395  0.88123  0.63831  1.0000
  C   C5547     1.0  0.92598  0.81878  0.54052  1.0000
  C   C5548     1.0  0.90353  0.82682  0.52720  1.0000
  H   H6641     1.0  0.84278  0.84334  0.68133  1.0000
  N   N367      1.0  0.90172  0.83251  0.53924  1.0000
  C   C5549     1.0  0.88949  0.82860  0.54929  1.0000
  C   C5550     1.0  0.89898  0.84753  0.53475  1.0000
  C   C5551     1.0  0.79091  0.90548  0.64071  1.0000
  H   H6642     1.0  0.80034  0.92289  0.60845  1.0000
  H   H6643     1.0  0.78183  0.79672  0.65319  1.0000
  H   H6644     1.0  0.75900  0.73712  0.56198  1.0000
  C   C5552     1.0  0.78867  0.79168  0.66045  1.0000
  C   C5553     1.0  0.93706  0.81456  0.54691  1.0000
  H   H6645     1.0  0.88044  0.83127  0.54464  1.0000
  H   H6646     1.0  0.88628  0.83382  0.55792  1.0000
  H   H6647     1.0  0.89646  0.85270  0.54335  1.0000
  H   H6648     1.0  0.89010  0.85153  0.52974  1.0000
  C   C5554     1.0  0.80322  0.89532  0.62064  1.0000
  H   H6649     1.0  0.79011  0.92851  0.62324  1.0000
  H   H6650     1.0  0.88353  0.96690  0.59320  1.0000
  H   H6651     1.0  0.78412  0.91804  0.61613  1.0000
  H   H6652     1.0  0.84159  0.87449  0.69666  1.0000
  H   H6653     1.0  0.77836  0.83660  0.72219  1.0000
  H   H6654     1.0  0.79661  0.78328  0.65641  1.0000
  N   N368      1.0  0.80007  0.90720  0.62694  1.0000
  H   H6655     1.0  0.69433  0.82563  0.71741  1.0000
  C   C5555     1.0  0.71172  0.75280  0.66217  1.0000
  H   H6656     1.0  0.87993  0.88864  0.58266  1.0000
  C   C5556     1.0  0.87757  0.84657  0.62885  1.0000
  C   C5557     1.0  0.80605  0.80531  0.63771  1.0000
  C   C5558     1.0  0.75186  0.84569  0.71998  1.0000
  C   C5559     1.0  0.99161  0.87651  0.62690  1.0000
  C   C5560     1.0  0.86025  0.93809  0.57740  1.0000
  H   H6657     1.0  0.88854  0.84457  0.62464  1.0000
  C   C5561     1.0  0.87032  0.92823  0.58331  1.0000
  C   C5562     1.0  0.95943  0.88797  0.68237  1.0000
  H   H6658     1.0  0.72951  0.89087  0.72490  1.0000
  C   C5563     1.0  0.85887  0.84658  0.48961  1.0000
  H   H6659     1.0  0.86494  0.89567  0.65582  1.0000
  H   H6660     1.0  0.94901  0.88721  0.68739  1.0000
  C   C5564     1.0  0.89998  0.90241  0.57402  1.0000
  H   H6661     1.0  0.95411  0.88306  0.64297  1.0000
  H   H6662     1.0  0.90830  0.89470  0.57842  1.0000
  H   H6663     1.0  0.79768  0.78849  0.68236  1.0000
  H   H6664     1.0  0.81662  0.80883  0.61671  1.0000
  H   H6665     1.0  0.71748  0.75292  0.61595  1.0000
  C   C5565     1.0  0.76796  0.78169  0.56215  1.0000
  H   H6666     1.0  0.90804  0.85088  0.52737  1.0000
  H   H6667     1.0  0.87004  0.87377  0.64844  1.0000
  H   H6668     1.0  0.90395  0.91180  0.56896  1.0000
  C   C5566     1.0  0.76010  0.75496  0.56773  1.0000
  C   C5567     1.0  0.75328  0.74581  0.56642  1.0000
  C   C5568     1.0  0.84459  0.85001  0.49131  1.0000
  H   H6669     1.0  0.89145  0.81747  0.55361  1.0000
  H   H6670     1.0  0.90106  0.88188  0.65373  1.0000
  H   H6671     1.0  0.88187  0.89824  0.64936  1.0000
  H   H6672     1.0  0.87389  0.83873  0.69421  1.0000
  H   H6673     1.0  0.85448  0.88737  0.67691  1.0000
  S   S1488     1.0  0.87119  0.76286  0.66064  1.0000
  C   C5569     1.0  0.96631  0.89296  0.68899  1.0000
  C   C5570     1.0  0.85363  0.80954  0.60185  1.0000
  H   H6674     1.0  0.85703  0.81858  0.60121  1.0000
  C   C5571     1.0  0.86301  0.82635  0.66924  1.0000
  H   H6675     1.0  0.83842  0.82367  0.67339  1.0000
  C   C5572     1.0  0.84364  0.81089  0.59473  1.0000
  H   H6676     1.0  0.75757  0.83959  0.71216  1.0000
  H   H6677     1.0  0.96865  0.88894  0.64273  1.0000
  H   H6678     1.0  0.83945  0.82074  0.58902  1.0000
  H   H6679     1.0  0.66322  0.79981  0.72469  1.0000
  C   C5573     1.0  0.85166  0.86949  0.69171  1.0000
  C   C5574     1.0  0.86980  0.84939  0.69032  1.0000
  C   C5575     1.0  0.85826  0.84287  0.64823  1.0000
  H   H6680     1.0  0.77177  0.85323  0.72546  1.0000
  H   H6681     1.0  0.77839  0.75962  0.57941  1.0000
  C   C5576     1.0  0.87250  0.87062  0.67354  1.0000
  H   H6682     1.0  0.87432  0.89733  0.66709  1.0000
  H   H6683     1.0  0.85844  0.82158  0.67980  1.0000
  H   H6684     1.0  0.85507  0.97387  0.64771  1.0000
  C   C5577     1.0  0.70191  0.74490  0.66666  1.0000
  H   H6685     1.0  0.90040  0.96400  0.60460  1.0000
  C   C5578     1.0  0.89732  0.97491  0.60532  1.0000
  H   H6686     1.0  0.76133  0.73946  0.60602  1.0000
  H   H6687     1.0  0.90362  0.98060  0.59634  1.0000
  C   C5579     1.0  0.85314  0.98484  0.64485  1.0000
  C   C5580     1.0  0.73178  0.75835  0.57742  1.0000
  N   N369      1.0  0.88242  0.98047  0.60591  1.0000
  C   C5581     1.0  0.98649  0.89062  0.67086  1.0000
  H   H6688     1.0  0.72085  0.75933  0.58156  1.0000
  C   C5582     1.0  0.69640  0.82574  0.72720  1.0000
  H   H6689     1.0  0.70118  0.83459  0.72520  1.0000
  H   H6690     1.0  0.75295  0.85629  0.71522  1.0000
  H   H6691     1.0  0.96831  0.85768  0.67073  1.0000
  C   C5583     1.0  0.72649  0.73673  0.64862  1.0000
  H   H6692     1.0  0.95184  0.89760  0.64987  1.0000
  H   H6693     1.0  0.86817  0.97950  0.59474  1.0000
  H   H6694     1.0  0.67163  0.83989  0.72384  1.0000
  C   C5584     1.0  0.71432  0.87892  0.72941  1.0000
  H   H6695     1.0  0.98538  0.88302  0.65458  1.0000
  H   H6696     1.0  0.70979  0.76217  0.66555  1.0000
  C   C5585     1.0  0.97982  0.89423  0.68327  1.0000
  C   C5586     1.0  0.73915  0.74752  0.57123  1.0000
  C   C5587     1.0  0.72511  0.73530  0.60695  1.0000
  C   C5588     1.0  0.77119  0.84242  0.72978  1.0000
  H   H6697     1.0  0.84612  0.73538  0.66088  1.0000
  S   S1489     1.0  0.87358  0.73542  0.69355  1.0000
  H   H6698     1.0  0.70414  0.81630  0.72994  1.0000
  C   C5589     1.0  0.67311  0.81230  0.73034  1.0000
  Fe  Fe745     1.0  0.56189  0.85064  0.87575  1.0000
  S   S1490     1.0  0.55501  0.87025  0.86161  1.0000
  S   S1491     1.0  0.55504  0.84916  0.89836  1.0000
  Fe  Fe746     1.0  0.57492  0.83561  0.85270  1.0000
  S   S1492     1.0  0.56887  0.85394  0.83693  1.0000
  S   S1493     1.0  0.58924  0.81660  0.84709  1.0000
  Fe  Fe747     1.0  0.57595  0.86501  0.84824  1.0000
  S   S1494     1.0  0.59245  0.87662  0.83664  1.0000
  Fe  Fe748     1.0  0.54854  0.85714  0.85181  1.0000
  S   S1495     1.0  0.58323  0.84639  0.86323  1.0000
  S   S1496     1.0  0.55414  0.83781  0.86681  1.0000
  Fe  Fe749     1.0  0.62254  0.84975  0.96204  1.0000
  S   S1497     1.0  0.63450  0.86309  0.94506  1.0000
  Fe  Fe750     1.0  0.60703  0.84552  0.94287  1.0000
  S   S1498     1.0  0.61787  0.85838  0.92469  1.0000
  S   S1499     1.0  0.59229  0.83414  0.94132  1.0000
  Fe  Fe751     1.0  0.63671  0.84778  0.93280  1.0000
  S   S1500     1.0  0.65634  0.84120  0.91805  1.0000
  Fe  Fe752     1.0  0.61448  0.87229  0.93868  1.0000
  S   S1501     1.0  0.60683  0.89455  0.93120  1.0000
  S   S1502     1.0  0.62615  0.83370  0.95013  1.0000
  S   S1503     1.0  0.60213  0.86018  0.95658  1.0000
  Fe  Fe753     1.0  0.61316  0.93644  0.84924  1.0000
  S   S1504     1.0  0.63354  0.92180  0.84698  1.0000
  S   S1505     1.0  0.59332  0.92959  0.85399  1.0000
  Fe  Fe754     1.0  0.62560  0.96019  0.84861  1.0000
  S   S1506     1.0  0.64693  0.94717  0.84634  1.0000
  Fe  Fe755     1.0  0.64109  0.93911  0.83153  1.0000
  S   S1507     1.0  0.65688  0.93551  0.81252  1.0000
  Fe  Fe756     1.0  0.63733  0.93111  0.86194  1.0000
  S   S1508     1.0  0.64779  0.91695  0.87812  1.0000
  S   S1509     1.0  0.62033  0.95329  0.83248  1.0000
  S   S1510     1.0  0.61637  0.94464  0.86541  1.0000
  H   H6699     1.0  0.60523  0.79495  0.83422  1.0000
  Fe  Fe757     1.0  0.60153  0.78363  0.79062  1.0000
  S   S1511     1.0  0.60620  0.78623  0.76789  1.0000
  S   S1512     1.0  0.58045  0.79197  0.80230  1.0000
  Fe  Fe758     1.0  0.63122  0.77083  0.79250  1.0000
  S   S1513     1.0  0.63821  0.77224  0.77003  1.0000
  S   S1514     1.0  0.64812  0.76261  0.80401  1.0000
  Fe  Fe759     1.0  0.62463  0.79307  0.76846  1.0000
  S   S1515     1.0  0.63190  0.81179  0.75562  1.0000
  Fe  Fe760     1.0  0.61932  0.76501  0.77162  1.0000
  S   S1516     1.0  0.62155  0.74647  0.76318  1.0000
  S   S1517     1.0  0.61882  0.79217  0.79081  1.0000
  S   S1518     1.0  0.61333  0.76195  0.79448  1.0000
  Fe  Fe761     1.0  0.68185  0.80188  0.85867  1.0000
  S   S1519     1.0  0.66126  0.80002  0.87211  1.0000
  S   S1520     1.0  0.68688  0.82238  0.85399  1.0000
  Fe  Fe762     1.0  0.69142  0.77135  0.86079  1.0000
  S   S1521     1.0  0.67184  0.76696  0.87499  1.0000
  S   S1522     1.0  0.70776  0.75522  0.85141  1.0000
  Fe  Fe763     1.0  0.66180  0.78458  0.86084  1.0000
  S   S1523     1.0  0.64216  0.78331  0.85688  1.0000
  Fe  Fe764     1.0  0.67305  0.78275  0.88507  1.0000
  S   S1524     1.0  0.66589  0.78237  0.90741  1.0000
  S   S1525     1.0  0.68124  0.78824  0.84582  1.0000
  S   S1526     1.0  0.69379  0.78534  0.87236  1.0000
  Fe  Fe765     1.0  0.66421  0.87983  0.77703  1.0000
  S   S1527     1.0  0.68633  0.88074  0.76761  1.0000
  S   S1528     1.0  0.64561  0.89604  0.78293  1.0000
  Fe  Fe766     1.0  0.66984  0.84918  0.78085  1.0000
  S   S1529     1.0  0.69233  0.84718  0.77206  1.0000
  S   S1530     1.0  0.66094  0.83073  0.79025  1.0000
  Fe  Fe767     1.0  0.69074  0.86229  0.78410  1.0000
  S   S1531     1.0  0.70570  0.85911  0.79692  1.0000
  Fe  Fe768     1.0  0.68607  0.86552  0.75621  1.0000
  C   C5590     1.0  0.50792  0.86308  0.90295  1.0000
  S   S1532     1.0  0.66879  0.86268  0.79441  1.0000
  S   S1533     1.0  0.66347  0.86626  0.76415  1.0000
  N   N370      1.0  0.75682  0.74913  0.84905  1.0000
  H   H6700     1.0  0.63606  0.79052  0.89924  1.0000
  C   C5591     1.0  0.77189  0.74382  0.84719  1.0000
  C   C5592     1.0  0.69386  0.83038  0.83745  1.0000
  C   C5593     1.0  0.68953  0.82984  0.82618  1.0000
  C   C5594     1.0  0.69344  0.83838  0.81352  1.0000
  C   C5595     1.0  0.70197  0.84716  0.81209  1.0000
  C   C5596     1.0  0.70686  0.84710  0.82321  1.0000
  C   C5597     1.0  0.70266  0.83888  0.83588  1.0000
  H   H6701     1.0  0.68280  0.82323  0.82731  1.0000
  H   H6702     1.0  0.68977  0.83824  0.80490  1.0000
  H   H6703     1.0  0.71346  0.85384  0.82216  1.0000
  H   H6704     1.0  0.70596  0.83939  0.84460  1.0000
  C   C5598     1.0  0.66636  0.79192  0.74497  1.0000
  C   C5599     1.0  0.62644  0.95111  0.90723  1.0000
  C   C5600     1.0  0.60316  0.74052  0.73070  1.0000
  C   C5601     1.0  0.64611  0.76948  0.81809  1.0000
  C   C5602     1.0  0.65777  0.77079  0.82132  1.0000
  C   C5603     1.0  0.65660  0.77526  0.83310  1.0000
  C   C5604     1.0  0.64378  0.77815  0.84185  1.0000
  C   C5605     1.0  0.63210  0.77692  0.83859  1.0000
  C   C5606     1.0  0.63322  0.77275  0.82663  1.0000
  H   H6705     1.0  0.66773  0.76835  0.81466  1.0000
  H   H6706     1.0  0.66564  0.77627  0.83547  1.0000
  H   H6707     1.0  0.62218  0.77903  0.84541  1.0000
  H   H6708     1.0  0.62421  0.77162  0.82424  1.0000
  C   C5607     1.0  0.64077  0.81687  0.76464  1.0000
  C   C5608     1.0  0.64307  0.83005  0.76082  1.0000
  C   C5609     1.0  0.64958  0.83433  0.76844  1.0000
  C   C5610     1.0  0.65350  0.82551  0.78006  1.0000
  C   C5611     1.0  0.65134  0.81231  0.78378  1.0000
  C   C5612     1.0  0.64521  0.80794  0.77595  1.0000
  H   H6709     1.0  0.63962  0.83699  0.75209  1.0000
  H   H6710     1.0  0.65122  0.84453  0.76550  1.0000
  H   H6711     1.0  0.65457  0.80534  0.79261  1.0000
  H   H6712     1.0  0.64423  0.79752  0.77855  1.0000
  H   H6713     1.0  0.56991  0.83355  0.78120  1.0000
  H   H6714     1.0  0.51675  0.84553  0.82330  1.0000
  H   H6715     1.0  0.84566  0.74508  0.73737  1.0000
  H   H6716     1.0  0.64901  0.96374  0.89943  1.0000
  S   S1534     1.0  0.69509  0.86354  0.73441  1.0000
  H   H6717     1.0  0.62448  0.84941  0.77732  1.0000
  H   H6718     1.0  0.50128  0.84392  0.88024  1.0000
  H   H6719     1.0  0.70899  0.88198  0.73891  1.0000
  C   C5613     1.0  0.53091  0.81978  0.82724  1.0000
  H   H6720     1.0  0.61492  0.82962  0.78100  1.0000
  C   C5614     1.0  0.49629  0.84032  0.84916  1.0000
  N   N371      1.0  0.51025  0.86293  0.88839  1.0000
  C   C5615     1.0  0.65341  0.92509  0.80392  1.0000
  C   C5616     1.0  0.64033  0.92245  0.80676  1.0000
  C   C5617     1.0  0.63789  0.91384  0.79996  1.0000
  C   C5618     1.0  0.64861  0.90751  0.79064  1.0000
  C   C5619     1.0  0.66169  0.91008  0.78791  1.0000
  C   C5620     1.0  0.66401  0.91906  0.79433  1.0000
  H   H6721     1.0  0.63206  0.92712  0.81409  1.0000
  H   H6722     1.0  0.62774  0.91188  0.80211  1.0000
  H   H6723     1.0  0.66998  0.90532  0.78066  1.0000
  H   H6724     1.0  0.67411  0.92115  0.79203  1.0000
  C   C5621     1.0  0.61835  0.90084  0.91668  1.0000
  C   C5622     1.0  0.61394  0.91328  0.90825  1.0000
  C   C5623     1.0  0.62291  0.91819  0.89633  1.0000
  C   C5624     1.0  0.63640  0.91084  0.89293  1.0000
  C   C5625     1.0  0.64085  0.89845  0.90144  1.0000
  C   C5626     1.0  0.63177  0.89335  0.91320  1.0000
  H   H6725     1.0  0.60352  0.91902  0.91087  1.0000
  H   H6726     1.0  0.61937  0.92772  0.88991  1.0000
  H   H6727     1.0  0.65129  0.89273  0.89891  1.0000
  H   H6728     1.0  0.63522  0.88370  0.91963  1.0000
  C   C5627     1.0  0.65867  0.82491  0.91509  1.0000
  C   C5628     1.0  0.65277  0.81492  0.92499  1.0000
  C   C5629     1.0  0.65524  0.80180  0.92270  1.0000
  C   C5630     1.0  0.66335  0.79868  0.91036  1.0000
  C   C5631     1.0  0.66910  0.80872  0.90037  1.0000
  C   C5632     1.0  0.66688  0.82176  0.90279  1.0000
  H   H6729     1.0  0.64677  0.81711  0.93464  1.0000
  H   H6730     1.0  0.65088  0.79405  0.93052  1.0000
  H   H6731     1.0  0.67548  0.80639  0.89084  1.0000
  H   H6732     1.0  0.67156  0.82939  0.89511  1.0000
  C   C5633     1.0  0.50870  0.83371  0.85325  1.0000
  C   C5634     1.0  0.51837  0.84109  0.85259  1.0000
  H   H6733     1.0  0.51093  0.82277  0.85672  1.0000
  H   H6734     1.0  0.52799  0.83583  0.85549  1.0000
  C   C5635     1.0  0.59245  0.89150  0.84129  1.0000
  C   C5636     1.0  0.60447  0.89654  0.83701  1.0000
  C   C5637     1.0  0.60485  0.90826  0.84078  1.0000
  C   C5638     1.0  0.59315  0.91510  0.84870  1.0000
  C   C5639     1.0  0.58109  0.91017  0.85278  1.0000
  C   C5640     1.0  0.58075  0.89835  0.84917  1.0000
  H   H6735     1.0  0.61350  0.89139  0.83076  1.0000
  H   H6736     1.0  0.61411  0.91211  0.83738  1.0000
  H   H6737     1.0  0.57198  0.91549  0.85883  1.0000
  H   H6738     1.0  0.57141  0.89461  0.85239  1.0000
  C   C5641     1.0  0.56616  0.84545  0.90953  1.0000
  C   C5642     1.0  0.57895  0.84908  0.90570  1.0000
  C   C5643     1.0  0.58697  0.84630  0.91545  1.0000
  C   C5644     1.0  0.58233  0.83952  0.92888  1.0000
  C   C5645     1.0  0.56974  0.83574  0.93244  1.0000
  C   C5646     1.0  0.56162  0.83891  0.92294  1.0000
  H   H6739     1.0  0.58254  0.85410  0.89534  1.0000
  H   H6740     1.0  0.59681  0.84904  0.91254  1.0000
  H   H6741     1.0  0.56614  0.83041  0.94270  1.0000
  H   H6742     1.0  0.55179  0.83609  0.92601  1.0000
  C   C5647     1.0  0.58623  0.80992  0.83485  1.0000
  C   C5648     1.0  0.57435  0.81515  0.82968  1.0000
  C   C5649     1.0  0.57242  0.80943  0.81989  1.0000
  C   C5650     1.0  0.58239  0.79864  0.81515  1.0000
  C   C5651     1.0  0.59416  0.79341  0.82045  1.0000
  C   C5652     1.0  0.59608  0.79905  0.83022  1.0000
  H   H6743     1.0  0.56667  0.82353  0.83324  1.0000
  H   H6744     1.0  0.56332  0.81344  0.81586  1.0000
  H   H6745     1.0  0.60172  0.78484  0.81717  1.0000
  C   C5653     1.0  0.57872  0.74435  0.77521  1.0000
  C   C5654     1.0  0.74633  0.86209  0.74100  1.0000
  H   H6746     1.0  0.66344  0.84267  0.94826  1.0000
  H   H6747     1.0  0.60405  0.96760  0.89870  1.0000
  H   H6748     1.0  0.52287  0.84967  0.87504  1.0000
  H   H6749     1.0  0.65446  0.74832  0.84560  1.0000
  C   C5655     1.0  0.66808  0.80223  0.96243  1.0000
  H   H6750     1.0  0.65704  0.96436  0.80122  1.0000
  H   H6751     1.0  0.63692  0.94762  0.90923  1.0000
  H   H6752     1.0  0.76192  0.82077  0.74587  1.0000
  H   H6753     1.0  0.55825  0.76090  0.79027  1.0000
  H   H6754     1.0  0.67024  0.78663  0.76499  1.0000
  C   C5656     1.0  0.75256  0.76414  0.84694  1.0000
  C   C5657     1.0  0.76210  0.77270  0.84271  1.0000
  C   C5658     1.0  0.73842  0.77066  0.84894  1.0000
  C   C5659     1.0  0.75764  0.78686  0.84073  1.0000
  C   C5660     1.0  0.73408  0.78479  0.84694  1.0000
  C   C5661     1.0  0.74367  0.79288  0.84285  1.0000
  C   C5662     1.0  0.61102  0.83623  0.78824  1.0000
  H   H6755     1.0  0.67151  0.97093  0.80004  1.0000
  H   H6756     1.0  0.60970  0.95251  0.89206  1.0000
  H   H6757     1.0  0.66168  0.73958  0.87917  1.0000
  H   H6758     1.0  0.73906  0.74538  0.86508  1.0000
  C   C5663     1.0  0.75226  0.74454  0.83923  1.0000
  H   H6759     1.0  0.77305  0.76873  0.84082  1.0000
  H   H6760     1.0  0.73055  0.76487  0.85201  1.0000
  H   H6761     1.0  0.76507  0.79322  0.83750  1.0000
  H   H6762     1.0  0.72320  0.78948  0.84854  1.0000
  H   H6763     1.0  0.74024  0.80385  0.84129  1.0000
  N   N372      1.0  0.62605  0.96047  0.89377  1.0000
  C   C5664     1.0  0.56787  0.74502  0.75697  1.0000
  H   H6764     1.0  0.68073  0.82767  0.93812  1.0000
  N   N373      1.0  0.65200  0.98284  0.80872  1.0000
  C   C5665     1.0  0.62944  0.97336  0.89350  1.0000
  C   C5666     1.0  0.74798  0.84781  0.74320  1.0000
  H   H6765     1.0  0.67621  0.97512  0.81874  1.0000
  C   C5667     1.0  0.56257  0.83662  0.79006  1.0000
  H   H6766     1.0  0.60155  0.88044  0.80472  1.0000
  C   C5668     1.0  0.56497  0.84585  0.79596  1.0000
  C   C5669     1.0  0.63628  0.95386  0.88317  1.0000
  H   H6767     1.0  0.74098  0.74778  0.84018  1.0000
  H   H6768     1.0  0.63587  0.96030  0.87286  1.0000
  H   H6769     1.0  0.74763  0.82318  0.73810  1.0000
  H   H6770     1.0  0.77526  0.83908  0.73919  1.0000
  H   H6771     1.0  0.59130  0.76099  0.73058  1.0000
  H   H6772     1.0  0.75714  0.74876  0.82857  1.0000
  H   H6773     1.0  0.66264  0.96239  0.81627  1.0000
  H   H6774     1.0  0.66152  0.78349  0.74677  1.0000
  H   H6775     1.0  0.56066  0.75031  0.75053  1.0000
  H   H6776     1.0  0.62333  0.87198  0.77171  1.0000
  C   C5670     1.0  0.61191  0.85621  0.79568  1.0000
  C   C5671     1.0  0.58381  0.76391  0.77909  1.0000
  H   H6777     1.0  0.57401  0.85010  0.79160  1.0000
  H   H6778     1.0  0.63894  0.85625  0.78590  1.0000
  H   H6779     1.0  0.61152  0.96836  0.88075  1.0000
  H   H6780     1.0  0.53765  0.84690  0.82253  1.0000
  H   H6781     1.0  0.56680  0.75778  0.80363  1.0000
  H   H6782     1.0  0.68559  0.83421  0.95517  1.0000
  C   C5672     1.0  0.52054  0.85031  0.88590  1.0000
  C   C5673     1.0  0.56621  0.75343  0.79529  1.0000
  H   H6783     1.0  0.73641  0.88034  0.74864  1.0000
  H   H6784     1.0  0.51713  0.81650  0.81076  1.0000
  S   S1535     1.0  0.61963  0.98252  0.84995  1.0000
  H   H6785     1.0  0.68005  0.80591  0.76182  1.0000
  N   N374      1.0  0.61864  0.86753  0.79374  1.0000
  H   H6786     1.0  0.50110  0.87273  0.90545  1.0000
  H   H6787     1.0  0.60677  0.88086  0.77954  1.0000
  C   C5674     1.0  0.61648  0.84756  0.78625  1.0000
  C   C5675     1.0  0.67864  0.79544  0.94090  1.0000
  H   H6788     1.0  0.51705  0.84104  0.89242  1.0000
  H   H6789     1.0  0.59880  0.87996  0.97694  1.0000
  C   C5676     1.0  0.73034  0.86278  0.76271  1.0000
  H   H6790     1.0  0.55768  0.85667  0.81220  1.0000
  H   H6791     1.0  0.53978  0.81100  0.82601  1.0000
  H   H6792     1.0  0.63714  0.86721  0.97426  1.0000
  H   H6793     1.0  0.52543  0.82649  0.79551  1.0000
  H   H6794     1.0  0.65161  0.73755  0.86211  1.0000
  N   N375      1.0  0.63473  0.82118  0.83012  1.0000
  C   C5677     1.0  0.62805  0.82580  0.81838  1.0000
  C   C5678     1.0  0.64741  0.81085  0.82642  1.0000
  C   C5679     1.0  0.62542  0.81453  0.84193  1.0000
  C   C5680     1.0  0.63731  0.83278  0.83373  1.0000
  C   C5681     1.0  0.62660  0.84440  0.83578  1.0000
  C   C5682     1.0  0.65000  0.83240  0.83659  1.0000
  C   C5683     1.0  0.62858  0.85504  0.84010  1.0000
  C   C5684     1.0  0.65185  0.84305  0.84099  1.0000
  C   C5685     1.0  0.64117  0.85435  0.84274  1.0000
  H   H6795     1.0  0.63435  0.83147  0.80941  1.0000
  H   H6796     1.0  0.62661  0.81709  0.81519  1.0000
  H   H6797     1.0  0.61764  0.83217  0.82082  1.0000
  H   H6798     1.0  0.65514  0.81551  0.81811  1.0000
  H   H6799     1.0  0.64531  0.80286  0.82266  1.0000
  H   H6800     1.0  0.65210  0.80541  0.83528  1.0000
  H   H6801     1.0  0.61533  0.82151  0.84465  1.0000
  H   H6802     1.0  0.62325  0.80554  0.83991  1.0000
  H   H6803     1.0  0.62989  0.81105  0.85107  1.0000
  H   H6804     1.0  0.61644  0.84517  0.83450  1.0000
  H   H6805     1.0  0.65862  0.82385  0.83575  1.0000
  H   H6806     1.0  0.62018  0.86374  0.84170  1.0000
  H   H6807     1.0  0.66160  0.84236  0.84327  1.0000
  H   H6808     1.0  0.64257  0.86243  0.84645  1.0000
  H   H6809     1.0  0.64695  0.95183  0.88445  1.0000
  H   H6810     1.0  0.61958  0.95608  0.91558  1.0000
  C   C5686     1.0  0.66729  0.80117  0.73254  1.0000
  H   H6811     1.0  0.59663  0.82432  0.80123  1.0000
  C   C5687     1.0  0.61765  0.87690  0.78040  1.0000
  H   H6812     1.0  0.62311  0.94165  0.90802  1.0000
  C   C5688     1.0  0.85329  0.73770  0.73219  1.0000
  N   N376      1.0  0.60316  0.88626  0.88663  1.0000
  C   C5689     1.0  0.59156  0.88710  0.88062  1.0000
  C   C5690     1.0  0.59751  0.88622  0.90129  1.0000
  C   C5691     1.0  0.60861  0.89869  0.87996  1.0000
  C   C5692     1.0  0.61435  0.87406  0.88496  1.0000
  C   C5693     1.0  0.61414  0.86433  0.87791  1.0000
  C   C5694     1.0  0.62596  0.87162  0.89053  1.0000
  C   C5695     1.0  0.62492  0.85291  0.87664  1.0000
  C   C5696     1.0  0.63650  0.86003  0.88946  1.0000
  C   C5697     1.0  0.63608  0.85077  0.88240  1.0000
  H   H6813     1.0  0.58655  0.87834  0.88554  1.0000
  H   H6814     1.0  0.58344  0.89650  0.88179  1.0000
  H   H6815     1.0  0.59504  0.88748  0.86952  1.0000
  H   H6816     1.0  0.59379  0.87677  0.90680  1.0000
  H   H6817     1.0  0.58878  0.89504  0.90296  1.0000
  H   H6818     1.0  0.60519  0.88691  0.90642  1.0000
  H   H6819     1.0  0.61312  0.89902  0.86894  1.0000
  H   H6820     1.0  0.60043  0.90813  0.88071  1.0000
  H   H6821     1.0  0.61668  0.89941  0.88459  1.0000
  H   H6822     1.0  0.60575  0.86525  0.87332  1.0000
  H   H6823     1.0  0.62686  0.87854  0.89603  1.0000
  H   H6824     1.0  0.62452  0.84560  0.87126  1.0000
  H   H6825     1.0  0.64496  0.85815  0.89434  1.0000
  H   H6826     1.0  0.64438  0.84186  0.88154  1.0000
  N   N377      1.0  0.62070  0.80739  0.90645  1.0000
  C   C5698     1.0  0.61448  0.81088  0.91999  1.0000
  C   C5699     1.0  0.62898  0.79324  0.90870  1.0000
  C   C5700     1.0  0.62992  0.81673  0.89871  1.0000
  C   C5701     1.0  0.61048  0.80865  0.89855  1.0000
  C   C5702     1.0  0.59633  0.81467  0.90263  1.0000
  C   C5703     1.0  0.61467  0.80419  0.88608  1.0000
  C   C5704     1.0  0.58700  0.81592  0.89479  1.0000
  C   C5705     1.0  0.60521  0.80534  0.87842  1.0000
  C   C5706     1.0  0.59142  0.81120  0.88277  1.0000
  H   H6827     1.0  0.62235  0.80939  0.92590  1.0000
  H   H6828     1.0  0.60913  0.82177  0.91909  1.0000
  H   H6829     1.0  0.60703  0.80454  0.92628  1.0000
  H   H6830     1.0  0.62228  0.78578  0.91308  1.0000
  H   H6831     1.0  0.63574  0.79156  0.91582  1.0000
  H   H6832     1.0  0.62398  0.82743  0.89691  1.0000
  H   H6833     1.0  0.63775  0.81621  0.90428  1.0000
  H   H6834     1.0  0.63558  0.81430  0.88868  1.0000
  H   H6835     1.0  0.59214  0.81850  0.91185  1.0000
  H   H6836     1.0  0.62529  0.79973  0.88215  1.0000
  H   H6837     1.0  0.57626  0.82061  0.89806  1.0000
  H   H6838     1.0  0.60856  0.80164  0.86906  1.0000
  H   H6839     1.0  0.58412  0.81210  0.87678  1.0000
  N   N378      1.0  0.66936  0.88598  0.82901  1.0000
  C   C5707     1.0  0.67495  0.89834  0.82588  1.0000
  C   C5708     1.0  0.67820  0.87732  0.81936  1.0000
  C   C5709     1.0  0.65537  0.89005  0.82638  1.0000
  C   C5710     1.0  0.66865  0.87910  0.84347  1.0000
  C   C5711     1.0  0.67400  0.86495  0.84767  1.0000
  C   C5712     1.0  0.66222  0.88653  0.85389  1.0000
  C   C5713     1.0  0.67357  0.85884  0.86138  1.0000
  C   C5714     1.0  0.66189  0.88035  0.86757  1.0000
  C   C5715     1.0  0.66772  0.86657  0.87129  1.0000
  H   H6840     1.0  0.68477  0.89593  0.82920  1.0000
  H   H6841     1.0  0.67702  0.90293  0.81481  1.0000
  H   H6842     1.0  0.66774  0.90660  0.83074  1.0000
  H   H6843     1.0  0.67897  0.88289  0.80856  1.0000
  H   H6844     1.0  0.67412  0.86832  0.82021  1.0000
  H   H6845     1.0  0.68888  0.87376  0.82094  1.0000
  H   H6846     1.0  0.65555  0.89488  0.81552  1.0000
  H   H6847     1.0  0.65070  0.88113  0.82879  1.0000
  H   H6848     1.0  0.64839  0.89753  0.83240  1.0000
  H   H6849     1.0  0.67873  0.85837  0.84056  1.0000
  H   H6850     1.0  0.65755  0.89724  0.85156  1.0000
  H   H6851     1.0  0.67799  0.84806  0.86431  1.0000
  H   H6852     1.0  0.65722  0.88636  0.87530  1.0000
  H   H6853     1.0  0.66772  0.86184  0.88188  1.0000
  H   H6854     1.0  0.50101  0.87273  0.84031  1.0000
  C   C5716     1.0  0.51655  0.83964  0.81609  1.0000
  H   H6855     1.0  0.69553  0.81938  0.75374  1.0000
  C   C5717     1.0  0.67692  0.80494  0.75322  1.0000
  C   C5718     1.0  0.50317  0.86183  0.84403  1.0000
  C   C5719     1.0  0.67172  0.79253  0.95444  1.0000
  H   H6856     1.0  0.66900  0.78273  0.95869  1.0000
  H   H6857     1.0  0.54985  0.82388  0.79062  1.0000
  H   H6858     1.0  0.51028  0.88445  0.88252  1.0000
  C   C5720     1.0  0.54421  0.84396  0.81331  1.0000
  H   H6859     1.0  0.50306  0.85461  0.90955  1.0000
  H   H6860     1.0  0.68116  0.78802  0.93463  1.0000
  C   C5721     1.0  0.68159  0.74586  0.84339  1.0000
  C   C5722     1.0  0.54129  0.83470  0.80743  1.0000
  H   H6861     1.0  0.63466  0.85503  0.80390  1.0000
  H   H6862     1.0  0.68103  0.75403  0.84854  1.0000
  C   C5723     1.0  0.55090  0.83114  0.79561  1.0000
  H   H6863     1.0  0.53292  0.82524  0.83390  1.0000
  C   C5724     1.0  0.67130  0.81526  0.95699  1.0000
  H   H6864     1.0  0.58770  0.83920  0.81770  1.0000
  H   H6865     1.0  0.59679  0.85912  0.81469  1.0000
  H   H6866     1.0  0.64700  0.97607  0.85593  1.0000
  H   H6867     1.0  0.61377  0.86952  0.81457  1.0000
  H   H6868     1.0  0.60174  0.76492  0.74735  1.0000
  H   H6869     1.0  0.61782  0.88427  0.80246  1.0000
  H   H6870     1.0  0.53045  0.84989  0.88827  1.0000
  H   H6871     1.0  0.67838  0.82922  0.75887  1.0000
  H   H6872     1.0  0.63444  0.94386  0.88339  1.0000
  C   C5725     1.0  0.63335  0.86199  0.79401  1.0000
  C   C5726     1.0  0.56896  0.75084  0.76701  1.0000
  H   H6873     1.0  0.63876  0.87023  0.79250  1.0000
  H   H6874     1.0  0.50710  0.83550  0.82058  1.0000
  C   C5727     1.0  0.73171  0.84879  0.76522  1.0000
  H   H6875     1.0  0.56230  0.76062  0.76807  1.0000
  C   C5728     1.0  0.74039  0.84133  0.75566  1.0000
  C   C5729     1.0  0.60495  0.75524  0.74436  1.0000
  H   H6876     1.0  0.69169  0.83734  0.74810  1.0000
  C   C5730     1.0  0.61262  0.87575  0.80434  1.0000
  C   C5731     1.0  0.64181  0.97318  0.89682  1.0000
  H   H6877     1.0  0.65493  0.98487  0.89884  1.0000
  H   H6878     1.0  0.68758  0.82048  0.96963  1.0000
  C   C5732     1.0  0.52666  0.82041  0.80579  1.0000
  C   C5733     1.0  0.55580  0.84952  0.80756  1.0000
  S   S1536     1.0  0.52814  0.86474  0.84532  1.0000
  H   H6879     1.0  0.52685  0.87351  0.88160  1.0000
  H   H6880     1.0  0.52160  0.81570  0.83287  1.0000
  H   H6881     1.0  0.51774  0.86192  0.90590  1.0000
  H   H6882     1.0  0.72350  0.86851  0.77012  1.0000
  C   C5734     1.0  0.68748  0.82815  0.75028  1.0000
  H   H6883     1.0  0.72589  0.84375  0.77465  1.0000
  H   H6884     1.0  0.69262  0.74077  0.84080  1.0000
  H   H6885     1.0  0.64909  0.83556  0.95820  1.0000
  C   C5735     1.0  0.60070  0.83326  0.79958  1.0000
  C   C5736     1.0  0.51575  0.85517  0.84771  1.0000
  H   H6886     1.0  0.53516  0.81128  0.80467  1.0000
  H   H6887     1.0  0.51517  0.84696  0.80639  1.0000
  C   C5737     1.0  0.60106  0.85311  0.80699  1.0000
  N   N379      1.0  0.66763  0.82582  0.96509  1.0000
  H   H6888     1.0  0.74086  0.83055  0.75825  1.0000
  H   H6889     1.0  0.62218  0.88582  0.77891  1.0000
  N   N380      1.0  0.52910  0.82871  0.81391  1.0000
  H   H6890     1.0  0.75339  0.74621  0.87078  1.0000
  C   C5738     1.0  0.59564  0.84174  0.80884  1.0000
  N   N381      1.0  0.75703  0.84038  0.73265  1.0000
  H   H6891     1.0  0.51738  0.87541  0.86903  1.0000
  H   H6892     1.0  0.67750  0.84860  0.73258  1.0000
  C   C5739     1.0  0.61475  0.74485  0.75013  1.0000
  H   H6893     1.0  0.67834  0.75081  0.83364  1.0000
  N   N382      1.0  0.67298  0.73629  0.85217  1.0000
  H   H6894     1.0  0.59394  0.76230  0.77184  1.0000
  H   H6895     1.0  0.70536  0.74640  0.88082  1.0000
  H   H6896     1.0  0.63976  0.97392  0.82737  1.0000
  C   C5740     1.0  0.68022  0.82957  0.96544  1.0000
  C   C5741     1.0  0.63865  0.97999  0.81708  1.0000
  C   C5742     1.0  0.68190  0.80810  0.93526  1.0000
  C   C5743     1.0  0.66030  0.82154  0.97938  1.0000
  C   C5744     1.0  0.75042  0.74284  0.86307  1.0000
  C   C5745     1.0  0.49699  0.86405  0.88505  1.0000
  C   C5746     1.0  0.61222  0.96238  0.89122  1.0000
  H   H6897     1.0  0.68685  0.81050  0.92457  1.0000
  C   C5747     1.0  0.73767  0.86941  0.75065  1.0000
  H   H6898     1.0  0.77607  0.74670  0.85439  1.0000
  C   C5748     1.0  0.66127  0.96962  0.80648  1.0000
  C   C5749     1.0  0.59910  0.75302  0.73478  1.0000
  H   H6899     1.0  0.58469  0.76911  0.78665  1.0000
  C   C5750     1.0  0.65854  0.83809  0.95876  1.0000
  H   H6900     1.0  0.66260  0.79933  0.97278  1.0000
  C   C5751     1.0  0.67828  0.81789  0.94312  1.0000
  H   H6901     1.0  0.67784  0.83718  0.97185  1.0000
  H   H6902     1.0  0.63444  0.97418  0.81242  1.0000
  N   N383      1.0  0.57971  0.75080  0.78571  1.0000
  C   C5752     1.0  0.51640  0.87458  0.88005  1.0000
  H   H6903     1.0  0.77741  0.74736  0.83658  1.0000
  H   H6904     1.0  0.57639  0.77117  0.77325  1.0000
  H   H6905     1.0  0.65749  0.75299  0.85933  1.0000
  H   H6906     1.0  0.65524  0.84619  0.96473  1.0000
  C   C5753     1.0  0.71512  0.74026  0.86178  1.0000
  C   C5754     1.0  0.71256  0.73859  0.87589  1.0000
  C   C5755     1.0  0.67376  0.83930  0.73379  1.0000
  H   H6907     1.0  0.59019  0.74735  0.80186  1.0000
  C   C5756     1.0  0.67129  0.79372  0.75522  1.0000
  C   C5757     1.0  0.65853  0.74408  0.85501  1.0000
  C   C5758     1.0  0.58990  0.74238  0.79387  1.0000
  H   H6908     1.0  0.56245  0.74388  0.79999  1.0000
  H   H6909     1.0  0.65036  0.81916  0.97987  1.0000
  H   H6910     1.0  0.75148  0.86778  0.73162  1.0000
  H   H6911     1.0  0.66384  0.84006  0.74133  1.0000
  C   C5759     1.0  0.75783  0.82549  0.73653  1.0000
  H   H6912     1.0  0.60051  0.74079  0.78743  1.0000
  C   C5760     1.0  0.67793  0.81466  0.74068  1.0000
  N   N384      1.0  0.68378  0.82671  0.73815  1.0000
