data_image0
_chemical_formula_structural       CHFeHSCS2HC6H2CHSH2CHCH3C2HCHCHCH3CFeHCS2HC2NCHCHCH2C2H3SCNH2CS2CH2CH2CH3FeSHC2HCHFeCH2CHC2H3CH4SH2CH2CFeHSFeS2FeS2C6H7C2NS3C3H2C4H2CH2C2H4C2HCHCNCHCHC2HCSH4CH2FeC3H2CH2SNFeH10C3H2CHC2HCH4NHC2H3NHC2H2C4HSFeC2H2CFeS3H3CFeSC7H4CHNH6FeH2CHCHC2HSH5C2H2SCH2CH2CH2NC4FeC2H2CHC2H3C2SCH6C2HCHFeS2FeHSHC2FeS2CHC7H7CH3C3NCS2H3CSCNHCHCHCHCHCHC2H2FeHC3FeHCHCHC3FeH2CHC2H2CH2CSH3C2HSH2SCSHCH2FeCH3CH2C4SH5NC2HFeS2FeHCFeCSFeS2FeS2CSCH4C6H4C6H4FeCFeCSC2HSCH2C2H2CHCHCSH4C2SCHNCHC4H3CSC4HCS2NH2SH2CHCHCH3CHFeHFeH2CHC2H2SH2C3NCH7NC9H15C2HSCHC2FeSCHCHC2HCHC7FeCHC3H8CHS2CH3SC2HCHC2SCH2CH2CHS2HCHC2SCNH2SH10CFeC5FeSHFeCSC3NSHSH4FeCSFeS2FeS2FeS2FeCFeCS2FeSCH3FeS2CNHCH2C2H2C6H4FeSH2C6H4C3H2C2H2SC2H2CHFeHCH2CH3SHC6SC2NFeCFeCH2C2H2FeCHC2H2CHC3HCH2CHSH3SCH5FeCH2CHNC9H14NC9H13CHCFeHSFeSH2CH2C2H2NCH2CH2CH4SHCH2C3FeH3C4H3CH2C2HSCSHC4HCH3SCSFeCSH6CHSH2CHCHSFeS2CSCFeSHFeSHFeS2FeSCFeSFe2S2HCH3C7H4CHCHC6H10C3SCHSHCH3C2NHC3FeH3C2HC3H3CHCHFeH6C2H3SHCNC9H17C2HCH2SCHC3SFeCH2CH2CFeS2HC3NC4H7SH3CHSHCSHNC2HC3HFeC2NC2SHNH2Fe2S2H2C2HC2HC2H4C2HCHC2HSCHCSHCHC5FeC2HCSCFeCHCHCH2SFeCSHFeCSCNSFeHSCHCHSFeH2FeS2FeS2FeH2FeS2FeS2FeS2HSFeNHCFeSC3HFeS2C5HC6H4C6H4C4H2CH3CH2SHC2SC2H2C3H5C2SC3H2C2H4C2H2CH2C5NC9H14SHSHCSHC2H2CSH6C2HC3S2HCSHCNHC2HNH2CH4CHCHCHNC5HFe2H12CH3C2HCH2C2SC3HSHCSH2NHC3HCH4CFeC2HCH4C2HC2H2SHSH2SHCH2C4H2CSCFeSHFeS2CS2FeHCHCH2C6H4C6H5CSH2SHC2H2CHNCH2SHCHNH2CSCHC3HFeHC2H3SCNC9HC2NH2S2H3CH5NH3SCFeHCHCSCFeH2C3HCH5NHSNCHCH4CH6SCHC3H3C2HCHC2HSH2SHCHFeH4CHCH3CHC2HC2HFeHC2H2SHC2H3CH3CHCHC3H7CH3NHCSFeS2HSH2SFeHCHC2HSFeS2HCH2CHC6H4C6H4CHCHCH2CSH2CHNH2SNC2HC2HC2FeCH2CHCNHNHC2HCHC2HCSCH2CHCSH2CH6C4HCFeCHCHC2SH6CHC4H3CHSHCHCHC3H3NHC7HFeHSCSFeH3CH2C2H2CH2C2H2NHCHSC2HC2H6CH3SC2H2CHCH2SH4SHC3H6FeCS2HSC3H3SHCNHCHCHCNH2C3H3CHFeS2HSH2SNCH4C2FeSH5FeC7H5CH2C6H4CSCH5C3H2FeSC3HCH2SC3H2CH2C2H2C5H3CNC9H11C3H2CH3CHS2CH2CH3CH2C2H2S2HNCHCH5C2HCNC2SC2HC3H5CHCH2CSFeSHSH3SCHSH3SHNHSH5CNFeC2SH3CSNCS2HSCHSHFeS2NSHC7H3FeC3HC6H4CH2CHC2SH2FeNCH4SCH2SCFeH6CH2CH2C6HCSH2C4H5C2HCHCFeH2CH4C3H2CH2C2H10C3HC2H6C4H2NCHC2HC2NHC2H5C3H5NC2HFeCHFeCH2C2H3CHCSHC3H4CFeCS2HFeHSCSC3FeHC4H3CH3C2HSH3CHSHCHCHC2H2NC2HFeHS2CNC3H6CFeHCHSH3C2HSHC2HC2HNCFeH2CSFeSCSHSCFeHSCFeSCH4C7SH2CHCHSCH3C2FeHSH3C3H5CHFeCFeSC3H3SCFeHFeC3HC2HCHC3SH2SCFeC2H2CFeHSHCH3SHCHSCSC2HC4H2SCH2C2H2CH2C3HSCHCFeC2SH5C3H2SH3CH2NC5NH3CSHCHFeCSH7FeHFeCHCHC2HC2SFeSH4FeS2HSFeCNFeHFeC2H2C2H4CHSH3CSHC2SC3HNC2HC4HFeH3NCH5SCHC5H2C2H2CH2CHC2HCH2SHFeHFeSHFeSC3HC2HCS
_chemical_formula_sum              "C1080 H1296 Fe144 S288 N72"
_cell_length_a       63.3537
_cell_length_b       63.3031
_cell_length_c       63.41
_cell_angle_alpha    88.3766
_cell_angle_beta     87.9842
_cell_angle_gamma    88.2379

_space_group_name_H-M_alt    "P 1"
_space_group_IT_number       1

loop_
  _space_group_symop_operation_xyz
  'x, y, z'

loop_
  _atom_site_type_symbol
  _atom_site_label
  _atom_site_symmetry_multiplicity
  _atom_site_fract_x
  _atom_site_fract_y
  _atom_site_fract_z
  _atom_site_occupancy
  C   C1        1.0  0.08932  0.40756  0.43205  1.0000
  H   H1        1.0  0.99994  0.45498  0.32364  1.0000
  Fe  Fe1       1.0  0.16560  0.47090  0.36579  1.0000
  H   H2        1.0  0.21221  0.44796  0.47450  1.0000
  S   S1        1.0  0.16476  0.43563  0.37207  1.0000
  C   C2        1.0  0.08948  0.44223  0.40385  1.0000
  S   S2        1.0  0.19139  0.41051  0.46518  1.0000
  S   S3        1.0  0.18418  0.34638  0.47096  1.0000
  H   H3        1.0  0.09437  0.30701  0.45757  1.0000
  C   C3        1.0  0.17130  0.42851  0.39817  1.0000
  C   C4        1.0  0.16888  0.40769  0.40591  1.0000
  C   C5        1.0  0.17452  0.40193  0.42665  1.0000
  C   C6        1.0  0.18298  0.41693  0.43951  1.0000
  C   C7        1.0  0.18534  0.43770  0.43169  1.0000
  C   C8        1.0  0.17927  0.44353  0.41125  1.0000
  H   H4        1.0  0.16265  0.39600  0.39587  1.0000
  H   H5        1.0  0.17270  0.38585  0.43253  1.0000
  C   C9        1.0  0.23653  0.48626  0.26467  1.0000
  H   H6        1.0  0.18109  0.45963  0.40553  1.0000
  S   S4        1.0  0.01978  0.47934  0.36125  1.0000
  H   H7        1.0  0.05666  0.44592  0.41042  1.0000
  H   H8        1.0  0.12278  0.40471  0.42443  1.0000
  C   C10       1.0  0.06552  0.32538  0.46195  1.0000
  H   H9        1.0  0.06581  0.40218  0.46864  1.0000
  C   C11       1.0  0.06318  0.48071  0.35852  1.0000
  H   H10       1.0  0.21241  0.47546  0.46786  1.0000
  H   H11       1.0  0.06282  0.46367  0.36018  1.0000
  H   H12       1.0  0.05612  0.42916  0.46798  1.0000
  C   C12       1.0  0.05279  0.41286  0.46312  1.0000
  C   C13       1.0  0.08708  0.32095  0.46458  1.0000
  H   H13       1.0  0.05647  0.31486  0.45287  1.0000
  C   C14       1.0  0.23974  0.44205  0.31494  1.0000
  H   H14       1.0  0.01692  0.42034  0.44391  1.0000
  C   C15       1.0  0.23037  0.44778  0.35216  1.0000
  H   H15       1.0  0.03343  0.44231  0.43920  1.0000
  C   C16       1.0  0.06755  0.35638  0.48305  1.0000
  H   H16       1.0  0.12284  0.43535  0.39942  1.0000
  H   H17       1.0  0.08964  0.45564  0.39279  1.0000
  H   H18       1.0  0.19849  0.44934  0.31012  1.0000
  C   C17       1.0  0.17394  0.46741  0.48342  1.0000
  Fe  Fe2       1.0  0.18326  0.37976  0.48224  1.0000
  H   H19       1.0  0.19133  0.45245  0.33757  1.0000
  C   C18       1.0  0.21620  0.41806  0.33300  1.0000
  S   S5        1.0  0.12590  0.32593  0.48026  1.0000
  S   S6        1.0  0.14417  0.49276  0.38424  1.0000
  H   H20       1.0  0.22979  0.47617  0.25336  1.0000
  C   C19       1.0  0.23196  0.44508  0.39085  1.0000
  C   C20       1.0  0.09926  0.33417  0.47624  1.0000
  N   N1        1.0  0.22290  0.44039  0.33182  1.0000
  C   C21       1.0  0.24174  0.46673  0.35298  1.0000
  H   H21       1.0  0.20850  0.47077  0.32429  1.0000
  C   C22       1.0  0.08277  0.49061  0.35569  1.0000
  H   H22       1.0  0.03822  0.40790  0.47204  1.0000
  C   C23       1.0  0.03135  0.42560  0.43489  1.0000
  H   H23       1.0  0.03048  0.38484  0.44185  1.0000
  H   H24       1.0  0.05798  0.37851  0.43999  1.0000
  C   C24       1.0  0.07055  0.43642  0.41420  1.0000
  C   C25       1.0  0.04572  0.39014  0.43446  1.0000
  H   H25       1.0  0.22760  0.43704  0.40564  1.0000
  H   H26       1.0  0.19196  0.44939  0.44138  1.0000
  H   H27       1.0  0.02776  0.42512  0.41785  1.0000
  S   S7        1.0  0.19463  0.48885  0.37141  1.0000
  C   C26       1.0  0.10814  0.41355  0.42165  1.0000
  N   N2        1.0  0.05023  0.41213  0.43999  1.0000
  H   H28       1.0  0.01174  0.47223  0.45445  1.0000
  H   H29       1.0  0.04476  0.38862  0.41708  1.0000
  C   C27       1.0  0.10822  0.43084  0.40756  1.0000
  S   S8        1.0  0.02778  0.34627  0.46834  1.0000
  S   S9        1.0  0.00996  0.44311  0.49032  1.0000
  C   C28       1.0  0.06992  0.41885  0.42873  1.0000
  H   H30       1.0  0.09009  0.39390  0.44268  1.0000
  H   H31       1.0  0.09732  0.48120  0.35523  1.0000
  C   C29       1.0  0.05546  0.34279  0.47146  1.0000
  H   H32       1.0  0.21220  0.41230  0.31724  1.0000
  H   H33       1.0  0.00626  0.49063  0.49330  1.0000
  C   C30       1.0  0.20452  0.45380  0.32560  1.0000
  H   H34       1.0  0.00662  0.45349  0.28568  1.0000
  H   H35       1.0  0.17169  0.45170  0.47643  1.0000
  H   H36       1.0  0.22890  0.40738  0.33932  1.0000
  Fe  Fe3       1.0  0.00531  0.36636  0.48851  1.0000
  S   S10       1.0  0.15955  0.48680  0.33416  1.0000
  H   H37       1.0  0.21553  0.42369  0.37301  1.0000
  C   C31       1.0  0.22525  0.43742  0.37181  1.0000
  C   C32       1.0  0.21203  0.46394  0.48143  1.0000
  H   H38       1.0  0.22700  0.46523  0.48993  1.0000
  C   C33       1.0  0.08952  0.35225  0.48516  1.0000
  H   H39       1.0  0.20154  0.41614  0.34306  1.0000
  Fe  Fe4       1.0  0.15410  0.34353  0.49118  1.0000
  C   C34       1.0  0.00053  0.49302  0.30104  1.0000
  H   H40       1.0  0.02742  0.47185  0.30817  1.0000
  H   H41       1.0  0.23756  0.47645  0.18355  1.0000
  C   C35       1.0  0.04407  0.49266  0.35897  1.0000
  H   H42       1.0  0.15966  0.47113  0.49350  1.0000
  C   C36       1.0  0.22442  0.49202  0.28293  1.0000
  C   C37       1.0  0.02204  0.48797  0.30509  1.0000
  H   H43       1.0  0.17434  0.47904  0.46994  1.0000
  H   H44       1.0  0.23517  0.43476  0.30005  1.0000
  H   H45       1.0  0.20852  0.48648  0.28539  1.0000
  C   C38       1.0  0.24359  0.46339  0.39099  1.0000
  H   H46       1.0  0.24311  0.45872  0.31028  1.0000
  H   H47       1.0  0.06000  0.36985  0.49057  1.0000
  H   H48       1.0  0.24485  0.47647  0.33899  1.0000
  H   H49       1.0  0.09876  0.36258  0.49423  1.0000
  S   S11       1.0  0.23410  0.32001  0.50326  1.0000
  H   H50       1.0  0.04652  0.35650  0.55864  1.0000
  H   H51       1.0  0.09438  0.31941  0.52367  1.0000
  C   C39       1.0  0.03267  0.33145  0.52601  1.0000
  H   H52       1.0  0.19103  0.43391  0.50297  1.0000
  H   H53       1.0  0.05664  0.30189  0.56425  1.0000
  C   C40       1.0  0.09878  0.36444  0.55005  1.0000
  Fe  Fe5       1.0  0.19779  0.48874  0.66880  1.0000
  H   H54       1.0  0.20416  0.32354  0.55610  1.0000
  S   S12       1.0  0.00243  0.48359  0.61355  1.0000
  Fe  Fe6       1.0  0.17169  0.36656  0.52756  1.0000
  S   S13       1.0  0.16266  0.37745  0.56053  1.0000
  S   S14       1.0  0.17143  0.33202  0.52004  1.0000
  Fe  Fe7       1.0  0.18829  0.47836  0.62265  1.0000
  S   S15       1.0  0.20032  0.46218  0.59283  1.0000
  S   S16       1.0  0.17954  0.46312  0.65396  1.0000
  C   C41       1.0  0.17249  0.40154  0.56894  1.0000
  C   C42       1.0  0.18841  0.41194  0.55731  1.0000
  C   C43       1.0  0.19662  0.43058  0.56483  1.0000
  C   C44       1.0  0.18881  0.43918  0.58382  1.0000
  C   C45       1.0  0.17267  0.42898  0.59533  1.0000
  C   C46       1.0  0.16463  0.41014  0.58795  1.0000
  H   H55       1.0  0.19477  0.40534  0.54281  1.0000
  H   H56       1.0  0.20951  0.43808  0.55626  1.0000
  H   H57       1.0  0.16665  0.43541  0.61006  1.0000
  H   H58       1.0  0.15239  0.40212  0.59709  1.0000
  H   H59       1.0  0.00584  0.38587  0.63806  1.0000
  H   H60       1.0  0.02312  0.42871  0.53424  1.0000
  H   H61       1.0  0.13624  0.45737  0.74604  1.0000
  C   C47       1.0  0.04565  0.43923  0.62565  1.0000
  C   C48       1.0  0.23638  0.48858  0.71312  1.0000
  N   N3        1.0  0.06022  0.44423  0.60751  1.0000
  S   S17       1.0  0.21738  0.47697  0.69707  1.0000
  S   S18       1.0  0.11964  0.47351  0.66546  1.0000
  S   S19       1.0  0.01924  0.38615  0.51257  1.0000
  C   C49       1.0  0.05681  0.48739  0.66016  1.0000
  C   C50       1.0  0.07629  0.47716  0.66472  1.0000
  C   C51       1.0  0.23359  0.27561  0.50342  1.0000
  H   H62       1.0  0.07650  0.46114  0.67113  1.0000
  H   H63       1.0  0.03119  0.29811  0.55325  1.0000
  C   C52       1.0  0.09547  0.48738  0.66063  1.0000
  C   C53       1.0  0.20552  0.33913  0.56360  1.0000
  C   C54       1.0  0.21467  0.37127  0.59544  1.0000
  C   C55       1.0  0.04335  0.31001  0.55594  1.0000
  H   H64       1.0  0.03793  0.34111  0.51208  1.0000
  H   H65       1.0  0.07370  0.38141  0.56652  1.0000
  C   C56       1.0  0.13321  0.48762  0.71746  1.0000
  H   H66       1.0  0.19304  0.34001  0.57633  1.0000
  H   H67       1.0  0.03149  0.46521  0.54240  1.0000
  C   C57       1.0  0.99621  0.38324  0.58578  1.0000
  C   C58       1.0  0.08893  0.33245  0.53329  1.0000
  H   H68       1.0  0.19192  0.47947  0.74622  1.0000
  H   H69       1.0  0.08847  0.43386  0.62352  1.0000
  H   H70       1.0  0.17878  0.45833  0.72139  1.0000
  H   H71       1.0  0.06428  0.31012  0.50595  1.0000
  C   C59       1.0  0.07955  0.43047  0.60918  1.0000
  C   C60       1.0  0.23097  0.32669  0.58885  1.0000
  H   H72       1.0  0.17870  0.45049  0.52232  1.0000
  C   C61       1.0  0.07791  0.36773  0.55722  1.0000
  H   H73       1.0  0.07726  0.47143  0.59583  1.0000
  C   C62       1.0  0.00115  0.39103  0.62244  1.0000
  N   N4        1.0  0.22702  0.34216  0.57132  1.0000
  C   C63       1.0  0.19254  0.44916  0.51108  1.0000
  H   H74       1.0  0.12045  0.34445  0.53232  1.0000
  C   C64       1.0  0.04970  0.44039  0.58752  1.0000
  H   H75       1.0  0.21663  0.27722  0.50210  1.0000
  C   C65       1.0  0.06676  0.46644  0.60937  1.0000
  C   C66       1.0  0.04421  0.41960  0.58241  1.0000
  H   H76       1.0  0.23047  0.31010  0.58347  1.0000
  C   C67       1.0  0.06245  0.35341  0.55252  1.0000
  S   S20       1.0  0.20269  0.37139  0.51039  1.0000
  H   H77       1.0  0.20139  0.35159  0.55165  1.0000
  H   H78       1.0  0.12320  0.47386  0.71463  1.0000
  H   H79       1.0  0.23398  0.24143  0.50356  1.0000
  H   H80       1.0  0.11083  0.37548  0.55371  1.0000
  C   C68       1.0  0.03512  0.41546  0.56323  1.0000
  H   H81       1.0  0.07592  0.46851  0.62374  1.0000
  H   H82       1.0  0.04539  0.29260  0.51765  1.0000
  Fe  Fe8       1.0  0.15163  0.48608  0.65445  1.0000
  C   C69       1.0  0.04452  0.45688  0.57266  1.0000
  C   C70       1.0  0.10424  0.34685  0.53812  1.0000
  C   C71       1.0  0.03059  0.43189  0.54890  1.0000
  H   H83       1.0  0.21898  0.32820  0.60198  1.0000
  H   H84       1.0  0.07594  0.41342  0.61055  1.0000
  C   C72       1.0  0.21593  0.39165  0.60314  1.0000
  H   H85       1.0  0.03098  0.39946  0.55971  1.0000
  H   H86       1.0  0.04090  0.42244  0.62617  1.0000
  S   S21       1.0  0.15221  0.37744  0.50026  1.0000
  N   N5        1.0  0.05088  0.32021  0.53585  1.0000
  Fe  Fe9       1.0  0.20151  0.33734  0.50068  1.0000
  H   H87       1.0  0.03583  0.32168  0.56693  1.0000
  H   H88       1.0  0.04653  0.40642  0.59339  1.0000
  H   H89       1.0  0.03078  0.44896  0.62491  1.0000
  H   H90       1.0  0.09044  0.43282  0.59519  1.0000
  H   H91       1.0  0.05276  0.44229  0.64104  1.0000
  H   H92       1.0  0.02076  0.32041  0.52060  1.0000
  H   H93       1.0  0.04731  0.47328  0.57546  1.0000
  H   H94       1.0  0.02399  0.34220  0.53698  1.0000
  H   H95       1.0  0.07107  0.29311  0.52828  1.0000
  H   H96       1.0  0.05287  0.47763  0.61071  1.0000
  C   C73       1.0  0.03526  0.45253  0.55360  1.0000
  C   C74       1.0  0.16454  0.46561  0.71402  1.0000
  C   C75       1.0  0.06746  0.33536  0.54028  1.0000
  H   H97       1.0  0.04216  0.47929  0.66314  1.0000
  H   H98       1.0  0.15431  0.45249  0.70979  1.0000
  C   C76       1.0  0.22857  0.36394  0.57898  1.0000
  H   H99       1.0  0.17017  0.47336  0.69902  1.0000
  C   C77       1.0  0.05832  0.30329  0.52134  1.0000
  C   C78       1.0  0.14738  0.47036  0.74818  1.0000
  H   H100      1.0  0.16135  0.46305  0.75601  1.0000
  C   C79       1.0  0.19495  0.48806  0.50607  1.0000
  H   H101      1.0  0.23150  0.42136  0.60037  1.0000
  H   H102      1.0  0.13968  0.48174  0.75934  1.0000
  H   H103      1.0  0.20242  0.36142  0.60223  1.0000
  H   H104      1.0  0.20726  0.44750  0.52009  1.0000
  N   N6        1.0  0.15319  0.48109  0.72779  1.0000
  H   H105      1.0  0.20480  0.39711  0.61535  1.0000
  C   C80       1.0  0.24560  0.29375  0.50423  1.0000
  C   C81       1.0  0.23096  0.40537  0.59469  1.0000
  H   H106      1.0  0.00827  0.36080  0.60883  1.0000
  H   H107      1.0  0.23969  0.34760  0.53962  1.0000
  H   H108      1.0  0.24010  0.46034  0.73260  1.0000
  N   N7        1.0  0.19336  0.46743  0.49585  1.0000
  H   H109      1.0  0.19558  0.47659  0.53925  1.0000
  C   C82       1.0  0.00249  0.37684  0.60592  1.0000
  C   C83       1.0  0.24352  0.25527  0.50428  1.0000
  H   H110      1.0  0.13632  0.49508  0.70160  1.0000
  H   H111      1.0  0.24074  0.32064  0.54831  1.0000
  C   C84       1.0  0.19606  0.49003  0.52833  1.0000
  C   C85       1.0  0.24234  0.33710  0.55376  1.0000
  C   C86       1.0  0.24366  0.37841  0.57058  1.0000
  C   C87       1.0  0.24515  0.47636  0.72975  1.0000
  H   H112      1.0  0.99922  0.49210  0.54489  1.0000
  S   S22       1.0  0.99878  0.36489  0.56554  1.0000
  Fe  Fe10      1.0  0.99753  0.41162  0.50037  1.0000
  C   C88       1.0  0.24474  0.39879  0.57841  1.0000
  C   C89       1.0  0.18661  0.49525  0.74157  1.0000
  H   H113      1.0  0.11813  0.58807  0.38301  1.0000
  H   H114      1.0  0.07011  0.67173  0.48468  1.0000
  C   C90       1.0  0.12649  0.59589  0.45059  1.0000
  Fe  Fe11      1.0  0.17274  0.51233  0.38736  1.0000
  S   S23       1.0  0.16772  0.53145  0.35756  1.0000
  S   S24       1.0  0.17798  0.52290  0.42056  1.0000
  S   S25       1.0  0.21805  0.51389  0.32074  1.0000
  H   H115      1.0  0.03019  0.52405  0.35673  1.0000
  H   H116      1.0  0.23022  0.66951  0.40781  1.0000
  H   H117      1.0  0.07406  0.58515  0.42375  1.0000
  C   C91       1.0  0.06432  0.52453  0.35326  1.0000
  Fe  Fe12      1.0  0.18314  0.62686  0.47835  1.0000
  S   S26       1.0  0.18595  0.61926  0.44362  1.0000
  C   C92       1.0  0.08908  0.58753  0.43073  1.0000
  C   C93       1.0  0.18109  0.54970  0.42624  1.0000
  C   C94       1.0  0.18242  0.56548  0.41037  1.0000
  C   C95       1.0  0.18419  0.58678  0.41579  1.0000
  C   C96       1.0  0.18470  0.59237  0.43706  1.0000
  C   C97       1.0  0.18369  0.57650  0.45282  1.0000
  C   C98       1.0  0.18176  0.55531  0.44742  1.0000
  H   H118      1.0  0.18209  0.56128  0.39397  1.0000
  H   H119      1.0  0.18505  0.59895  0.40349  1.0000
  H   H120      1.0  0.18446  0.58049  0.46918  1.0000
  H   H121      1.0  0.18063  0.54319  0.45970  1.0000
  C   C99       1.0  0.23467  0.69499  0.44139  1.0000
  H   H122      1.0  0.22836  0.52235  0.17724  1.0000
  N   N8        1.0  0.22169  0.67598  0.44041  1.0000
  H   H123      1.0  0.00543  0.54694  0.29684  1.0000
  H   H124      1.0  0.06460  0.54150  0.35086  1.0000
  H   H125      1.0  0.19131  0.69093  0.44783  1.0000
  H   H126      1.0  0.21349  0.71395  0.46226  1.0000
  H   H127      1.0  0.00841  0.51886  0.49069  1.0000
  H   H128      1.0  0.04253  0.53700  0.30450  1.0000
  Fe  Fe13      1.0  0.18785  0.50628  0.34080  1.0000
  H   H129      1.0  0.22289  0.50367  0.15738  1.0000
  H   H130      1.0  0.13448  0.54255  0.41683  1.0000
  C   C100      1.0  0.12685  0.58205  0.43376  1.0000
  H   H131      1.0  0.05317  0.49947  0.30991  1.0000
  C   C101      1.0  0.08886  0.60126  0.44769  1.0000
  H   H132      1.0  0.07416  0.60889  0.45315  1.0000
  C   C102      1.0  0.23268  0.50542  0.29759  1.0000
  C   C103      1.0  0.20168  0.67749  0.45324  1.0000
  H   H133      1.0  0.08141  0.57510  0.38943  1.0000
  S   S27       1.0  0.10762  0.52569  0.34791  1.0000
  H   H134      1.0  0.20732  0.68661  0.41163  1.0000
  H   H135      1.0  0.20587  0.65860  0.41712  1.0000
  H   H136      1.0  0.19229  0.66303  0.45208  1.0000
  H   H137      1.0  0.07708  0.55273  0.40750  1.0000
  H   H138      1.0  0.12400  0.56179  0.37384  1.0000
  C   C104      1.0  0.04477  0.51467  0.35661  1.0000
  C   C105      1.0  0.07214  0.65696  0.49351  1.0000
  H   H139      1.0  0.10733  0.61629  0.47054  1.0000
  H   H140      1.0  0.14191  0.57504  0.42895  1.0000
  S   S28       1.0  0.02931  0.65316  0.48954  1.0000
  C   C106      1.0  0.23380  0.65708  0.44826  1.0000
  H   H141      1.0  0.14107  0.59939  0.45810  1.0000
  H   H142      1.0  0.22413  0.64264  0.44864  1.0000
  C   C107      1.0  0.10753  0.60547  0.45756  1.0000
  H   H143      1.0  0.08975  0.54909  0.38231  1.0000
  H   H144      1.0  0.10828  0.53526  0.42528  1.0000
  C   C108      1.0  0.21609  0.67258  0.41827  1.0000
  H   H145      1.0  0.11797  0.53065  0.39873  1.0000
  H   H146      1.0  0.14006  0.57271  0.39302  1.0000
  N   N9        1.0  0.10926  0.56315  0.40507  1.0000
  C   C109      1.0  0.11784  0.54205  0.41184  1.0000
  C   C110      1.0  0.08840  0.55999  0.39581  1.0000
  C   C111      1.0  0.12346  0.57184  0.38805  1.0000
  C   C112      1.0  0.10822  0.57751  0.42318  1.0000
  Fe  Fe14      1.0  0.14006  0.51030  0.35348  1.0000
  C   C113      1.0  0.08343  0.51258  0.35279  1.0000
  C   C114      1.0  0.03098  0.52486  0.30314  1.0000
  H   H147      1.0  0.20473  0.67931  0.47029  1.0000
  H   H148      1.0  0.19941  0.54088  0.49288  1.0000
  C   C115      1.0  0.23514  0.51415  0.16311  1.0000
  H   H149      1.0  0.19529  0.50679  0.47653  1.0000
  C   C116      1.0  0.19594  0.50702  0.49356  1.0000
  C   C117      1.0  0.01007  0.53040  0.29888  1.0000
  H   H150      1.0  0.23907  0.65935  0.46456  1.0000
  H   H151      1.0  0.23614  0.74384  0.46357  1.0000
  H   H152      1.0  0.23791  0.52671  0.15081  1.0000
  C   C118      1.0  0.03697  0.50368  0.30609  1.0000
  C   C119      1.0  0.22817  0.71307  0.45308  1.0000
  S   S29       1.0  0.16453  0.65573  0.48916  1.0000
  C   C120      1.0  0.24107  0.73052  0.45398  1.0000
  H   H153      1.0  0.24385  0.49729  0.20060  1.0000
  H   H154      1.0  0.00774  0.65404  0.57842  1.0000
  H   H155      1.0  0.08073  0.65018  0.56027  1.0000
  H   H156      1.0  0.05214  0.65234  0.54103  1.0000
  H   H157      1.0  0.16554  0.56011  0.55058  1.0000
  H   H158      1.0  0.04436  0.61468  0.51131  1.0000
  C   C121      1.0  0.07730  0.61952  0.51719  1.0000
  C   C122      1.0  0.13744  0.58873  0.56534  1.0000
  H   H159      1.0  0.15107  0.59541  0.55605  1.0000
  C   C123      1.0  0.09208  0.65124  0.50148  1.0000
  H   H160      1.0  0.06132  0.57049  0.58006  1.0000
  Fe  Fe15      1.0  0.17873  0.52223  0.63855  1.0000
  S   S30       1.0  0.17490  0.55695  0.62990  1.0000
  S   S31       1.0  0.16906  0.51061  0.67128  1.0000
  Fe  Fe16      1.0  0.15157  0.63443  0.51520  1.0000
  H   H161      1.0  0.15767  0.55327  0.57697  1.0000
  S   S32       1.0  0.11822  0.62660  0.52713  1.0000
  H   H162      1.0  0.07522  0.53494  0.64314  1.0000
  C   C124      1.0  0.19820  0.52663  0.50272  1.0000
  C   C125      1.0  0.09460  0.63274  0.51382  1.0000
  Fe  Fe17      1.0  0.19497  0.61385  0.52300  1.0000
  S   S33       1.0  0.21149  0.58658  0.54004  1.0000
  S   S34       1.0  0.17755  0.64162  0.53722  1.0000
  C   C126      1.0  0.07863  0.54508  0.59535  1.0000
  H   H163      1.0  0.06502  0.53966  0.60466  1.0000
  C   C127      1.0  0.23039  0.70566  0.50851  1.0000
  C   C128      1.0  0.18669  0.56559  0.60576  1.0000
  C   C129      1.0  0.18214  0.58616  0.59805  1.0000
  C   C130      1.0  0.18988  0.59288  0.57800  1.0000
  C   C131      1.0  0.20264  0.57921  0.56578  1.0000
  C   C132      1.0  0.20791  0.55893  0.57388  1.0000
  C   C133      1.0  0.19969  0.55201  0.59367  1.0000
  H   H164      1.0  0.17232  0.59681  0.60749  1.0000
  H   H165      1.0  0.18609  0.60867  0.57208  1.0000
  H   H166      1.0  0.21820  0.54844  0.56476  1.0000
  H   H167      1.0  0.20344  0.53619  0.59958  1.0000
  H   H168      1.0  0.01650  0.63483  0.59706  1.0000
  H   H169      1.0  0.07912  0.60509  0.52656  1.0000
  H   H170      1.0  0.14130  0.58853  0.58233  1.0000
  C   C134      1.0  0.15215  0.55381  0.56050  1.0000
  H   H171      1.0  0.14973  0.53737  0.55554  1.0000
  H   H172      1.0  0.14159  0.57322  0.52571  1.0000
  H   H173      1.0  0.12397  0.60009  0.56320  1.0000
  C   C135      1.0  0.09497  0.50822  0.65271  1.0000
  C   C136      1.0  0.07658  0.56244  0.58149  1.0000
  C   C137      1.0  0.09828  0.53489  0.59749  1.0000
  N   N10       1.0  0.13265  0.56727  0.55848  1.0000
  C   C138      1.0  0.12767  0.56846  0.53575  1.0000
  S   S35       1.0  0.20555  0.69368  0.51436  1.0000
  S   S36       1.0  0.03226  0.52177  0.64613  1.0000
  H   H174      1.0  0.12253  0.55294  0.53030  1.0000
  H   H175      1.0  0.11507  0.58051  0.53221  1.0000
  H   H176      1.0  0.07463  0.59902  0.62067  1.0000
  C   C139      1.0  0.05465  0.64413  0.49755  1.0000
  S   S37       1.0  0.16837  0.60543  0.50284  1.0000
  C   C140      1.0  0.09414  0.56961  0.56968  1.0000
  N   N11       1.0  0.03834  0.63990  0.57032  1.0000
  H   H177      1.0  0.09189  0.58345  0.55951  1.0000
  C   C141      1.0  0.19935  0.52799  0.52451  1.0000
  H   H178      1.0  0.04817  0.67140  0.56152  1.0000
  C   C142      1.0  0.11433  0.55936  0.57120  1.0000
  H   H179      1.0  0.02856  0.66028  0.59571  1.0000
  C   C143      1.0  0.05723  0.61776  0.59780  1.0000
  H   H180      1.0  0.02434  0.60914  0.57084  1.0000
  C   C144      1.0  0.11594  0.54188  0.58573  1.0000
  H   H181      1.0  0.13071  0.53345  0.58856  1.0000
  C   C145      1.0  0.05799  0.63278  0.58073  1.0000
  H   H182      1.0  0.04180  0.61445  0.54868  1.0000
  C   C146      1.0  0.07547  0.51867  0.64880  1.0000
  C   C147      1.0  0.02223  0.64760  0.58613  1.0000
  H   H183      1.0  0.17184  0.55253  0.72324  1.0000
  H   H184      1.0  0.01585  0.62672  0.55016  1.0000
  Fe  Fe18      1.0  0.00182  0.50443  0.64152  1.0000
  H   H185      1.0  0.19936  0.51086  0.55430  1.0000
  C   C148      1.0  0.09662  0.63192  0.58348  1.0000
  C   C149      1.0  0.02976  0.62177  0.55954  1.0000
  C   C150      1.0  0.07835  0.63939  0.57360  1.0000
  Fe  Fe19      1.0  0.99842  0.63824  0.50060  1.0000
  H   H186      1.0  0.04241  0.61140  0.60359  1.0000
  C   C151      1.0  0.17577  0.53653  0.72862  1.0000
  H   H187      1.0  0.10949  0.61183  0.60811  1.0000
  C   C152      1.0  0.09527  0.61755  0.60049  1.0000
  H   H188      1.0  0.10959  0.51640  0.64986  1.0000
  C   C153      1.0  0.04151  0.65731  0.55438  1.0000
  C   C154      1.0  0.19481  0.53229  0.73848  1.0000
  C   C155      1.0  0.07561  0.61041  0.60758  1.0000
  Fe  Fe20      1.0  0.19234  0.66061  0.50995  1.0000
  H   H189      1.0  0.20566  0.54490  0.74073  1.0000
  H   H190      1.0  0.21988  0.73551  0.52136  1.0000
  C   C156      1.0  0.00354  0.50572  0.50169  1.0000
  H   H191      1.0  0.11196  0.63726  0.57770  1.0000
  C   C157      1.0  0.23292  0.72692  0.51373  1.0000
  C   C158      1.0  0.24303  0.50934  0.70980  1.0000
  H   H192      1.0  0.10523  0.66162  0.49883  1.0000
  H   H193      1.0  0.99934  0.57703  0.59430  1.0000
  C   C159      1.0  0.05632  0.50821  0.65213  1.0000
  H   H194      1.0  0.09993  0.52159  0.60854  1.0000
  H   H195      1.0  0.12347  0.49881  0.72721  1.0000
  C   C160      1.0  0.05753  0.62498  0.50874  1.0000
  S   S38       1.0  0.15909  0.49937  0.62197  1.0000
  H   H196      1.0  0.20140  0.54322  0.53140  1.0000
  H   H197      1.0  0.14766  0.52461  0.71729  1.0000
  H   H198      1.0  0.23642  0.51904  0.69720  1.0000
  C   C161      1.0  0.20013  0.51173  0.74508  1.0000
  C   C162      1.0  0.16198  0.52019  0.72526  1.0000
  H   H199      1.0  0.21519  0.50844  0.75235  1.0000
  S   S39       1.0  0.20875  0.50230  0.63711  1.0000
  H   H200      1.0  0.02643  0.66255  0.54700  1.0000
  H   H201      1.0  0.23939  0.69414  0.55243  1.0000
  S   S40       1.0  0.99752  0.60585  0.51573  1.0000
  C   C163      1.0  0.16709  0.49893  0.73152  1.0000
  S   S41       1.0  0.21152  0.63304  0.49730  1.0000
  H   H202      1.0  0.01452  0.50559  0.51495  1.0000
  C   C164      1.0  0.19821  0.50977  0.53730  1.0000
  H   H203      1.0  0.41801  0.03019  0.35312  1.0000
  H   H204      1.0  0.28344  0.46012  0.09897  1.0000
  Fe  Fe21      1.0  0.48870  0.01264  0.35549  1.0000
  C   C165      1.0  0.37441  0.10597  0.44776  1.0000
  H   H205      1.0  0.33743  0.23668  0.42976  1.0000
  H   H206      1.0  0.33799  0.42401  0.03845  1.0000
  H   H207      1.0  0.45862  0.02778  0.29118  1.0000
  C   C166      1.0  0.42280  0.27016  0.32439  1.0000
  H   H208      1.0  0.27208  0.25188  0.46357  1.0000
  H   H209      1.0  0.25475  0.43419  0.32001  1.0000
  C   C167      1.0  0.41825  0.00404  0.31932  1.0000
  C   C168      1.0  0.32742  0.28432  0.46607  1.0000
  C   C169      1.0  0.40421  0.42848  0.02910  1.0000
  C   C170      1.0  0.44421  0.05750  0.31411  1.0000
  S   S42       1.0  0.47147  0.01464  0.38657  1.0000
  H   H210      1.0  0.37279  0.11641  0.48902  1.0000
  H   H211      1.0  0.39631  0.24199  0.34210  1.0000
  H   H212      1.0  0.34212  0.12799  0.46934  1.0000
  H   H213      1.0  0.28146  0.23412  0.41012  1.0000
  H   H214      1.0  0.44598  0.03217  0.34932  1.0000
  N   N12       1.0  0.29503  0.24340  0.43910  1.0000
  C   C171      1.0  0.32825  0.48049  0.12026  1.0000
  C   C172      1.0  0.24982  0.48801  0.18681  1.0000
  H   H215      1.0  0.46726  0.32982  0.06743  1.0000
  Fe  Fe22      1.0  0.46333  0.20871  0.38026  1.0000
  S   S43       1.0  0.44267  0.22709  0.40371  1.0000
  S   S44       1.0  0.45238  0.19545  0.35023  1.0000
  Fe  Fe23      1.0  0.34543  0.19708  0.47302  1.0000
  H   H216      1.0  0.47444  0.27392  0.24047  1.0000
  C   C173      1.0  0.47624  0.27273  0.25737  1.0000
  Fe  Fe24      1.0  0.47824  0.33841  0.17625  1.0000
  C   C174      1.0  0.48438  0.42943  0.08220  1.0000
  S   S45       1.0  0.46767  0.32595  0.14508  1.0000
  Fe  Fe25      1.0  0.46785  0.37687  0.20243  1.0000
  S   S46       1.0  0.45351  0.40995  0.19856  1.0000
  S   S47       1.0  0.45264  0.34539  0.20106  1.0000
  Fe  Fe26      1.0  0.34227  0.46213  0.20441  1.0000
  S   S48       1.0  0.35456  0.42814  0.20416  1.0000
  S   S49       1.0  0.31035  0.47128  0.19208  1.0000
  C   C175      1.0  0.38283  0.12601  0.47796  1.0000
  S   S50       1.0  0.35449  0.19321  0.43848  1.0000
  C   C176      1.0  0.38827  0.07880  0.42355  1.0000
  H   H217      1.0  0.40030  0.27612  0.36189  1.0000
  H   H218      1.0  0.49093  0.02407  0.48384  1.0000
  H   H219      1.0  0.44206  0.07300  0.32197  1.0000
  H   H220      1.0  0.40290  0.48146  0.21548  1.0000
  C   C177      1.0  0.42589  0.41405  0.19898  1.0000
  C   C178      1.0  0.41222  0.39861  0.20693  1.0000
  C   C179      1.0  0.39031  0.40300  0.20816  1.0000
  C   C180      1.0  0.38203  0.42291  0.20179  1.0000
  C   C181      1.0  0.39572  0.43816  0.19343  1.0000
  C   C182      1.0  0.41755  0.43363  0.19182  1.0000
  H   H221      1.0  0.41852  0.38346  0.21249  1.0000
  H   H222      1.0  0.37976  0.39111  0.21453  1.0000
  H   H223      1.0  0.38945  0.45335  0.18806  1.0000
  H   H224      1.0  0.42805  0.44546  0.18528  1.0000
  C   C183      1.0  0.41901  0.21617  0.41396  1.0000
  C   C184      1.0  0.40812  0.20157  0.40265  1.0000
  C   C185      1.0  0.38836  0.19456  0.41035  1.0000
  C   C186      1.0  0.37969  0.20161  0.42968  1.0000
  C   C187      1.0  0.39094  0.21560  0.44136  1.0000
  C   C188      1.0  0.41036  0.22315  0.43333  1.0000
  H   H225      1.0  0.41467  0.19604  0.38774  1.0000
  H   H226      1.0  0.37976  0.18368  0.40127  1.0000
  H   H227      1.0  0.38446  0.22100  0.45636  1.0000
  H   H228      1.0  0.41872  0.23443  0.44216  1.0000
  Fe  Fe27      1.0  0.47630  0.33328  0.22500  1.0000
  C   C189      1.0  0.41944  0.48701  0.21542  1.0000
  Fe  Fe28      1.0  0.34055  0.48733  0.02754  1.0000
  C   C190      1.0  0.42683  0.27025  0.28569  1.0000
  S   S51       1.0  0.31567  0.18199  0.48537  1.0000
  C   C191      1.0  0.42765  0.25960  0.30527  1.0000
  C   C192      1.0  0.35114  0.26131  0.44616  1.0000
  H   H229      1.0  0.47724  0.30312  0.30051  1.0000
  S   S52       1.0  0.27126  0.48641  0.23687  1.0000
  C   C193      1.0  0.41721  0.27123  0.36337  1.0000
  H   H230      1.0  0.44895  0.09200  0.37629  1.0000
  H   H231      1.0  0.46510  0.05677  0.36889  1.0000
  C   C194      1.0  0.47997  0.25054  0.28967  1.0000
  C   C195      1.0  0.34788  0.27827  0.45952  1.0000
  H   H232      1.0  0.24837  0.46952  0.40582  1.0000
  H   H233      1.0  0.38180  0.14449  0.42727  1.0000
  C   C196      1.0  0.26657  0.46775  0.14988  1.0000
  H   H234      1.0  0.30953  0.23374  0.40931  1.0000
  C   C197      1.0  0.45239  0.48718  0.23399  1.0000
  H   H235      1.0  0.32952  0.47107  0.13469  1.0000
  C   C198      1.0  0.32988  0.47072  0.10050  1.0000
  S   S53       1.0  0.48911  0.36594  0.22837  1.0000
  H   H236      1.0  0.29475  0.27884  0.46526  1.0000
  H   H237      1.0  0.38657  0.15869  0.45043  1.0000
  H   H238      1.0  0.26462  0.45818  0.16414  1.0000
  H   H239      1.0  0.33242  0.45377  0.09988  1.0000
  C   C199      1.0  0.40485  0.45060  0.02844  1.0000
  C   C200      1.0  0.46250  0.09069  0.36550  1.0000
  S   S54       1.0  0.45795  0.13374  0.36123  1.0000
  C   C201      1.0  0.43054  0.03986  0.34535  1.0000
  H   H240      1.0  0.29514  0.25867  0.40839  1.0000
  N   N13       1.0  0.37437  0.12746  0.45645  1.0000
  C   C202      1.0  0.40808  0.48850  0.07233  1.0000
  H   H241      1.0  0.42674  0.28547  0.36536  1.0000
  C   C203      1.0  0.46968  0.47273  0.23750  1.0000
  C   C204      1.0  0.47822  0.33372  0.11977  1.0000
  C   C205      1.0  0.46781  0.32806  0.10160  1.0000
  C   C206      1.0  0.47536  0.33441  0.08126  1.0000
  H   H242      1.0  0.45380  0.31872  0.10325  1.0000
  H   H243      1.0  0.32493  0.29734  0.47673  1.0000
  H   H244      1.0  0.26085  0.24262  0.44051  1.0000
  C   C207      1.0  0.43152  0.02084  0.31268  1.0000
  S   S55       1.0  0.48160  0.22457  0.30168  1.0000
  C   C208      1.0  0.31729  0.43575  0.01449  1.0000
  C   C209      1.0  0.47559  0.29113  0.26915  1.0000
  C   C210      1.0  0.35249  0.13658  0.45775  1.0000
  C   C211      1.0  0.40720  0.05073  0.31757  1.0000
  H   H245      1.0  0.39878  0.07420  0.41050  1.0000
  C   C212      1.0  0.43391  0.44894  0.00269  1.0000
  S   S56       1.0  0.47033  0.31682  0.25760  1.0000
  S   S57       1.0  0.41622  0.38903  0.01602  1.0000
  N   N14       1.0  0.42504  0.25881  0.34499  1.0000
  H   H246      1.0  0.41073  0.45312  0.23846  1.0000
  H   H247      1.0  0.35093  0.09384  0.47063  1.0000
  S   S58       1.0  0.32838  0.46977  0.05711  1.0000
  H   H248      1.0  0.37580  0.04765  0.42810  1.0000
  H   H249      1.0  0.41369  0.30157  0.33625  1.0000
  C   C213      1.0  0.48481  0.44340  0.06468  1.0000
  H   H250      1.0  0.29407  0.08683  0.48599  1.0000
  C   C214      1.0  0.32793  0.48270  0.08161  1.0000
  H   H251      1.0  0.39448  0.04091  0.32483  1.0000
  C   C215      1.0  0.31288  0.25590  0.44586  1.0000
  H   H252      1.0  0.40481  0.05173  0.30025  1.0000
  H   H253      1.0  0.49238  0.44996  0.19726  1.0000
  H   H254      1.0  0.40468  0.06691  0.32385  1.0000
  C   C216      1.0  0.41939  0.46086  0.01490  1.0000
  H   H255      1.0  0.27127  0.26865  0.44004  1.0000
  Fe  Fe29      1.0  0.48778  0.35656  0.02250  1.0000
  H   H256      1.0  0.40193  0.48696  0.25461  1.0000
  Fe  Fe30      1.0  0.44712  0.37457  0.00460  1.0000
  H   H257      1.0  0.43620  0.44852  0.22620  1.0000
  H   H258      1.0  0.42197  0.30013  0.26936  1.0000
  C   C217      1.0  0.27732  0.46828  0.11282  1.0000
  H   H259      1.0  0.41310  0.31946  0.30190  1.0000
  C   C218      1.0  0.42761  0.45764  0.23872  1.0000
  C   C219      1.0  0.27396  0.25214  0.44606  1.0000
  H   H260      1.0  0.39258  0.42063  0.03920  1.0000
  H   H261      1.0  0.41582  0.47321  0.06996  1.0000
  S   S59       1.0  0.49193  0.22404  0.36489  1.0000
  H   H262      1.0  0.42944  0.05550  0.35298  1.0000
  H   H263      1.0  0.49519  0.12126  0.33492  1.0000
  C   C220      1.0  0.39211  0.00162  0.44115  1.0000
  C   C221      1.0  0.41325  0.23887  0.34551  1.0000
  C   C222      1.0  0.44769  0.25360  0.34793  1.0000
  N   N15       1.0  0.42856  0.04192  0.32213  1.0000
  C   C223      1.0  0.35071  0.41743  0.00720  1.0000
  H   H264      1.0  0.25670  0.48896  0.37228  1.0000
  H   H265      1.0  0.41403  0.23051  0.36122  1.0000
  H   H266      1.0  0.41977  0.22733  0.33394  1.0000
  H   H267      1.0  0.45718  0.26811  0.34745  1.0000
  H   H268      1.0  0.45026  0.24537  0.36337  1.0000
  H   H269      1.0  0.45444  0.24307  0.33549  1.0000
  H   H270      1.0  0.43309  0.24323  0.30527  1.0000
  N   N16       1.0  0.42595  0.38308  0.13591  1.0000
  C   C224      1.0  0.44545  0.38435  0.14805  1.0000
  C   C225      1.0  0.40874  0.39455  0.14782  1.0000
  C   C226      1.0  0.42015  0.36058  0.13521  1.0000
  C   C227      1.0  0.42970  0.39149  0.11408  1.0000
  C   C228      1.0  0.44608  0.38255  0.10101  1.0000
  C   C229      1.0  0.41701  0.40802  0.10488  1.0000
  C   C230      1.0  0.44925  0.38919  0.07996  1.0000
  C   C231      1.0  0.42045  0.41472  0.08382  1.0000
  C   C232      1.0  0.43646  0.40523  0.07138  1.0000
  H   H271      1.0  0.45102  0.40085  0.14824  1.0000
  H   H272      1.0  0.44284  0.37898  0.16480  1.0000
  H   H273      1.0  0.45859  0.37406  0.14170  1.0000
  H   H274      1.0  0.41234  0.41151  0.14952  1.0000
  H   H275      1.0  0.40645  0.38783  0.16415  1.0000
  H   H276      1.0  0.39325  0.39338  0.14025  1.0000
  H   H277      1.0  0.43281  0.35056  0.12762  1.0000
  H   H278      1.0  0.41740  0.35352  0.15134  1.0000
  H   H279      1.0  0.40561  0.35879  0.12614  1.0000
  H   H280      1.0  0.45632  0.36999  0.10685  1.0000
  H   H281      1.0  0.40414  0.41581  0.11350  1.0000
  H   H282      1.0  0.46156  0.38164  0.07016  1.0000
  H   H283      1.0  0.41038  0.42703  0.07691  1.0000
  H   H284      1.0  0.43888  0.41011  0.05497  1.0000
  H   H285      1.0  0.41849  0.26184  0.37849  1.0000
  C   C233      1.0  0.38789  0.09962  0.43052  1.0000
  C   C234      1.0  0.41829  0.41655  0.01639  1.0000
  H   H286      1.0  0.39363  0.45974  0.03799  1.0000
  S   S60       1.0  0.47563  0.38967  0.01632  1.0000
  C   C235      1.0  0.41678  0.30263  0.30295  1.0000
  H   H287      1.0  0.48222  0.26783  0.31815  1.0000
  C   C236      1.0  0.41880  0.49152  0.25305  1.0000
  C   C237      1.0  0.30859  0.08806  0.49432  1.0000
  Fe  Fe31      1.0  0.48211  0.20898  0.33513  1.0000
  S   S61       1.0  0.41806  0.48846  0.01173  1.0000
  C   C238      1.0  0.37533  0.06380  0.43343  1.0000
  H   H288      1.0  0.36127  0.28652  0.46508  1.0000
  C   C239      1.0  0.36185  0.06956  0.45025  1.0000
  H   H289      1.0  0.46825  0.46888  0.03202  1.0000
  C   C240      1.0  0.44755  0.01620  0.29706  1.0000
  C   C241      1.0  0.42163  0.29175  0.28454  1.0000
  H   H290      1.0  0.43351  0.45207  0.25430  1.0000
  C   C242      1.0  0.41405  0.99609  0.40952  1.0000
  H   H291      1.0  0.43121  0.26197  0.27136  1.0000
  C   C243      1.0  0.41727  0.29208  0.32265  1.0000
  C   C244      1.0  0.47156  0.07064  0.36120  1.0000
  C   C245      1.0  0.29534  0.24248  0.41573  1.0000
  C   C246      1.0  0.38741  0.14258  0.44369  1.0000
  C   C247      1.0  0.48867  0.06862  0.34678  1.0000
  C   C248      1.0  0.36141  0.09027  0.45735  1.0000
  C   C249      1.0  0.29716  0.22160  0.44808  1.0000
  Fe  Fe32      1.0  0.47225  0.16647  0.35898  1.0000
  C   C250      1.0  0.48857  0.10722  0.34230  1.0000
  H   H292      1.0  0.39840  0.11037  0.42221  1.0000
  C   C251      1.0  0.47089  0.10909  0.35606  1.0000
  C   C252      1.0  0.43334  0.42678  0.00340  1.0000
  C   C253      1.0  0.48023  0.26899  0.30132  1.0000
  H   H293      1.0  0.35214  0.15320  0.46304  1.0000
  H   H294      1.0  0.45446  0.01125  0.48703  1.0000
  H   H295      1.0  0.36492  0.41034  0.01360  1.0000
  H   H296      1.0  0.40444  0.13771  0.44319  1.0000
  H   H297      1.0  0.28368  0.21173  0.44415  1.0000
  H   H298      1.0  0.36710  0.25637  0.44137  1.0000
  H   H299      1.0  0.37707  0.00602  0.44840  1.0000
  H   H300      1.0  0.49235  0.12004  0.39468  1.0000
  C   C254      1.0  0.48520  0.47282  0.02956  1.0000
  H   H301      1.0  0.47551  0.43639  0.01234  1.0000
  S   S62       1.0  0.35854  0.48928  0.18807  1.0000
  S   S63       1.0  0.45828  0.34135  0.01238  1.0000
  C   C255      1.0  0.47772  0.28906  0.29118  1.0000
  H   H302      1.0  0.29762  0.22182  0.46559  1.0000
  H   H303      1.0  0.31185  0.21323  0.44235  1.0000
  H   H304      1.0  0.44037  0.21305  0.47709  1.0000
  S   S64       1.0  0.36283  0.47001  0.00526  1.0000
  C   C256      1.0  0.47821  0.25263  0.26759  1.0000
  C   C257      1.0  0.31010  0.27343  0.45935  1.0000
  H   H305      1.0  0.46066  0.05189  0.31725  1.0000
  C   C258      1.0  0.39004  0.49012  0.08544  1.0000
  H   H306      1.0  0.40593  0.00622  0.33137  1.0000
  C   C259      1.0  0.25714  0.49366  0.26075  1.0000
  C   C260      1.0  0.39441  0.00138  0.41904  1.0000
  S   S65       1.0  0.31210  0.04462  0.49110  1.0000
  C   C261      1.0  0.33396  0.25020  0.43948  1.0000
  H   H307      1.0  0.47813  0.23854  0.25832  1.0000
  H   H308      1.0  0.48587  0.48280  0.01483  1.0000
  C   C262      1.0  0.26248  0.48999  0.14931  1.0000
  H   H309      1.0  0.44294  0.06076  0.29686  1.0000
  H   H310      1.0  0.34504  0.13665  0.44212  1.0000
  C   C263      1.0  0.49055  0.47949  0.23664  1.0000
  H   H311      1.0  0.38363  0.14181  0.48505  1.0000
  S   S66       1.0  0.33595  0.47845  0.23508  1.0000
  S   S67       1.0  0.48092  0.17908  0.39019  1.0000
  H   H312      1.0  0.46758  0.45612  0.24102  1.0000
  C   C264      1.0  0.27388  0.45716  0.13184  1.0000
  H   H313      1.0  0.35175  0.05788  0.45799  1.0000
  C   C265      1.0  0.49189  0.44178  0.00952  1.0000
  C   C266      1.0  0.47401  0.21411  0.48064  1.0000
  S   S68       1.0  0.49217  0.37037  0.17669  1.0000
  C   C267      1.0  0.33542  0.42528  0.02162  1.0000
  N   N17       1.0  0.43005  0.48077  0.23527  1.0000
  H   H314      1.0  0.39901  0.11865  0.47778  1.0000
  H   H315      1.0  0.26415  0.47923  0.19239  1.0000
  S   S69       1.0  0.33971  0.22705  0.49072  1.0000
  H   H316      1.0  0.47756  0.21289  0.46382  1.0000
  H   H317      1.0  0.49012  0.48288  0.04254  1.0000
  H   H318      1.0  0.38098  0.00508  0.40937  1.0000
  H   H319      1.0  0.47363  0.43248  0.09552  1.0000
  H   H320      1.0  0.42641  0.48764  0.26828  1.0000
  H   H321      1.0  0.47421  0.45705  0.06543  1.0000
  H   H322      1.0  0.42813  0.48037  0.20145  1.0000
  H   H323      1.0  0.27727  0.44028  0.13269  1.0000
  H   H324      1.0  0.38365  0.47616  0.09330  1.0000
  H   H325      1.0  0.30583  0.44239  0.02577  1.0000
  C   C268      1.0  0.24840  0.47424  0.37210  1.0000
  Fe  Fe33      1.0  0.30490  0.48994  0.22188  1.0000
  C   C269      1.0  0.45304  0.21417  0.48806  1.0000
  C   C270      1.0  0.27371  0.49007  0.11179  1.0000
  C   C271      1.0  0.49379  0.34599  0.07883  1.0000
  C   C272      1.0  0.49042  0.21576  0.49468  1.0000
  C   C273      1.0  0.40933  0.99624  0.45370  1.0000
  Fe  Fe34      1.0  0.47303  0.34257  0.97922  1.0000
  S   S70       1.0  0.45872  0.37429  0.97082  1.0000
  H   H326      1.0  0.33245  0.43223  0.71835  1.0000
  Fe  Fe35      1.0  0.46829  0.02185  0.65488  1.0000
  C   C274      1.0  0.35859  0.41240  0.94780  1.0000
  S   S71       1.0  0.46628  0.05180  0.67407  1.0000
  C   C275      1.0  0.47326  0.33571  0.91580  1.0000
  C   C276      1.0  0.30371  0.04069  0.58498  1.0000
  C   C277      1.0  0.37314  0.07557  0.57504  1.0000
  N   N18       1.0  0.31216  0.04962  0.56465  1.0000
  S   S72       1.0  0.43966  0.00530  0.64425  1.0000
  H   H327      1.0  0.47443  0.12865  0.67834  1.0000
  S   S73       1.0  0.35935  0.01446  0.51642  1.0000
  H   H328      1.0  0.48195  0.27778  0.76330  1.0000
  H   H329      1.0  0.40123  0.15620  0.61434  1.0000
  H   H330      1.0  0.46844  0.35024  0.92340  1.0000
  H   H331      1.0  0.26684  0.47496  0.75546  1.0000
  Fe  Fe36      1.0  0.33534  0.16818  0.51139  1.0000
  C   C278      1.0  0.48166  0.31616  0.88357  1.0000
  S   S74       1.0  0.34101  0.13386  0.52274  1.0000
  Fe  Fe37      1.0  0.35748  0.21003  0.51679  1.0000
  S   S75       1.0  0.38579  0.22460  0.53113  1.0000
  S   S76       1.0  0.32846  0.19604  0.53249  1.0000
  Fe  Fe38      1.0  0.34908  0.47967  0.79170  1.0000
  S   S77       1.0  0.31423  0.47542  0.79828  1.0000
  S   S78       1.0  0.37039  0.45611  0.77412  1.0000
  Fe  Fe39      1.0  0.44184  0.36159  0.80862  1.0000
  S   S79       1.0  0.45012  0.32680  0.80683  1.0000
  S   S80       1.0  0.41000  0.37473  0.82027  1.0000
  Fe  Fe40      1.0  0.47711  0.33430  0.82735  1.0000
  C   C279      1.0  0.32090  0.06966  0.49868  1.0000
  Fe  Fe41      1.0  0.47187  0.33563  0.77926  1.0000
  C   C280      1.0  0.43642  0.44950  0.76729  1.0000
  S   S81       1.0  0.46730  0.36806  0.83091  1.0000
  S   S82       1.0  0.46151  0.37033  0.77986  1.0000
  Fe  Fe42      1.0  0.47520  0.21571  0.67061  1.0000
  S   S83       1.0  0.46342  0.23331  0.64172  1.0000
  C   C281      1.0  0.33965  0.07158  0.50938  1.0000
  H   H332      1.0  0.37880  0.44303  0.96637  1.0000
  H   H333      1.0  0.44402  0.41767  0.99326  1.0000
  H   H334      1.0  0.31412  0.02767  0.59127  1.0000
  Fe  Fe43      1.0  0.44727  0.20322  0.63451  1.0000
  S   S84       1.0  0.41434  0.19763  0.62350  1.0000
  S   S85       1.0  0.45666  0.18637  0.66472  1.0000
  C   C282      1.0  0.47252  0.29502  0.73531  1.0000
  N   N19       1.0  0.32473  0.46523  0.72402  1.0000
  H   H335      1.0  0.38337  0.04337  0.58137  1.0000
  C   C283      1.0  0.47587  0.25500  0.71533  1.0000
  H   H336      1.0  0.44149  0.42171  0.80044  1.0000
  H   H337      1.0  0.48447  0.06614  0.63324  1.0000
  C   C284      1.0  0.27394  0.47116  0.68027  1.0000
  C   C285      1.0  0.44390  0.47531  0.79313  1.0000
  H   H338      1.0  0.48459  0.24042  0.55303  1.0000
  H   H339      1.0  0.46009  0.21860  0.54033  1.0000
  C   C286      1.0  0.38036  0.43308  0.78707  1.0000
  C   C287      1.0  0.37603  0.42896  0.80853  1.0000
  C   C288      1.0  0.38503  0.41087  0.81852  1.0000
  C   C289      1.0  0.39877  0.39711  0.80723  1.0000
  C   C290      1.0  0.40309  0.40126  0.78577  1.0000
  C   C291      1.0  0.39363  0.41899  0.77567  1.0000
  H   H340      1.0  0.36574  0.43966  0.81743  1.0000
  H   H341      1.0  0.38150  0.40765  0.83509  1.0000
  H   H342      1.0  0.41337  0.39054  0.77687  1.0000
  H   H343      1.0  0.39677  0.42191  0.75898  1.0000
  Fe  Fe44      1.0  0.34843  0.48848  0.97839  1.0000
  S   S86       1.0  0.36534  0.18159  0.49763  1.0000
  H   H344      1.0  0.29890  0.02623  0.54503  1.0000
  H   H345      1.0  0.38851  0.08192  0.57749  1.0000
  C   C292      1.0  0.39396  0.21623  0.55651  1.0000
  C   C293      1.0  0.41329  0.22300  0.56373  1.0000
  C   C294      1.0  0.41999  0.21703  0.58406  1.0000
  C   C295      1.0  0.40714  0.20460  0.59746  1.0000
  C   C296      1.0  0.38788  0.19773  0.59019  1.0000
  C   C297      1.0  0.38140  0.20334  0.56973  1.0000
  H   H346      1.0  0.42295  0.23318  0.55368  1.0000
  H   H347      1.0  0.43476  0.22255  0.58958  1.0000
  H   H348      1.0  0.37775  0.18829  0.60052  1.0000
  H   H349      1.0  0.36643  0.19816  0.56438  1.0000
  C   C298      1.0  0.30549  0.48882  0.90329  1.0000
  C   C299      1.0  0.37022  0.05389  0.57720  1.0000
  C   C300      1.0  0.26050  0.48459  0.74270  1.0000
  H   H350      1.0  0.30663  0.44518  0.74571  1.0000
  H   H351      1.0  0.49045  0.28338  0.88883  1.0000
  C   C301      1.0  0.27761  0.27076  0.50681  1.0000
  C   C302      1.0  0.28581  0.48869  0.68416  1.0000
  H   H352      1.0  0.41920  0.45335  0.76874  1.0000
  H   H353      1.0  0.32375  0.01848  0.55536  1.0000
  S   S87       1.0  0.44392  0.01372  0.58091  1.0000
  C   C303      1.0  0.34565  0.09141  0.51617  1.0000
  C   C304      1.0  0.33317  0.10972  0.51224  1.0000
  H   H354      1.0  0.47687  0.48522  0.78994  1.0000
  H   H355      1.0  0.36012  0.09255  0.52456  1.0000
  C   C305      1.0  0.47540  0.33511  0.89344  1.0000
  H   H356      1.0  0.26066  0.47274  0.66992  1.0000
  Fe  Fe45      1.0  0.45649  0.00530  0.61263  1.0000
  H   H357      1.0  0.30193  0.07262  0.54112  1.0000
  C   C306      1.0  0.46952  0.27327  0.70395  1.0000
  H   H358      1.0  0.35532  0.42871  0.94149  1.0000
  H   H359      1.0  0.49298  0.02525  0.51216  1.0000
  C   C307      1.0  0.46807  0.29308  0.71381  1.0000
  H   H360      1.0  0.28785  0.03394  0.58328  1.0000
  H   H361      1.0  0.35860  0.10592  0.56756  1.0000
  H   H362      1.0  0.25897  0.33828  0.55853  1.0000
  S   S88       1.0  0.47450  0.19001  0.61523  1.0000
  H   H363      1.0  0.49493  0.25624  0.66864  1.0000
  C   C308      1.0  0.43847  0.43870  0.80404  1.0000
  C   C309      1.0  0.40459  0.00204  0.59567  1.0000
  C   C310      1.0  0.46062  0.48978  0.79358  1.0000
  C   C311      1.0  0.48616  0.21753  0.51678  1.0000
  C   C312      1.0  0.31444  0.03236  0.54930  1.0000
  C   C313      1.0  0.48557  0.29806  0.89615  1.0000
  S   S89       1.0  0.48563  0.31361  0.85582  1.0000
  C   C314      1.0  0.47640  0.11508  0.66837  1.0000
  C   C315      1.0  0.35628  0.08905  0.56961  1.0000
  N   N20       1.0  0.44730  0.45296  0.78717  1.0000
  Fe  Fe46      1.0  0.31095  0.21133  0.50503  1.0000
  C   C316      1.0  0.31683  0.48638  0.88398  1.0000
  Fe  Fe47      1.0  0.48790  0.37430  0.80211  1.0000
  C   C317      1.0  0.29626  0.06522  0.55637  1.0000
  H   H364      1.0  0.44557  0.44154  0.81947  1.0000
  H   H365      1.0  0.32237  0.03802  0.53442  1.0000
  C   C318      1.0  0.41161  0.00112  0.55795  1.0000
  C   C319      1.0  0.30750  0.46757  0.70884  1.0000
  H   H366      1.0  0.34618  0.45080  0.70125  1.0000
  H   H367      1.0  0.39691  0.42125  0.96083  1.0000
  Fe  Fe48      1.0  0.49176  0.21813  0.62499  1.0000
  C   C320      1.0  0.46460  0.21734  0.52379  1.0000
  H   H368      1.0  0.35020  0.48219  0.73691  1.0000
  C   C321      1.0  0.33698  0.47977  0.92290  1.0000
  C   C322      1.0  0.26768  0.29111  0.50595  1.0000
  H   H369      1.0  0.35878  0.37962  0.97695  1.0000
  H   H370      1.0  0.43351  0.04715  0.61197  1.0000
  C   C323      1.0  0.38329  0.42648  0.97117  1.0000
  H   H371      1.0  0.29760  0.43487  0.71240  1.0000
  C   C324      1.0  0.49495  0.01475  0.49839  1.0000
  C   C325      1.0  0.31553  0.48569  0.92268  1.0000
  C   C326      1.0  0.47000  0.09501  0.67591  1.0000
  H   H372      1.0  0.35344  0.44653  0.72831  1.0000
  C   C327      1.0  0.47838  0.27669  0.74682  1.0000
  H   H373      1.0  0.46291  0.09331  0.69162  1.0000
  H   H374      1.0  0.46351  0.30706  0.70468  1.0000
  C   C328      1.0  0.31471  0.10803  0.50098  1.0000
  H   H375      1.0  0.44289  0.45968  0.75415  1.0000
  S   S90       1.0  0.47940  0.22960  0.70349  1.0000
  H   H376      1.0  0.38415  0.38402  0.96398  1.0000
  H   H377      1.0  0.30648  0.48702  0.93739  1.0000
  H   H378      1.0  0.30487  0.12197  0.49790  1.0000
  S   S91       1.0  0.48349  0.02386  0.62271  1.0000
  C   C329      1.0  0.31568  0.45993  0.74530  1.0000
  H   H379      1.0  0.45589  0.01500  0.51464  1.0000
  H   H380      1.0  0.48852  0.38232  0.87213  1.0000
  H   H381      1.0  0.40954  0.47353  0.79749  1.0000
  H   H382      1.0  0.32430  0.09231  0.56157  1.0000
  H   H383      1.0  0.25614  0.40971  0.57163  1.0000
  Fe  Fe49      1.0  0.32973  0.01336  0.49853  1.0000
  C   C330      1.0  0.37233  0.39041  0.97573  1.0000
  H   H384      1.0  0.30477  0.47285  0.75094  1.0000
  H   H385      1.0  0.24677  0.32888  0.59549  1.0000
  C   C331      1.0  0.33645  0.08091  0.56615  1.0000
  H   H386      1.0  0.47747  0.45571  0.77036  1.0000
  N   N21       1.0  0.41578  0.31952  0.86968  1.0000
  C   C332      1.0  0.42665  0.33799  0.86002  1.0000
  C   C333      1.0  0.42502  0.30033  0.85947  1.0000
  C   C334      1.0  0.39313  0.32126  0.86452  1.0000
  C   C335      1.0  0.41787  0.31926  0.89288  1.0000
  C   C336      1.0  0.41036  0.33679  0.90481  1.0000
  C   C337      1.0  0.42722  0.30192  0.90429  1.0000
  C   C338      1.0  0.41250  0.33712  0.92668  1.0000
  C   C339      1.0  0.42893  0.30230  0.92620  1.0000
  C   C340      1.0  0.42180  0.31991  0.93733  1.0000
  H   H387      1.0  0.44375  0.33729  0.86337  1.0000
  H   H388      1.0  0.42527  0.33859  0.84262  1.0000
  H   H389      1.0  0.41990  0.35336  0.86549  1.0000
  H   H390      1.0  0.44227  0.29842  0.86224  1.0000
  H   H391      1.0  0.42352  0.30118  0.84200  1.0000
  H   H392      1.0  0.41702  0.28577  0.86524  1.0000
  H   H393      1.0  0.38554  0.33638  0.86976  1.0000
  H   H394      1.0  0.39097  0.32090  0.84715  1.0000
  H   H395      1.0  0.38416  0.30806  0.87211  1.0000
  H   H396      1.0  0.40306  0.35051  0.89723  1.0000
  H   H397      1.0  0.43387  0.28807  0.89668  1.0000
  H   H398      1.0  0.40727  0.35088  0.93542  1.0000
  H   H399      1.0  0.43680  0.28927  0.93457  1.0000
  H   H400      1.0  0.42409  0.32038  0.95419  1.0000
  N   N22       1.0  0.42434  0.13158  0.62177  1.0000
  C   C341      1.0  0.44214  0.14257  0.61086  1.0000
  C   C342      1.0  0.40432  0.13896  0.61214  1.0000
  C   C343      1.0  0.42352  0.13829  0.64408  1.0000
  C   C344      1.0  0.42709  0.10841  0.61947  1.0000
  C   C345      1.0  0.42752  0.09393  0.63703  1.0000
  C   C346      1.0  0.42893  0.09962  0.59907  1.0000
  C   C347      1.0  0.42958  0.07211  0.63420  1.0000
  C   C348      1.0  0.43131  0.07778  0.59647  1.0000
  C   C349      1.0  0.43159  0.06406  0.61401  1.0000
  H   H401      1.0  0.44065  0.15999  0.61282  1.0000
  H   H402      1.0  0.45757  0.13711  0.61731  1.0000
  H   H403      1.0  0.44292  0.14019  0.59359  1.0000
  H   H404      1.0  0.32648  0.43380  0.96188  1.0000
  H   H405      1.0  0.39059  0.13054  0.61939  1.0000
  H   H406      1.0  0.40450  0.13664  0.59483  1.0000
  H   H407      1.0  0.43836  0.13369  0.65215  1.0000
  H   H408      1.0  0.42168  0.15583  0.64519  1.0000
  H   H409      1.0  0.40983  0.13159  0.65316  1.0000
  H   H410      1.0  0.42657  0.09898  0.65317  1.0000
  H   H411      1.0  0.42857  0.10962  0.58499  1.0000
  H   H412      1.0  0.43004  0.06136  0.64784  1.0000
  H   H413      1.0  0.43300  0.07133  0.58080  1.0000
  C   C350      1.0  0.47318  0.07706  0.66347  1.0000
  H   H414      1.0  0.28876  0.49283  0.90321  1.0000
  C   C351      1.0  0.33840  0.48101  0.88425  1.0000
  Fe  Fe50      1.0  0.48484  0.17452  0.64557  1.0000
  H   H415      1.0  0.43809  0.43272  0.76247  1.0000
  S   S92       1.0  0.27720  0.22641  0.50586  1.0000
  Fe  Fe51      1.0  0.31955  0.49393  0.82764  1.0000
  S   S93       1.0  0.47193  0.32088  0.74632  1.0000
  H   H416      1.0  0.48602  0.28427  0.92751  1.0000
  H   H417      1.0  0.26870  0.43851  0.68789  1.0000
  C   C352      1.0  0.34819  0.41971  0.98506  1.0000
  H   H418      1.0  0.49232  0.45152  0.99461  1.0000
  H   H419      1.0  0.34423  0.40297  0.94619  1.0000
  C   C353      1.0  0.30225  0.48709  0.69833  1.0000
  C   C354      1.0  0.27846  0.45190  0.69050  1.0000
  H   H420      1.0  0.25466  0.37447  0.55781  1.0000
  H   H421      1.0  0.47908  0.44842  0.79814  1.0000
  N   N23       1.0  0.36517  0.41236  0.97008  1.0000
  C   C355      1.0  0.35043  0.04561  0.57390  1.0000
  H   H422      1.0  0.46571  0.27224  0.68755  1.0000
  H   H423      1.0  0.28108  0.05771  0.55315  1.0000
  C   C356      1.0  0.48917  0.09945  0.63585  1.0000
  H   H424      1.0  0.29238  0.07791  0.56779  1.0000
  H   H425      1.0  0.30223  0.05302  0.59717  1.0000
  C   C357      1.0  0.33297  0.05882  0.56799  1.0000
  H   H426      1.0  0.47182  0.42960  0.77952  1.0000
  H   H427      1.0  0.34893  0.02873  0.57601  1.0000
  H   H428      1.0  0.29457  0.26912  0.50812  1.0000
  H   H429      1.0  0.36483  0.47252  0.90362  1.0000
  S   S94       1.0  0.34956  0.47250  0.94664  1.0000
  H   H430      1.0  0.40962  0.00534  0.61129  1.0000
  C   C358      1.0  0.48017  0.25692  0.73686  1.0000
  H   H431      1.0  0.37124  0.40574  0.93709  1.0000
  H   H432      1.0  0.42213  0.00344  0.54433  1.0000
  C   C359      1.0  0.34832  0.47743  0.90361  1.0000
  C   C360      1.0  0.31432  0.43838  0.99291  1.0000
  C   C361      1.0  0.29499  0.45004  0.70455  1.0000
  Fe  Fe52      1.0  0.48853  0.38636  0.98326  1.0000
  H   H433      1.0  0.48748  0.20239  0.55789  1.0000
  H   H434      1.0  0.47250  0.34927  0.88399  1.0000
  H   H435      1.0  0.30044  0.44703  0.98742  1.0000
  C   C362      1.0  0.48233  0.07955  0.64319  1.0000
  C   C363      1.0  0.47713  0.31731  0.92823  1.0000
  C   C364      1.0  0.26559  0.25262  0.50596  1.0000
  C   C365      1.0  0.41825  0.00525  0.57812  1.0000
  H   H436      1.0  0.38907  0.42713  0.98743  1.0000
  H   H437      1.0  0.48500  0.24298  0.74594  1.0000
  H   H438      1.0  0.38045  0.38932  0.99096  1.0000
  C   C366      1.0  0.48315  0.29858  0.91816  1.0000
  H   H439      1.0  0.34958  0.05783  0.51259  1.0000
  H   H440      1.0  0.27722  0.30494  0.50663  1.0000
  C   C367      1.0  0.46990  0.44658  0.78367  1.0000
  C   C368      1.0  0.48641  0.11728  0.64843  1.0000
  H   H441      1.0  0.32824  0.45763  0.75707  1.0000
  S   S95       1.0  0.30331  0.48947  0.86003  1.0000
  C   C369      1.0  0.33979  0.44795  0.71763  1.0000
  S   S96       1.0  0.47334  0.31580  0.95615  1.0000
  H   H442      1.0  0.42106  0.44071  0.80620  1.0000
  C   C370      1.0  0.33708  0.48465  0.72574  1.0000
  C   C371      1.0  0.45919  0.00326  0.50212  1.0000
  C   C372      1.0  0.42316  0.48342  0.79796  1.0000
  C   C373      1.0  0.44834  0.21574  0.50960  1.0000
  H   H443      1.0  0.44496  0.45685  0.99197  1.0000
  C   C374      1.0  0.32949  0.43055  0.97833  1.0000
  H   H444      1.0  0.34436  0.48963  0.71025  1.0000
  H   H445      1.0  0.43194  0.21587  0.51533  1.0000
  H   H446      1.0  0.34726  0.47891  0.86953  1.0000
  S   S97       1.0  0.35474  0.49530  0.82236  1.0000
  C   C375      1.0  0.41598  0.50648  0.06185  1.0000
  S   S98       1.0  0.34408  0.99205  0.47362  1.0000
  Fe  Fe53      1.0  0.47244  0.61331  0.02379  1.0000
  C   C376      1.0  0.32237  0.51428  0.10237  1.0000
  S   S99       1.0  0.44230  0.59643  0.02068  1.0000
  H   H447      1.0  0.45198  0.76714  0.46717  1.0000
  H   H448      1.0  0.35402  0.63490  0.00750  1.0000
  H   H449      1.0  0.46555  0.55630  0.02460  1.0000
  H   H450      1.0  0.24804  0.65334  0.43820  1.0000
  H   H451      1.0  0.36850  0.86634  0.47521  1.0000
  H   H452      1.0  0.40684  0.57914  0.27905  1.0000
  C   C377      1.0  0.47940  0.64275  0.11671  1.0000
  H   H453      1.0  0.43442  0.64878  0.23987  1.0000
  S   S100      1.0  0.47137  0.96246  0.38867  1.0000
  H   H454      1.0  0.37834  0.82232  0.41939  1.0000
  H   H455      1.0  0.36288  0.61203  0.23928  1.0000
  C   C378      1.0  0.48856  0.90813  0.34680  1.0000
  H   H456      1.0  0.46190  0.75938  0.43006  1.0000
  C   C379      1.0  0.40101  0.59385  0.27190  1.0000
  H   H457      1.0  0.38052  0.64518  0.24394  1.0000
  S   S101      1.0  0.32040  0.51522  0.14564  1.0000
  Fe  Fe54      1.0  0.35022  0.50652  0.21779  1.0000
  S   S102      1.0  0.37717  0.52305  0.23243  1.0000
  S   S103      1.0  0.31884  0.51944  0.20676  1.0000
  C   C380      1.0  0.48409  0.62036  0.07872  1.0000
  S   S104      1.0  0.37771  0.80484  0.46584  1.0000
  C   C381      1.0  0.25465  0.69571  0.43053  1.0000
  Fe  Fe55      1.0  0.46781  0.80899  0.35297  1.0000
  S   S105      1.0  0.47210  0.79081  0.38372  1.0000
  H   H458      1.0  0.37458  0.80782  0.37128  1.0000
  Fe  Fe56      1.0  0.46900  0.76769  0.32695  1.0000
  S   S106      1.0  0.47296  0.74731  0.35611  1.0000
  H   H459      1.0  0.32580  0.89167  0.46366  1.0000
  Fe  Fe57      1.0  0.44864  0.76865  0.37182  1.0000
  S   S107      1.0  0.42129  0.75452  0.39066  1.0000
  S   S108      1.0  0.44277  0.78756  0.34209  1.0000
  Fe  Fe58      1.0  0.47424  0.64136  0.17276  1.0000
  S   S109      1.0  0.46267  0.60841  0.17559  1.0000
  C   C382      1.0  0.47517  0.64083  0.07856  1.0000
  Fe  Fe59      1.0  0.47367  0.64691  0.22109  1.0000
  S   S110      1.0  0.46185  0.61379  0.22687  1.0000
  Fe  Fe60      1.0  0.32623  0.49986  0.17798  1.0000
  Fe  Fe61      1.0  0.44010  0.62090  0.20036  1.0000
  S   S111      1.0  0.40562  0.61333  0.19837  1.0000
  S   S112      1.0  0.44994  0.65457  0.19611  1.0000
  H   H460      1.0  0.36321  0.90418  0.46795  1.0000
  C   C383      1.0  0.47432  0.68936  0.26330  1.0000
  H   H461      1.0  0.40162  0.79818  0.37000  1.0000
  H   H462      1.0  0.37251  0.93731  0.47228  1.0000
  H   H463      1.0  0.25994  0.52308  0.30485  1.0000
  C   C384      1.0  0.47488  0.71159  0.29450  1.0000
  C   C385      1.0  0.39092  0.78857  0.44724  1.0000
  C   C386      1.0  0.38124  0.77122  0.43900  1.0000
  C   C387      1.0  0.39114  0.76033  0.42213  1.0000
  C   C388      1.0  0.41067  0.76678  0.41343  1.0000
  C   C389      1.0  0.42070  0.78361  0.42226  1.0000
  C   C390      1.0  0.41084  0.79444  0.43913  1.0000
  H   H464      1.0  0.36585  0.76662  0.44512  1.0000
  H   H465      1.0  0.38334  0.74726  0.41539  1.0000
  H   H466      1.0  0.43580  0.78859  0.41577  1.0000
  H   H467      1.0  0.41845  0.80777  0.44559  1.0000
  C   C391      1.0  0.41709  0.83030  0.39177  1.0000
  H   H468      1.0  0.38824  0.80035  0.39473  1.0000
  C   C392      1.0  0.42106  0.98384  0.31111  1.0000
  H   H469      1.0  0.27103  0.74375  0.44505  1.0000
  C   C393      1.0  0.38542  0.54748  0.22144  1.0000
  C   C394      1.0  0.37228  0.56004  0.20861  1.0000
  C   C395      1.0  0.37873  0.58013  0.20136  1.0000
  C   C396      1.0  0.39852  0.58754  0.20646  1.0000
  C   C397      1.0  0.41194  0.57469  0.21870  1.0000
  C   C398      1.0  0.40526  0.55488  0.22643  1.0000
  H   H470      1.0  0.35692  0.55452  0.20477  1.0000
  H   H471      1.0  0.36824  0.59003  0.19196  1.0000
  H   H472      1.0  0.42715  0.58033  0.22284  1.0000
  H   H473      1.0  0.41538  0.54546  0.23658  1.0000
  H   H474      1.0  0.38650  0.67219  0.26582  1.0000
  H   H475      1.0  0.45905  0.74046  0.25169  1.0000
  H   H476      1.0  0.38746  0.83898  0.34874  1.0000
  H   H477      1.0  0.40942  0.85376  0.35777  1.0000
  H   H478      1.0  0.43125  0.55401  0.07870  1.0000
  H   H479      1.0  0.41477  0.82537  0.40855  1.0000
  C   C399      1.0  0.26077  0.73050  0.44355  1.0000
  C   C400      1.0  0.40189  0.83808  0.35825  1.0000
  C   C401      1.0  0.37613  0.61238  0.24964  1.0000
  S   S113      1.0  0.29244  0.73961  0.48974  1.0000
  C   C402      1.0  0.37934  0.87450  0.46436  1.0000
  H   H480      1.0  0.41356  0.82737  0.34996  1.0000
  S   S114      1.0  0.47576  0.65721  0.14013  1.0000
  H   H481      1.0  0.26491  0.51785  0.12833  1.0000
  C   C403      1.0  0.40313  0.93980  0.42739  1.0000
  H   H482      1.0  0.44630  0.53842  0.05995  1.0000
  H   H483      1.0  0.42798  0.64490  0.29825  1.0000
  H   H484      1.0  0.26641  0.52518  0.18863  1.0000
  C   C404      1.0  0.35286  0.58158  0.00210  1.0000
  C   C405      1.0  0.32418  0.50230  0.12128  1.0000
  N   N24       1.0  0.38659  0.93021  0.44150  1.0000
  H   H485      1.0  0.38028  0.56105  0.99735  1.0000
  C   C406      1.0  0.39025  0.90729  0.44589  1.0000
  C   C407      1.0  0.38644  0.63128  0.25235  1.0000
  C   C408      1.0  0.38332  0.59374  0.25949  1.0000
  Fe  Fe62      1.0  0.34698  0.52827  0.00342  1.0000
  H   H486      1.0  0.47657  0.96734  0.48478  1.0000
  H   H487      1.0  0.31918  0.53114  0.10299  1.0000
  H   H488      1.0  0.41040  0.66356  0.23557  1.0000
  C   C409      1.0  0.38758  0.52778  0.07764  1.0000
  C   C410      1.0  0.37344  0.86355  0.38370  1.0000
  H   H489      1.0  0.35255  0.92817  0.44148  1.0000
  C   C411      1.0  0.40977  0.87358  0.44045  1.0000
  C   C412      1.0  0.47312  0.65206  0.09743  1.0000
  C   C413      1.0  0.46813  0.76929  0.46142  1.0000
  H   H490      1.0  0.44583  0.63995  0.27575  1.0000
  H   H491      1.0  0.49350  0.54228  0.04775  1.0000
  H   H492      1.0  0.48176  0.53167  0.22518  1.0000
  C   C414      1.0  0.45739  0.50862  0.22956  1.0000
  H   H493      1.0  0.41902  0.93825  0.43435  1.0000
  C   C415      1.0  0.45947  0.88657  0.35997  1.0000
  H   H494      1.0  0.26060  0.68263  0.42126  1.0000
  Fe  Fe63      1.0  0.45159  0.98916  0.37505  1.0000
  H   H495      1.0  0.35262  0.89071  0.38866  1.0000
  H   H496      1.0  0.46405  0.70546  0.23496  1.0000
  H   H497      1.0  0.35180  0.84338  0.43843  1.0000
  H   H498      1.0  0.42401  0.84628  0.39144  1.0000
  H   H499      1.0  0.37894  0.87013  0.36868  1.0000
  H   H500      1.0  0.42527  0.61149  0.28425  1.0000
  C   C416      1.0  0.40434  0.63207  0.26514  1.0000
  C   C417      1.0  0.49315  0.53727  0.03159  1.0000
  H   H501      1.0  0.33874  0.87774  0.42352  1.0000
  H   H502      1.0  0.41112  0.97114  0.31688  1.0000
  H   H503      1.0  0.27453  0.52871  0.16136  1.0000
  S   S115      1.0  0.31579  0.79969  0.48129  1.0000
  H   H504      1.0  0.43951  0.96397  0.29003  1.0000
  C   C418      1.0  0.47809  0.69183  0.28486  1.0000
  N   N25       1.0  0.41752  0.61541  0.12242  1.0000
  C   C419      1.0  0.40603  0.60578  0.14096  1.0000
  C   C420      1.0  0.43732  0.60269  0.11890  1.0000
  C   C421      1.0  0.42297  0.63711  0.12809  1.0000
  C   C422      1.0  0.40537  0.61627  0.10283  1.0000
  C   C423      1.0  0.41456  0.62457  0.08369  1.0000
  C   C424      1.0  0.38438  0.60900  0.10202  1.0000
  C   C425      1.0  0.40356  0.62539  0.06493  1.0000
  C   C426      1.0  0.37349  0.60998  0.08314  1.0000
  C   C427      1.0  0.38305  0.61815  0.06466  1.0000
  H   H505      1.0  0.39157  0.61524  0.14555  1.0000
  H   H506      1.0  0.40165  0.58924  0.13814  1.0000
  H   H507      1.0  0.41594  0.60503  0.15518  1.0000
  H   H508      1.0  0.43397  0.58624  0.11469  1.0000
  H   H509      1.0  0.44709  0.60194  0.13318  1.0000
  H   H510      1.0  0.44753  0.60950  0.10606  1.0000
  H   H511      1.0  0.40853  0.64732  0.13059  1.0000
  H   H512      1.0  0.43203  0.63714  0.14287  1.0000
  H   H513      1.0  0.43305  0.64503  0.11576  1.0000
  H   H514      1.0  0.43034  0.63070  0.08308  1.0000
  H   H515      1.0  0.37595  0.60271  0.11578  1.0000
  H   H516      1.0  0.41085  0.63197  0.05052  1.0000
  H   H517      1.0  0.35741  0.60458  0.08286  1.0000
  H   H518      1.0  0.37452  0.61912  0.05009  1.0000
  H   H519      1.0  0.44037  0.66617  0.28399  1.0000
  H   H520      1.0  0.43160  0.67543  0.24840  1.0000
  H   H521      1.0  0.40720  0.68342  0.27967  1.0000
  C   C428      1.0  0.46703  0.70698  0.25154  1.0000
  C   C429      1.0  0.37291  0.83693  0.41189  1.0000
  H   H522      1.0  0.31780  0.85719  0.48134  1.0000
  C   C430      1.0  0.26751  0.71318  0.43176  1.0000
  H   H523      1.0  0.42923  0.81928  0.38466  1.0000
  H   H524      1.0  0.41845  0.50901  0.25084  1.0000
  S   S116      1.0  0.36238  0.51384  0.03191  1.0000
  C   C431      1.0  0.35048  0.86839  0.41473  1.0000
  H   H525      1.0  0.39808  0.84639  0.45791  1.0000
  C   C432      1.0  0.26647  0.70531  0.49362  1.0000
  C   C433      1.0  0.41148  0.61266  0.27473  1.0000
  C   C434      1.0  0.26549  0.50679  0.27556  1.0000
  S   S117      1.0  0.48720  0.60559  0.05548  1.0000
  Fe  Fe64      1.0  0.48562  0.60389  0.20164  1.0000
  C   C435      1.0  0.48485  0.98253  0.48251  1.0000
  H   H526      1.0  0.46650  0.66803  0.09713  1.0000
  H   H527      1.0  0.32279  0.51398  0.06824  1.0000
  C   C436      1.0  0.27105  0.51664  0.17398  1.0000
  H   H528      1.0  0.40556  0.59026  0.99736  1.0000
  H   H529      1.0  0.37553  0.57903  0.25695  1.0000
  C   C437      1.0  0.38009  0.50976  0.08840  1.0000
  Fe  Fe65      1.0  0.43252  0.62395  0.00023  1.0000
  S   S118      1.0  0.46586  0.75526  0.29336  1.0000
  S   S119      1.0  0.32337  0.50280  0.00023  1.0000
  H   H530      1.0  0.47778  0.71307  0.31107  1.0000
  C   C438      1.0  0.42902  0.99159  0.44414  1.0000
  C   C439      1.0  0.37644  0.89617  0.46008  1.0000
  C   C440      1.0  0.46994  0.86803  0.35284  1.0000
  N   N26       1.0  0.41394  0.54527  0.05187  1.0000
  C   C441      1.0  0.41848  0.54044  0.02930  1.0000
  C   C442      1.0  0.39911  0.56395  0.05229  1.0000
  C   C443      1.0  0.35835  0.87566  0.39512  1.0000
  C   C444      1.0  0.40554  0.52655  0.06355  1.0000
  H   H531      1.0  0.43012  0.50441  0.05201  1.0000
  H   H532      1.0  0.42276  0.55468  0.01961  1.0000
  H   H533      1.0  0.43205  0.52910  0.02695  1.0000
  H   H534      1.0  0.39677  0.57019  0.06844  1.0000
  H   H535      1.0  0.38349  0.56006  0.04607  1.0000
  H   H536      1.0  0.40510  0.57738  0.04233  1.0000
  H   H537      1.0  0.40079  0.93923  0.47019  1.0000
  S   S120      1.0  0.45679  0.84364  0.35606  1.0000
  H   H538      1.0  0.44401  0.88558  0.36762  1.0000
  H   H539      1.0  0.37876  0.54234  0.08041  1.0000
  H   H540      1.0  0.41833  0.90226  0.42499  1.0000
  C   C445      1.0  0.39600  0.86323  0.45460  1.0000
  H   H541      1.0  0.40459  0.53355  0.02209  1.0000
  S   S121      1.0  0.46172  0.64243  0.00506  1.0000
  H   H542      1.0  0.44041  0.56569  0.05410  1.0000
  C   C446      1.0  0.46826  0.72940  0.28259  1.0000
  S   S122      1.0  0.39898  0.63535  0.00407  1.0000
  H   H543      1.0  0.27931  0.69687  0.48553  1.0000
  N   N27       1.0  0.39715  0.83043  0.38025  1.0000
  C   C447      1.0  0.48821  0.62221  0.11688  1.0000
  C   C448      1.0  0.38592  0.94187  0.46152  1.0000
  H   H544      1.0  0.39229  0.66233  0.29190  1.0000
  C   C449      1.0  0.43296  0.65062  0.28215  1.0000
  C   C450      1.0  0.42305  0.66042  0.24704  1.0000
  C   C451      1.0  0.39952  0.66822  0.27668  1.0000
  H   H545      1.0  0.36574  0.92508  0.41621  1.0000
  Fe  Fe66      1.0  0.37288  0.99157  0.49310  1.0000
  C   C452      1.0  0.35775  0.84904  0.42307  1.0000
  C   C453      1.0  0.43382  0.55111  0.06156  1.0000
  N   N28       1.0  0.41487  0.65236  0.26783  1.0000
  C   C454      1.0  0.39002  0.80835  0.37903  1.0000
  C   C455      1.0  0.38100  0.84360  0.39168  1.0000
  S   S123      1.0  0.32606  0.93416  0.47829  1.0000
  H   H546      1.0  0.42269  0.86470  0.43285  1.0000
  N   N29       1.0  0.25474  0.50181  0.16804  1.0000
  H   H547      1.0  0.41800  0.50445  0.21296  1.0000
  H   H548      1.0  0.28123  0.51271  0.27287  1.0000
  Fe  Fe67      1.0  0.35041  0.79319  0.48662  1.0000
  Fe  Fe68      1.0  0.48875  0.96353  0.35728  1.0000
  S   S124      1.0  0.47914  0.66394  0.25211  1.0000
  S   S125      1.0  0.49388  0.79083  0.33529  1.0000
  H   H549      1.0  0.36626  0.51095  0.09891  1.0000
  H   H550      1.0  0.46046  0.92058  0.36255  1.0000
  C   C456      1.0  0.36603  0.93367  0.43125  1.0000
  C   C457      1.0  0.25333  0.51267  0.29374  1.0000
  H   H551      1.0  0.39994  0.95701  0.42466  1.0000
  C   C458      1.0  0.48991  0.86961  0.34286  1.0000
  C   C459      1.0  0.47725  0.54513  0.01853  1.0000
  H   H552      1.0  0.48367  0.67834  0.29418  1.0000
  C   C460      1.0  0.32192  0.89103  0.48040  1.0000
  C   C461      1.0  0.47364  0.76495  0.44049  1.0000
  H   H553      1.0  0.28621  0.50800  0.17690  1.0000
  H   H554      1.0  0.47018  0.64815  0.06386  1.0000
  H   H555      1.0  0.44514  0.52056  0.22689  1.0000
  H   H556      1.0  0.36268  0.95077  0.42770  1.0000
  C   C462      1.0  0.40704  0.89528  0.43607  1.0000
  C   C463      1.0  0.46877  0.90647  0.35713  1.0000
  H   H557      1.0  0.28295  0.71321  0.42382  1.0000
  C   C464      1.0  0.47831  0.51517  0.22863  1.0000
  H   H558      1.0  0.38376  0.95922  0.45868  1.0000
  C   C465      1.0  0.32447  0.50459  0.08264  1.0000
  C   C466      1.0  0.46419  0.72686  0.26110  1.0000
  H   H559      1.0  0.40381  0.93279  0.41147  1.0000
  S   S126      1.0  0.46721  0.98864  0.34276  1.0000
  C   C467      1.0  0.43705  0.97977  0.29600  1.0000
  H   H560      1.0  0.49332  0.61495  0.13157  1.0000
  C   C468      1.0  0.48335  0.77620  0.47494  1.0000
  S   S127      1.0  0.41689  0.99397  0.38204  1.0000
  H   H561      1.0  0.44663  0.98773  0.41511  1.0000
  C   C469      1.0  0.49078  0.61118  0.09791  1.0000
  H   H562      1.0  0.32873  0.60591  0.00658  1.0000
  C   C470      1.0  0.38888  0.59366  0.99973  1.0000
  C   C471      1.0  0.35980  0.61882  0.00522  1.0000
  C   C472      1.0  0.38148  0.61451  0.00279  1.0000
  C   C473      1.0  0.34552  0.60243  0.00473  1.0000
  C   C474      1.0  0.47662  0.53871  0.99766  1.0000
  Fe  Fe69      1.0  0.49291  0.98812  0.39717  1.0000
  C   C475      1.0  0.43138  0.99162  0.42215  1.0000
  C   C476      1.0  0.26659  0.50085  0.12975  1.0000
  H   H563      1.0  0.44241  0.98749  0.45370  1.0000
  C   C477      1.0  0.37457  0.57713  0.99961  1.0000
  S   S128      1.0  0.33438  0.56163  0.00137  1.0000
  C   C478      1.0  0.31737  0.87144  0.49039  1.0000
  Fe  Fe70      1.0  0.38373  0.49729  0.00832  1.0000
  C   C479      1.0  0.49484  0.50064  0.23225  1.0000
  H   H564      1.0  0.27722  0.49874  0.09715  1.0000
  C   C480      1.0  0.49434  0.76758  0.43300  1.0000
  H   H565      1.0  0.47841  0.77887  0.49115  1.0000
  C   C481      1.0  0.32107  0.90979  0.49183  1.0000
  H   H566      1.0  0.46286  0.99257  0.27745  1.0000
  H   H567      1.0  0.47868  0.99055  0.46802  1.0000
  S   S129      1.0  0.40654  0.99391  0.48125  1.0000
  Fe  Fe71      1.0  0.33400  0.96445  0.49451  1.0000
  C   C482      1.0  0.45020  0.99593  0.28894  1.0000
  S   S130      1.0  0.48751  0.59837  0.99498  1.0000
  H   H568      1.0  0.44994  0.76129  0.80901  1.0000
  Fe  Fe72      1.0  0.47404  0.62556  0.97578  1.0000
  C   C483      1.0  0.47524  0.98289  0.53930  1.0000
  S   S131      1.0  0.44393  0.60957  0.96996  1.0000
  C   C484      1.0  0.45860  0.70555  0.84402  1.0000
  N   N30       1.0  0.41518  0.93232  0.59444  1.0000
  S   S132      1.0  0.37094  0.51496  0.98022  1.0000
  Fe  Fe73      1.0  0.45818  0.97472  0.65037  1.0000
  H   H569      1.0  0.34324  0.59147  0.90986  1.0000
  S   S133      1.0  0.44154  0.94477  0.66116  1.0000
  C   C485      1.0  0.32591  0.70430  0.56577  1.0000
  H   H570      1.0  0.42910  0.94921  0.61951  1.0000
  C   C486      1.0  0.45023  0.72397  0.83365  1.0000
  H   H571      1.0  0.39961  0.60468  0.94597  1.0000
  S   S134      1.0  0.36396  0.96278  0.51222  1.0000
  Fe  Fe74      1.0  0.47820  0.82327  0.66044  1.0000
  H   H572      1.0  0.35713  0.55976  0.96056  1.0000
  H   H573      1.0  0.31945  0.74200  0.54792  1.0000
  Fe  Fe75      1.0  0.46306  0.77803  0.67075  1.0000
  S   S135      1.0  0.46613  0.76910  0.63644  1.0000
  S   S136      1.0  0.45086  0.75125  0.69293  1.0000
  Fe  Fe76      1.0  0.45156  0.80117  0.62917  1.0000
  S   S137      1.0  0.43115  0.81299  0.60241  1.0000
  S   S138      1.0  0.44585  0.80936  0.66326  1.0000
  Fe  Fe77      1.0  0.48103  0.66098  0.78535  1.0000
  H   H574      1.0  0.33319  0.68813  0.56523  1.0000
  H   H575      1.0  0.44668  0.74875  0.78455  1.0000
  Fe  Fe78      1.0  0.46474  0.64151  0.82803  1.0000
  S   S139      1.0  0.47693  0.60901  0.82049  1.0000
  S   S140      1.0  0.44684  0.64522  0.85937  1.0000
  Fe  Fe79      1.0  0.46446  0.61608  0.78835  1.0000
  S   S141      1.0  0.44874  0.58978  0.77204  1.0000
  S   S142      1.0  0.44970  0.64774  0.79657  1.0000
  Fe  Fe80      1.0  0.34746  0.52576  0.80469  1.0000
  S   S143      1.0  0.31239  0.52512  0.81115  1.0000
  S   S144      1.0  0.36391  0.55524  0.81425  1.0000
  H   H576      1.0  0.25342  0.75378  0.51267  1.0000
  S   S145      1.0  0.31640  0.98573  0.51766  1.0000
  Fe  Fe81      1.0  0.30996  0.50690  0.78123  1.0000
  N   N31       1.0  0.31183  0.70901  0.54791  1.0000
  H   H577      1.0  0.43737  0.58897  0.84964  1.0000
  C   C487      1.0  0.32407  0.70588  0.52779  1.0000
  Fe  Fe82      1.0  0.31563  0.81470  0.51315  1.0000
  S   S146      1.0  0.35025  0.80985  0.51736  1.0000
  C   C488      1.0  0.34081  0.57973  0.87894  1.0000
  C   C489      1.0  0.31566  0.90875  0.51341  1.0000
  C   C490      1.0  0.35713  0.56151  0.94303  1.0000
  H   H578      1.0  0.45278  0.92284  0.61354  1.0000
  Fe  Fe83      1.0  0.34251  0.77875  0.53265  1.0000
  S   S147      1.0  0.35628  0.76484  0.56271  1.0000
  S   S148      1.0  0.30742  0.78450  0.53105  1.0000
  C   C491      1.0  0.25967  0.66642  0.55075  1.0000
  C   C492      1.0  0.33162  0.53432  0.94305  1.0000
  C   C493      1.0  0.25564  0.68812  0.55161  1.0000
  C   C494      1.0  0.45469  0.88934  0.61198  1.0000
  C   C495      1.0  0.26884  0.72669  0.49848  1.0000
  H   H579      1.0  0.45987  0.99065  0.54059  1.0000
  C   C496      1.0  0.42465  0.58074  0.78312  1.0000
  C   C497      1.0  0.41580  0.56257  0.77530  1.0000
  C   C498      1.0  0.39694  0.55467  0.78441  1.0000
  C   C499      1.0  0.38673  0.56512  0.80120  1.0000
  C   C500      1.0  0.39522  0.58367  0.80850  1.0000
  C   C501      1.0  0.41428  0.59129  0.79975  1.0000
  H   H580      1.0  0.42369  0.55445  0.76232  1.0000
  H   H581      1.0  0.39035  0.54052  0.77849  1.0000
  H   H582      1.0  0.38696  0.59217  0.82098  1.0000
  H   H583      1.0  0.42080  0.60550  0.80561  1.0000
  C   C502      1.0  0.41182  0.79798  0.59087  1.0000
  C   C503      1.0  0.40381  0.77970  0.60072  1.0000
  C   C504      1.0  0.38703  0.76935  0.59176  1.0000
  C   C505      1.0  0.37846  0.77700  0.57278  1.0000
  C   C506      1.0  0.38703  0.79484  0.56265  1.0000
  C   C507      1.0  0.40342  0.80542  0.57179  1.0000
  H   H584      1.0  0.41015  0.77389  0.61548  1.0000
  H   H585      1.0  0.38054  0.75554  0.59970  1.0000
  H   H586      1.0  0.38094  0.80063  0.54786  1.0000
  H   H587      1.0  0.40962  0.81948  0.56405  1.0000
  C   C508      1.0  0.46146  0.73542  0.71407  1.0000
  C   C509      1.0  0.47764  0.70845  0.74689  1.0000
  C   C510      1.0  0.45918  0.70339  0.73690  1.0000
  C   C511      1.0  0.45113  0.71683  0.72069  1.0000
  H   H588      1.0  0.45111  0.68910  0.74158  1.0000
  H   H589      1.0  0.43688  0.71267  0.71306  1.0000
  C   C512      1.0  0.49237  0.58569  0.89385  1.0000
  H   H590      1.0  0.40412  0.60736  0.85137  1.0000
  H   H591      1.0  0.45248  0.85561  0.60945  1.0000
  H   H592      1.0  0.31474  0.92308  0.52233  1.0000
  C   C513      1.0  0.30545  0.73175  0.54876  1.0000
  H   H593      1.0  0.38287  0.92255  0.59710  1.0000
  H   H594      1.0  0.40668  0.93411  0.62766  1.0000
  S   S149      1.0  0.47259  0.97379  0.61769  1.0000
  H   H595      1.0  0.33039  0.53371  0.96063  1.0000
  C   C514      1.0  0.29372  0.69469  0.54913  1.0000
  C   C515      1.0  0.45533  0.91998  0.66246  1.0000
  S   S150      1.0  0.49354  0.63599  0.94674  1.0000
  C   C516      1.0  0.45445  0.88129  0.66457  1.0000
  C   C517      1.0  0.44392  0.90123  0.66326  1.0000
  H   H596      1.0  0.44552  0.86698  0.66521  1.0000
  H   H597      1.0  0.42686  0.90213  0.66290  1.0000
  C   C518      1.0  0.41625  0.89214  0.59167  1.0000
  C   C519      1.0  0.48051  0.63886  0.92247  1.0000
  C   C520      1.0  0.39357  0.93159  0.58614  1.0000
  H   H598      1.0  0.46965  0.57048  0.94104  1.0000
  H   H599      1.0  0.40361  0.95874  0.61310  1.0000
  H   H600      1.0  0.44840  0.98980  0.50481  1.0000
  H   H601      1.0  0.31306  0.66562  0.54720  1.0000
  H   H602      1.0  0.39369  0.92467  0.57020  1.0000
  C   C521      1.0  0.49227  0.52481  0.98962  1.0000
  C   C522      1.0  0.41353  0.94400  0.61447  1.0000
  S   S151      1.0  0.48296  0.81660  0.62618  1.0000
  C   C523      1.0  0.46025  0.64273  0.88338  1.0000
  C   C524      1.0  0.44840  0.64234  0.90249  1.0000
  C   C525      1.0  0.45845  0.64042  0.92191  1.0000
  H   H603      1.0  0.43135  0.64379  0.90233  1.0000
  H   H604      1.0  0.44910  0.64062  0.93648  1.0000
  C   C526      1.0  0.48078  0.57064  0.92764  1.0000
  C   C527      1.0  0.38406  0.99509  0.59290  1.0000
  H   H605      1.0  0.43134  0.55107  0.89794  1.0000
  H   H606      1.0  0.42865  0.70676  0.80377  1.0000
  H   H607      1.0  0.31619  0.52909  0.93750  1.0000
  H   H608      1.0  0.31706  0.70571  0.58118  1.0000
  C   C528      1.0  0.47791  0.58515  0.91103  1.0000
  C   C529      1.0  0.44518  0.87100  0.60600  1.0000
  H   H609      1.0  0.38693  0.98952  0.53975  1.0000
  H   H610      1.0  0.32703  0.49800  0.73198  1.0000
  C   C530      1.0  0.44493  0.90913  0.60817  1.0000
  H   H611      1.0  0.43034  0.93611  0.56372  1.0000
  H   H612      1.0  0.40156  0.89202  0.58360  1.0000
  C   C531      1.0  0.31112  0.87053  0.51176  1.0000
  C   C532      1.0  0.41499  0.57413  0.94330  1.0000
  C   C533      1.0  0.42840  0.94444  0.57892  1.0000
  C   C534      1.0  0.33760  0.56229  0.86666  1.0000
  C   C535      1.0  0.33490  0.54248  0.87627  1.0000
  N   N32       1.0  0.34019  0.84248  0.57699  1.0000
  C   C536      1.0  0.32165  0.85702  0.58070  1.0000
  C   C537      1.0  0.35202  0.84972  0.55767  1.0000
  C   C538      1.0  0.33188  0.82132  0.57297  1.0000
  C   C539      1.0  0.35438  0.84253  0.59508  1.0000
  C   C540      1.0  0.36177  0.82366  0.60548  1.0000
  C   C541      1.0  0.36208  0.86187  0.60215  1.0000
  C   C542      1.0  0.37596  0.82427  0.62184  1.0000
  C   C543      1.0  0.37616  0.86227  0.61864  1.0000
  C   C544      1.0  0.38323  0.84347  0.62833  1.0000
  H   H613      1.0  0.31328  0.85305  0.59596  1.0000
  H   H614      1.0  0.32596  0.87387  0.58078  1.0000
  H   H615      1.0  0.30998  0.85610  0.56800  1.0000
  H   H616      1.0  0.35739  0.86617  0.55879  1.0000
  H   H617      1.0  0.34214  0.84951  0.54351  1.0000
  H   H618      1.0  0.36624  0.83933  0.55453  1.0000
  H   H619      1.0  0.34468  0.80989  0.56811  1.0000
  H   H620      1.0  0.32324  0.81467  0.58710  1.0000
  H   H621      1.0  0.32064  0.82195  0.55981  1.0000
  H   H622      1.0  0.35726  0.80814  0.60099  1.0000
  H   H623      1.0  0.35747  0.87680  0.59476  1.0000
  H   H624      1.0  0.38184  0.80965  0.62918  1.0000
  H   H625      1.0  0.38193  0.87715  0.62381  1.0000
  H   H626      1.0  0.39460  0.84370  0.64072  1.0000
  S   S152      1.0  0.48539  0.99120  0.66415  1.0000
  H   H627      1.0  0.29557  0.73672  0.53521  1.0000
  S   S153      1.0  0.28753  0.51637  0.75429  1.0000
  H   H628      1.0  0.48951  0.59730  0.88137  1.0000
  C   C545      1.0  0.25847  0.51753  0.72268  1.0000
  S   S154      1.0  0.34475  0.51045  0.77352  1.0000
  H   H629      1.0  0.30429  0.56762  0.93625  1.0000
  C   C546      1.0  0.42525  0.91115  0.59815  1.0000
  C   C547      1.0  0.44367  0.74696  0.80196  1.0000
  H   H630      1.0  0.33702  0.56411  0.84962  1.0000
  H   H631      1.0  0.42620  0.74689  0.80455  1.0000
  C   C548      1.0  0.44395  0.71666  0.87780  1.0000
  S   S155      1.0  0.35173  0.98297  0.56871  1.0000
  H   H632      1.0  0.47958  0.69573  0.65179  1.0000
  H   H633      1.0  0.28346  0.64165  0.54856  1.0000
  H   H634      1.0  0.46457  0.59630  0.91168  1.0000
  H   H635      1.0  0.48409  0.74103  0.81498  1.0000
  H   H636      1.0  0.33163  0.68987  0.52687  1.0000
  H   H637      1.0  0.38618  0.94772  0.58417  1.0000
  C   C549      1.0  0.26749  0.50520  0.73911  1.0000
  C   C550      1.0  0.27231  0.70215  0.55072  1.0000
  H   H638      1.0  0.33235  0.52894  0.86659  1.0000
  C   C551      1.0  0.48233  0.64133  0.88384  1.0000
  C   C552      1.0  0.25201  0.73732  0.50892  1.0000
  C   C553      1.0  0.33752  0.55761  0.91134  1.0000
  S   S156      1.0  0.49489  0.79285  0.67086  1.0000
  S   S157      1.0  0.30291  0.84660  0.52431  1.0000
  H   H639      1.0  0.37329  0.99309  0.60639  1.0000
  C   C554      1.0  0.44555  0.70929  0.79930  1.0000
  S   S158      1.0  0.48862  0.69230  0.76759  1.0000
  H   H640      1.0  0.49195  0.52004  0.97340  1.0000
  C   C555      1.0  0.28043  0.65858  0.54926  1.0000
  N   N33       1.0  0.48174  0.99590  0.50130  1.0000
  H   H641      1.0  0.44153  0.71375  0.89464  1.0000
  C   C556      1.0  0.42399  0.56303  0.90782  1.0000
  C   C557      1.0  0.33497  0.54005  0.89826  1.0000
  H   H642      1.0  0.31369  0.70803  0.51403  1.0000
  N   N34       1.0  0.45391  0.72729  0.81061  1.0000
  H   H643      1.0  0.42127  0.96039  0.57550  1.0000
  H   H644      1.0  0.46760  0.69364  0.83539  1.0000
  C   C558      1.0  0.47737  0.91862  0.66302  1.0000
  H   H645      1.0  0.32346  0.58744  0.94008  1.0000
  H   H646      1.0  0.46943  0.88820  0.62019  1.0000
  H   H647      1.0  0.33698  0.71740  0.52558  1.0000
  H   H648      1.0  0.44445  0.94694  0.58477  1.0000
  C   C559      1.0  0.42611  0.87241  0.59572  1.0000
  H   H649      1.0  0.34416  0.52244  0.93844  1.0000
  C   C560      1.0  0.31038  0.88925  0.52324  1.0000
  H   H650      1.0  0.44542  0.59894  0.87417  1.0000
  C   C561      1.0  0.47695  0.72849  0.80582  1.0000
  H   H651      1.0  0.36109  0.57818  0.93919  1.0000
  N   N35       1.0  0.41475  0.58526  0.87569  1.0000
  C   C562      1.0  0.40378  0.60527  0.86890  1.0000
  C   C563      1.0  0.43681  0.58595  0.86708  1.0000
  C   C564      1.0  0.40398  0.56760  0.86599  1.0000
  C   C565      1.0  0.41480  0.58187  0.89892  1.0000
  C   C566      1.0  0.40601  0.59687  0.91333  1.0000
  H   H652      1.0  0.43124  0.54486  0.93622  1.0000
  Fe  Fe84      1.0  0.34742  0.98568  0.53379  1.0000
  Fe  Fe85      1.0  0.31036  0.76876  0.49963  1.0000
  H   H653      1.0  0.31768  0.56876  0.96066  1.0000
  H   H654      1.0  0.29664  0.73546  0.56375  1.0000
  H   H655      1.0  0.38687  0.60572  0.87427  1.0000
  H   H656      1.0  0.41164  0.61937  0.87477  1.0000
  H   H657      1.0  0.44587  0.57094  0.87005  1.0000
  H   H658      1.0  0.37018  0.55112  0.93659  1.0000
  H   H659      1.0  0.41890  0.85797  0.59107  1.0000
  H   H660      1.0  0.38749  0.56615  0.87244  1.0000
  H   H661      1.0  0.40308  0.56987  0.84858  1.0000
  H   H662      1.0  0.41229  0.55209  0.86848  1.0000
  H   H663      1.0  0.39918  0.61190  0.90818  1.0000
  H   H664      1.0  0.47556  0.72343  0.64552  1.0000
  C   C567      1.0  0.48821  0.98396  0.52056  1.0000
  H   H665      1.0  0.46194  0.68773  0.87324  1.0000
  H   H666      1.0  0.33269  0.52427  0.90456  1.0000
  H   H667      1.0  0.48559  0.71333  0.80949  1.0000
  C   C568      1.0  0.47983  0.74055  0.72419  1.0000
  C   C569      1.0  0.29725  0.67244  0.54849  1.0000
  H   H668      1.0  0.41529  0.57121  0.96025  1.0000
  C   C570      1.0  0.45666  0.51099  0.79851  1.0000
  H   H669      1.0  0.26790  0.71875  0.55090  1.0000
  H   H670      1.0  0.30534  0.88876  0.53970  1.0000
  C   C571      1.0  0.42400  0.55927  0.92967  1.0000
  C   C572      1.0  0.47648  0.87998  0.66564  1.0000
  S   S159      1.0  0.49489  0.62950  0.77504  1.0000
  C   C573      1.0  0.40611  0.59292  0.93517  1.0000
  C   C574      1.0  0.43615  0.51835  0.80327  1.0000
  C   C575      1.0  0.34091  0.57748  0.90096  1.0000
  H   H671      1.0  0.48789  0.75485  0.71950  1.0000
  S   S160      1.0  0.45768  0.55016  0.98122  1.0000
  H   H672      1.0  0.44678  0.71182  0.78184  1.0000
  C   C576      1.0  0.31981  0.57057  0.94319  1.0000
  S   S161      1.0  0.34538  0.76141  0.50234  1.0000
  H   H673      1.0  0.34282  0.59510  0.87128  1.0000
  H   H674      1.0  0.45447  0.69425  0.80258  1.0000
  N   N36       1.0  0.33653  0.55586  0.93470  1.0000
  H   H675      1.0  0.33924  0.71546  0.56575  1.0000
  C   C577      1.0  0.24751  0.69480  0.49878  1.0000
  C   C578      1.0  0.48782  0.72717  0.74046  1.0000
  C   C579      1.0  0.45548  0.70202  0.86574  1.0000
  H   H676      1.0  0.43316  0.53485  0.80684  1.0000
  C   C580      1.0  0.41943  0.50460  0.80301  1.0000
  H   H677      1.0  0.40341  0.51049  0.80637  1.0000
  H   H678      1.0  0.49165  0.64187  0.86921  1.0000
  H   H679      1.0  0.47231  0.97233  0.57172  1.0000
  H   H680      1.0  0.47307  0.71434  0.67206  1.0000
  C   C581      1.0  0.39146  0.99350  0.55530  1.0000
  Fe  Fe86      1.0  0.45653  0.58374  0.99081  1.0000
  C   C582      1.0  0.43858  0.73867  0.84643  1.0000
  C   C583      1.0  0.49240  0.63950  0.90332  1.0000
  H   H681      1.0  0.26359  0.53353  0.71977  1.0000
  C   C584      1.0  0.48250  0.71193  0.65714  1.0000
  H   H682      1.0  0.48631  0.93293  0.66270  1.0000
  H   H683      1.0  0.49189  0.70437  0.69991  1.0000
  H   H684      1.0  0.43163  0.75315  0.84004  1.0000
  H   H685      1.0  0.46954  0.52192  0.79831  1.0000
  C   C585      1.0  0.43554  0.73495  0.86818  1.0000
  C   C586      1.0  0.48783  0.89874  0.66496  1.0000
  H   H686      1.0  0.42658  0.74630  0.87767  1.0000
  C   C587      1.0  0.37746  0.99095  0.57265  1.0000
  C   C588      1.0  0.48220  0.97220  0.55747  1.0000
  H   H687      1.0  0.31016  0.50154  0.70121  1.0000
  H   H688      1.0  0.28168  0.50384  0.67676  1.0000
  S   S162      1.0  0.49057  0.85545  0.66814  1.0000
  H   H689      1.0  0.48039  0.73198  0.78874  1.0000
  S   S163      1.0  0.49465  0.65737  0.81786  1.0000
  H   H690      1.0  0.24661  0.65569  0.55107  1.0000
  H   H691      1.0  0.24608  0.67838  0.49509  1.0000
  S   S164      1.0  0.74240  0.48623  0.37148  1.0000
  H   H692      1.0  0.50353  0.46828  0.23949  1.0000
  C   C589      1.0  0.71133  0.42729  0.29244  1.0000
  H   H693      1.0  0.66212  0.22231  0.41339  1.0000
  H   H694      1.0  0.57676  0.25443  0.44313  1.0000
  C   C590      1.0  0.62266  0.48272  0.11931  1.0000
  C   C591      1.0  0.51677  0.04614  0.39802  1.0000
  C   C592      1.0  0.65806  0.23600  0.42277  1.0000
  C   C593      1.0  0.69180  0.14196  0.46793  1.0000
  H   H695      1.0  0.52086  0.39274  0.06535  1.0000
  H   H696      1.0  0.68177  0.45518  0.32904  1.0000
  C   C594      1.0  0.50422  0.35159  0.09701  1.0000
  S   S165      1.0  0.54124  0.18825  0.38556  1.0000
  C   C595      1.0  0.57520  0.99886  0.43551  1.0000
  Fe  Fe87      1.0  0.51219  0.35700  0.20247  1.0000
  S   S166      1.0  0.54682  0.36398  0.20454  1.0000
  H   H697      1.0  0.56740  0.29709  0.22729  1.0000
  Fe  Fe88      1.0  0.59656  0.47317  0.21746  1.0000
  S   S167      1.0  0.56738  0.45706  0.23083  1.0000
  S   S168      1.0  0.62668  0.45852  0.20419  1.0000
  C   C596      1.0  0.53938  0.00256  0.44989  1.0000
  S   S169      1.0  0.56125  0.22227  0.47584  1.0000
  S   S170      1.0  0.62357  0.20660  0.47576  1.0000
  Fe  Fe89      1.0  0.58856  0.47125  0.00522  1.0000
  H   H698      1.0  0.61118  0.25052  0.47689  1.0000
  C   C597      1.0  0.53209  0.08170  0.39311  1.0000
  H   H699      1.0  0.52739  0.46818  0.03681  1.0000
  C   C598      1.0  0.50927  0.42880  0.17634  1.0000
  H   H700      1.0  0.52273  0.14334  0.38919  1.0000
  H   H701      1.0  0.52175  0.47163  0.00934  1.0000
  C   C599      1.0  0.55252  0.38967  0.21243  1.0000
  C   C600      1.0  0.57360  0.39587  0.21274  1.0000
  C   C601      1.0  0.57841  0.41652  0.21831  1.0000
  C   C602      1.0  0.56216  0.43094  0.22398  1.0000
  C   C603      1.0  0.54118  0.42445  0.22444  1.0000
  C   C604      1.0  0.53633  0.40402  0.21836  1.0000
  H   H702      1.0  0.58623  0.38480  0.20833  1.0000
  H   H703      1.0  0.59467  0.42127  0.21827  1.0000
  H   H704      1.0  0.52856  0.43540  0.22910  1.0000
  H   H705      1.0  0.52005  0.39948  0.21821  1.0000
  C   C605      1.0  0.54598  0.19704  0.41112  1.0000
  C   C606      1.0  0.53154  0.21044  0.42183  1.0000
  C   C607      1.0  0.53624  0.21789  0.44180  1.0000
  C   C608      1.0  0.55523  0.21173  0.45132  1.0000
  C   C609      1.0  0.56947  0.19801  0.44080  1.0000
  C   C610      1.0  0.56493  0.19085  0.42070  1.0000
  H   H706      1.0  0.51691  0.21532  0.41456  1.0000
  H   H707      1.0  0.52517  0.22855  0.44979  1.0000
  H   H708      1.0  0.58408  0.19303  0.44804  1.0000
  H   H709      1.0  0.57612  0.18042  0.41254  1.0000
  H   H710      1.0  0.56159  0.05838  0.37018  1.0000
  C   C611      1.0  0.63686  0.24097  0.42795  1.0000
  S   S171      1.0  0.63719  0.99725  0.49015  1.0000
  H   H711      1.0  0.56172  0.34254  0.24337  1.0000
  H   H712      1.0  0.71393  0.40360  0.33901  1.0000
  S   S172      1.0  0.59649  0.03193  0.49110  1.0000
  H   H713      1.0  0.70125  0.42234  0.26082  1.0000
  C   C612      1.0  0.64778  0.27113  0.44709  1.0000
  C   C613      1.0  0.63107  0.25880  0.44032  1.0000
  H   H714      1.0  0.59616  0.23363  0.44504  1.0000
  H   H715      1.0  0.67637  0.14915  0.46339  1.0000
  C   C614      1.0  0.51097  0.40706  0.06529  1.0000
  H   H716      1.0  0.73389  0.48575  0.28348  1.0000
  N   N37       1.0  0.60881  0.26479  0.44593  1.0000
  C   C615      1.0  0.70656  0.43641  0.31233  1.0000
  H   H717      1.0  0.55795  0.33595  0.27068  1.0000
  H   H718      1.0  0.60623  0.28617  0.41915  1.0000
  S   S173      1.0  0.50113  0.17860  0.34152  1.0000
  H   H719      1.0  0.51056  0.08571  0.32640  1.0000
  C   C616      1.0  0.72405  0.20723  0.47304  1.0000
  H   H720      1.0  0.58678  0.29077  0.44005  1.0000
  N   N38       1.0  0.53613  0.05849  0.39391  1.0000
  H   H721      1.0  0.61490  0.27827  0.47620  1.0000
  H   H722      1.0  0.64468  0.28466  0.45687  1.0000
  C   C617      1.0  0.67758  0.43928  0.27911  1.0000
  S   S174      1.0  0.61473  0.49345  0.99701  1.0000
  C   C618      1.0  0.55093  0.05270  0.41092  1.0000
  H   H723      1.0  0.52166  0.47513  0.19777  1.0000
  C   C619      1.0  0.61753  0.47278  0.10071  1.0000
  C   C620      1.0  0.61808  0.48382  0.08115  1.0000
  C   C621      1.0  0.52322  0.46124  0.18817  1.0000
  H   H724      1.0  0.50461  0.35012  0.13116  1.0000
  Fe  Fe90      1.0  0.50856  0.19299  0.37246  1.0000
  H   H725      1.0  0.62535  0.23050  0.42218  1.0000
  C   C622      1.0  0.52804  0.42461  0.16467  1.0000
  C   C623      1.0  0.68472  0.18850  0.47608  1.0000
  H   H726      1.0  0.54460  0.05818  0.42650  1.0000
  H   H727      1.0  0.57272  0.46841  0.14653  1.0000
  H   H728      1.0  0.52899  0.40989  0.15647  1.0000
  S   S175      1.0  0.59091  0.49389  0.18886  1.0000
  C   C624      1.0  0.71719  0.48881  0.28143  1.0000
  N   N39       1.0  0.54657  0.31278  0.24982  1.0000
  C   C625      1.0  0.56189  0.32900  0.25505  1.0000
  C   C626      1.0  0.55196  0.30594  0.22802  1.0000
  C   C627      1.0  0.52528  0.32312  0.25013  1.0000
  C   C628      1.0  0.54646  0.29420  0.26457  1.0000
  C   C629      1.0  0.55888  0.29272  0.28286  1.0000
  C   C630      1.0  0.53323  0.27701  0.26109  1.0000
  C   C631      1.0  0.55800  0.27507  0.29665  1.0000
  C   C632      1.0  0.53267  0.25938  0.27486  1.0000
  C   C633      1.0  0.54491  0.25846  0.29266  1.0000
  H   H729      1.0  0.57836  0.32237  0.25484  1.0000
  C   C634      1.0  0.54574  0.05175  0.37342  1.0000
  C   C635      1.0  0.71467  0.44490  0.34914  1.0000
  N   N40       1.0  0.72227  0.43512  0.32913  1.0000
  H   H730      1.0  0.66911  0.18199  0.47697  1.0000
  H   H731      1.0  0.53985  0.29566  0.22177  1.0000
  S   S176      1.0  0.50071  0.32382  0.19995  1.0000
  S   S177      1.0  0.63566  0.14586  0.47930  1.0000
  H   H732      1.0  0.68880  0.12504  0.47197  1.0000
  H   H733      1.0  0.56926  0.30504  0.28697  1.0000
  H   H734      1.0  0.52291  0.27720  0.24785  1.0000
  C   C636      1.0  0.68615  0.21005  0.47097  1.0000
  H   H735      1.0  0.73613  0.40469  0.32059  1.0000
  H   H736      1.0  0.54407  0.24486  0.30344  1.0000
  H   H737      1.0  0.68136  0.27543  0.44770  1.0000
  H   H738      1.0  0.58893  0.26834  0.47420  1.0000
  H   H739      1.0  0.73761  0.17731  0.48110  1.0000
  N   N41       1.0  0.49901  0.45350  0.02771  1.0000
  H   H740      1.0  0.52993  0.39149  0.99504  1.0000
  H   H741      1.0  0.56443  0.40089  0.00885  1.0000
  H   H742      1.0  0.52197  0.41648  0.03457  1.0000
  S   S178      1.0  0.58154  0.48354  0.03753  1.0000
  C   C637      1.0  0.54913  0.09565  0.38985  1.0000
  Fe  Fe91      1.0  0.64306  0.48518  0.21953  1.0000
  H   H743      1.0  0.66682  0.44102  0.26618  1.0000
  C   C638      1.0  0.66891  0.26596  0.44192  1.0000
  H   H744      1.0  0.56522  0.08967  0.38798  1.0000
  C   C639      1.0  0.60360  0.28598  0.43661  1.0000
  S   S179      1.0  0.62186  0.46781  0.14341  1.0000
  C   C640      1.0  0.52532  0.12631  0.39045  1.0000
  Fe  Fe92      1.0  0.62202  0.48106  0.17638  1.0000
  H   H745      1.0  0.55495  0.45842  0.12783  1.0000
  H   H746      1.0  0.52861  0.00709  0.46264  1.0000
  C   C641      1.0  0.56883  0.45427  0.13755  1.0000
  C   C642      1.0  0.54493  0.43896  0.16419  1.0000
  C   C643      1.0  0.51145  0.09114  0.39498  1.0000
  H   H747      1.0  0.59813  0.43081  0.15690  1.0000
  C   C644      1.0  0.58273  0.43241  0.16584  1.0000
  H   H748      1.0  0.70238  0.14266  0.45356  1.0000
  H   H749      1.0  0.70025  0.43725  0.35581  1.0000
  H   H750      1.0  0.58273  0.45154  0.12662  1.0000
  H   H751      1.0  0.69043  0.24455  0.42569  1.0000
  H   H752      1.0  0.59377  0.24913  0.42076  1.0000
  N   N42       1.0  0.70098  0.15288  0.48571  1.0000
  H   H753      1.0  0.50880  0.05009  0.41338  1.0000
  S   S180      1.0  0.49905  0.04340  0.33932  1.0000
  N   N43       1.0  0.56481  0.43551  0.15156  1.0000
  C   C645      1.0  0.54201  0.45723  0.17656  1.0000
  H   H754      1.0  0.54774  0.03421  0.37278  1.0000
  C   C646      1.0  0.52094  0.46031  0.02304  1.0000
  H   H755      1.0  0.61448  0.47575  0.06699  1.0000
  H   H756      1.0  0.58419  0.44582  0.17660  1.0000
  H   H757      1.0  0.58089  0.41785  0.17579  1.0000
  H   H758      1.0  0.72637  0.41934  0.28919  1.0000
  C   C647      1.0  0.56462  0.41675  0.13800  1.0000
  H   H759      1.0  0.55156  0.41808  0.12670  1.0000
  H   H760      1.0  0.55445  0.46839  0.17772  1.0000
  H   H761      1.0  0.62922  0.10467  0.46343  1.0000
  H   H762      1.0  0.56308  0.40183  0.14762  1.0000
  H   H763      1.0  0.57966  0.41487  0.12847  1.0000
  H   H764      1.0  0.56744  0.27427  0.31060  1.0000
  S   S181      1.0  0.60240  0.00044  0.43890  1.0000
  C   C648      1.0  0.63268  0.10265  0.47997  1.0000
  H   H765      1.0  0.61339  0.29847  0.44293  1.0000
  C   C649      1.0  0.56108  0.00469  0.45190  1.0000
  C   C650      1.0  0.59333  0.24985  0.43828  1.0000
  C   C651      1.0  0.67403  0.24850  0.42967  1.0000
  H   H766      1.0  0.55302  0.31968  0.21666  1.0000
  H   H767      1.0  0.50193  0.42748  0.00652  1.0000
  H   H768      1.0  0.65742  0.45702  0.30042  1.0000
  C   C652      1.0  0.63584  0.12052  0.49199  1.0000
  C   C653      1.0  0.60582  0.26561  0.46922  1.0000
  H   H769      1.0  0.49664  0.41760  0.17677  1.0000
  C   C654      1.0  0.50683  0.44708  0.18798  1.0000
  H   H770      1.0  0.55889  0.12803  0.38597  1.0000
  C   C655      1.0  0.69705  0.42882  0.27611  1.0000
  C   C656      1.0  0.67234  0.44832  0.29843  1.0000
  H   H771      1.0  0.52491  0.33779  0.24002  1.0000
  S   S182      1.0  0.59073  0.43645  0.99976  1.0000
  H   H772      1.0  0.71752  0.47605  0.25014  1.0000
  H   H773      1.0  0.70680  0.23613  0.46560  1.0000
  S   S183      1.0  0.67529  0.47981  0.23500  1.0000
  H   H774      1.0  0.52036  0.02879  0.39873  1.0000
  C   C657      1.0  0.68619  0.48748  0.25919  1.0000
  H   H775      1.0  0.50538  0.04876  0.38519  1.0000
  Fe  Fe93      1.0  0.59129  0.21033  0.49113  1.0000
  H   H776      1.0  0.56677  0.05949  0.40808  1.0000
  H   H777      1.0  0.56681  0.01089  0.46621  1.0000
  H   H778      1.0  0.61342  0.45631  0.10135  1.0000
  H   H779      1.0  0.51863  0.36030  0.09531  1.0000
  C   C658      1.0  0.74153  0.44617  0.32172  1.0000
  H   H780      1.0  0.53562  0.05698  0.36010  1.0000
  C   C659      1.0  0.72282  0.18568  0.47835  1.0000
  H   H781      1.0  0.63151  0.06853  0.47967  1.0000
  H   H782      1.0  0.51317  0.31269  0.24418  1.0000
  H   H783      1.0  0.52244  0.24642  0.27190  1.0000
  C   C660      1.0  0.70301  0.17563  0.48009  1.0000
  H   H784      1.0  0.70256  0.31347  0.49084  1.0000
  C   C661      1.0  0.55739  0.41053  0.99643  1.0000
  C   C662      1.0  0.54572  0.11760  0.38860  1.0000
  H   H785      1.0  0.73926  0.21471  0.47202  1.0000
  C   C663      1.0  0.50824  0.11312  0.39366  1.0000
  C   C664      1.0  0.72813  0.41270  0.33416  1.0000
  H   H786      1.0  0.55369  0.03527  0.41238  1.0000
  Fe  Fe94      1.0  0.60655  0.00283  0.47369  1.0000
  H   H787      1.0  0.51994  0.32747  0.26640  1.0000
  C   C665      1.0  0.68658  0.44711  0.31482  1.0000
  C   C666      1.0  0.72138  0.14182  0.49042  1.0000
  H   H788      1.0  0.67192  0.21970  0.46859  1.0000
  H   H789      1.0  0.71125  0.46219  0.34682  1.0000
  S   S184      1.0  0.50492  0.35308  0.05357  1.0000
  H   H790      1.0  0.53194  0.44694  0.01884  1.0000
  C   C667      1.0  0.63400  0.08213  0.48913  1.0000
  C   C668      1.0  0.70578  0.21936  0.46933  1.0000
  H   H791      1.0  0.73256  0.14210  0.47648  1.0000
  H   H792      1.0  0.49744  0.08194  0.39710  1.0000
  H   H793      1.0  0.73777  0.46312  0.31780  1.0000
  C   C669      1.0  0.51150  0.42083  0.04769  1.0000
  H   H794      1.0  0.72679  0.44334  0.36151  1.0000
  H   H795      1.0  0.74311  0.44061  0.44074  1.0000
  H   H796      1.0  0.73943  0.41132  0.34730  1.0000
  C   C670      1.0  0.70786  0.48344  0.26244  1.0000
  H   H797      1.0  0.66754  0.29671  0.49069  1.0000
  C   C671      1.0  0.49726  0.08703  0.33752  1.0000
  H   H798      1.0  0.50627  0.21570  0.48776  1.0000
  C   C672      1.0  0.49845  0.43947  0.04681  1.0000
  C   C673      1.0  0.49739  0.41127  0.08247  1.0000
  C   C674      1.0  0.49634  0.34577  0.11737  1.0000
  H   H799      1.0  0.49673  0.40020  0.09583  1.0000
  H   H800      1.0  0.71913  0.12481  0.49475  1.0000
  H   H801      1.0  0.64677  0.09500  0.53864  1.0000
  H   H802      1.0  0.65801  0.45642  0.77153  1.0000
  H   H803      1.0  0.56109  0.01828  0.64271  1.0000
  H   H804      1.0  0.69283  0.15902  0.51830  1.0000
  H   H805      1.0  0.54339  0.13332  0.59796  1.0000
  C   C675      1.0  0.68624  0.42697  0.75783  1.0000
  H   H806      1.0  0.67056  0.15652  0.50212  1.0000
  H   H807      1.0  0.69577  0.23732  0.51061  1.0000
  H   H808      1.0  0.50429  0.00522  0.58997  1.0000
  N   N44       1.0  0.60744  0.44125  0.92285  1.0000
  H   H809      1.0  0.71952  0.49207  0.55734  1.0000
  C   C676      1.0  0.68643  0.49448  0.74560  1.0000
  S   S185      1.0  0.49790  0.14122  0.63952  1.0000
  Fe  Fe95      1.0  0.61008  0.45937  0.80548  1.0000
  S   S186      1.0  0.60204  0.42474  0.80413  1.0000
  S   S187      1.0  0.64197  0.46758  0.81678  1.0000
  H   H810      1.0  0.53001  0.03476  0.67491  1.0000
  S   S188      1.0  0.50398  0.40578  0.80350  1.0000
  H   H811      1.0  0.66697  0.38942  0.76764  1.0000
  H   H812      1.0  0.59672  0.39876  0.91758  1.0000
  S   S189      1.0  0.72314  0.47759  0.68338  1.0000
  Fe  Fe96      1.0  0.62557  0.02526  0.50943  1.0000
  H   H813      1.0  0.52130  0.10737  0.68218  1.0000
  C   C677      1.0  0.54317  0.27143  0.65013  1.0000
  H   H814      1.0  0.53177  0.44547  0.95245  1.0000
  C   C678      1.0  0.52864  0.41785  0.97278  1.0000
  C   C679      1.0  0.68930  0.47643  0.71205  1.0000
  H   H815      1.0  0.54595  0.25929  0.63782  1.0000
  S   S190      1.0  0.56301  0.49108  0.99039  1.0000
  Fe  Fe97      1.0  0.60712  0.19694  0.53439  1.0000
  S   S191      1.0  0.59493  0.18737  0.56709  1.0000
  S   S192      1.0  0.64100  0.19237  0.52249  1.0000
  H   H816      1.0  0.69590  0.45412  0.77544  1.0000
  C   C680      1.0  0.70119  0.29691  0.49522  1.0000
  H   H817      1.0  0.53777  0.28598  0.64146  1.0000
  H   H818      1.0  0.58138  0.12500  0.54192  1.0000
  C   C681      1.0  0.72516  0.48547  0.54196  1.0000
  H   H819      1.0  0.68283  0.46564  0.70122  1.0000
  C   C682      1.0  0.53568  0.22272  0.59269  1.0000
  C   C683      1.0  0.54900  0.23243  0.57743  1.0000
  C   C684      1.0  0.56699  0.22155  0.56925  1.0000
  C   C685      1.0  0.57211  0.20110  0.57670  1.0000
  C   C686      1.0  0.55902  0.19154  0.59228  1.0000
  C   C687      1.0  0.54069  0.20220  0.60007  1.0000
  H   H820      1.0  0.54542  0.24842  0.57190  1.0000
  H   H821      1.0  0.57719  0.22921  0.55757  1.0000
  H   H822      1.0  0.56300  0.17581  0.59829  1.0000
  H   H823      1.0  0.53052  0.19455  0.61182  1.0000
  C   C688      1.0  0.57482  0.41928  0.80393  1.0000
  C   C689      1.0  0.55953  0.43564  0.80490  1.0000
  C   C690      1.0  0.53796  0.43112  0.80472  1.0000
  C   C691      1.0  0.53141  0.41024  0.80340  1.0000
  C   C692      1.0  0.54666  0.39377  0.80247  1.0000
  C   C693      1.0  0.56831  0.39830  0.80284  1.0000
  H   H824      1.0  0.56429  0.45185  0.80558  1.0000
  H   H825      1.0  0.52630  0.44396  0.80540  1.0000
  H   H826      1.0  0.54182  0.37763  0.80123  1.0000
  H   H827      1.0  0.58005  0.38555  0.80197  1.0000
  C   C694      1.0  0.52429  0.29062  0.72044  1.0000
  H   H828      1.0  0.53333  0.09593  0.59818  1.0000
  C   C695      1.0  0.59422  0.39833  0.88439  1.0000
  H   H829      1.0  0.71635  0.28317  0.57663  1.0000
  C   C696      1.0  0.54325  0.00677  0.55200  1.0000
  H   H830      1.0  0.70716  0.33341  0.54550  1.0000
  H   H831      1.0  0.68393  0.40971  0.79683  1.0000
  C   C697      1.0  0.56316  0.13085  0.56976  1.0000
  S   S193      1.0  0.50374  0.35463  0.99002  1.0000
  H   H832      1.0  0.60875  0.43680  0.95675  1.0000
  H   H833      1.0  0.59558  0.46829  0.94022  1.0000
  C   C698      1.0  0.70904  0.48535  0.70701  1.0000
  H   H834      1.0  0.50829  0.25002  0.64412  1.0000
  N   N45       1.0  0.57299  0.08185  0.53619  1.0000
  H   H835      1.0  0.64309  0.13127  0.52276  1.0000
  H   H836      1.0  0.52521  0.28626  0.73706  1.0000
  S   S194      1.0  0.64177  0.05365  0.52221  1.0000
  N   N46       1.0  0.52756  0.26441  0.66669  1.0000
  C   C699      1.0  0.59776  0.40841  0.90327  1.0000
  C   C700      1.0  0.69178  0.41529  0.73949  1.0000
  H   H837      1.0  0.51907  0.37226  0.83471  1.0000
  C   C701      1.0  0.69962  0.44370  0.76251  1.0000
  C   C702      1.0  0.52363  0.01064  0.56212  1.0000
  H   H838      1.0  0.59289  0.40174  0.85046  1.0000
  C   C703      1.0  0.55491  0.07188  0.52649  1.0000
  C   C704      1.0  0.65154  0.44109  0.76711  1.0000
  Fe  Fe98      1.0  0.62611  0.17642  0.49554  1.0000
  C   C705      1.0  0.58694  0.06498  0.54533  1.0000
  H   H839      1.0  0.51208  0.01039  0.49699  1.0000
  H   H840      1.0  0.51126  0.01925  0.55388  1.0000
  C   C706      1.0  0.52466  0.21988  0.52230  1.0000
  H   H841      1.0  0.67676  0.43720  0.79956  1.0000
  C   C707      1.0  0.71270  0.29555  0.56438  1.0000
  N   N47       1.0  0.52219  0.37806  0.86791  1.0000
  H   H842      1.0  0.64751  0.44259  0.75018  1.0000
  N   N48       1.0  0.72675  0.31384  0.56580  1.0000
  H   H843      1.0  0.63650  0.43898  0.77646  1.0000
  C   C708      1.0  0.52402  0.36694  0.88870  1.0000
  C   C709      1.0  0.52635  0.34456  0.89094  1.0000
  H   H844      1.0  0.73571  0.44092  0.72161  1.0000
  C   C710      1.0  0.51663  0.31696  0.69340  1.0000
  H   H845      1.0  0.50958  0.04205  0.65671  1.0000
  C   C711      1.0  0.60539  0.42785  0.94240  1.0000
  C   C712      1.0  0.71935  0.28491  0.50028  1.0000
  H   H846      1.0  0.61677  0.41410  0.94225  1.0000
  C   C713      1.0  0.50702  0.26181  0.65679  1.0000
  S   S195      1.0  0.60930  0.00423  0.53370  1.0000
  C   C714      1.0  0.64268  0.09710  0.52227  1.0000
  H   H847      1.0  0.72362  0.31694  0.59953  1.0000
  H   H848      1.0  0.73542  0.47161  0.54638  1.0000
  C   C715      1.0  0.55731  0.08238  0.63835  1.0000
  H   H849      1.0  0.57451  0.04183  0.63539  1.0000
  C   C716      1.0  0.52345  0.37856  0.90758  1.0000
  S   S196      1.0  0.54797  0.01704  0.52634  1.0000
  H   H850      1.0  0.59083  0.38163  0.88469  1.0000
  H   H851      1.0  0.56749  0.07624  0.62579  1.0000
  C   C717      1.0  0.55827  0.44112  0.97268  1.0000
  H   H852      1.0  0.73375  0.34195  0.54760  1.0000
  H   H853      1.0  0.54701  0.05161  0.61078  1.0000
  H   H854      1.0  0.58909  0.42196  0.94489  1.0000
  H   H855      1.0  0.55861  0.27458  0.65709  1.0000
  H   H856      1.0  0.56886  0.11389  0.63297  1.0000
  H   H857      1.0  0.56775  0.14726  0.56985  1.0000
  C   C718      1.0  0.56525  0.09618  0.55307  1.0000
  C   C719      1.0  0.55178  0.08857  0.56983  1.0000
  C   C720      1.0  0.57093  0.11775  0.55367  1.0000
  C   C721      1.0  0.54393  0.10190  0.58573  1.0000
  H   H858      1.0  0.54345  0.08403  0.52036  1.0000
  C   C722      1.0  0.54526  0.11289  0.65807  1.0000
  Fe  Fe99      1.0  0.63570  0.22315  0.50390  1.0000
  C   C723      1.0  0.51949  0.30170  0.67795  1.0000
  H   H859      1.0  0.71117  0.47981  0.53387  1.0000
  C   C724      1.0  0.72386  0.32779  0.54698  1.0000
  H   H860      1.0  0.53199  0.02916  0.61786  1.0000
  C   C725      1.0  0.59279  0.45982  0.92543  1.0000
  C   C726      1.0  0.70958  0.42019  0.72678  1.0000
  S   S197      1.0  0.60280  0.22852  0.51809  1.0000
  H   H861      1.0  0.51906  0.07006  0.67592  1.0000
  H   H862      1.0  0.64197  0.40077  0.77649  1.0000
  H   H863      1.0  0.52676  0.33424  0.87764  1.0000
  H   H864      1.0  0.59359  0.05422  0.53301  1.0000
  H   H865      1.0  0.51227  0.24282  0.55429  1.0000
  H   H866      1.0  0.68242  0.40258  0.73435  1.0000
  C   C727      1.0  0.53492  0.24326  0.67475  1.0000
  H   H867      1.0  0.53763  0.23192  0.66175  1.0000
  C   C728      1.0  0.59536  0.40955  0.86516  1.0000
  C   C729      1.0  0.58517  0.09275  0.51887  1.0000
  C   C730      1.0  0.60362  0.44112  0.88345  1.0000
  C   C731      1.0  0.62946  0.44864  0.92128  1.0000
  H   H868      1.0  0.60749  0.45765  0.88215  1.0000
  H   H869      1.0  0.72709  0.46153  0.75339  1.0000
  H   H870      1.0  0.59063  0.08163  0.50634  1.0000
  C   C732      1.0  0.52703  0.27518  0.70517  1.0000
  H   H871      1.0  0.65001  0.40408  0.74956  1.0000
  S   S198      1.0  0.65370  0.25422  0.49855  1.0000
  H   H872      1.0  0.60101  0.43954  0.84971  1.0000
  C   C733      1.0  0.71709  0.26336  0.50590  1.0000
  H   H873      1.0  0.64100  0.43511  0.91972  1.0000
  C   C734      1.0  0.53895  0.43566  0.96465  1.0000
  H   H874      1.0  0.52495  0.01819  0.65344  1.0000
  C   C735      1.0  0.53163  0.10024  0.67017  1.0000
  C   C736      1.0  0.52588  0.34641  0.92906  1.0000
  C   C737      1.0  0.60275  0.43018  0.90334  1.0000
  H   H875      1.0  0.53597  0.35367  0.84804  1.0000
  H   H876      1.0  0.59971  0.09962  0.52471  1.0000
  H   H877      1.0  0.68523  0.13348  0.50973  1.0000
  N   N49       1.0  0.54142  0.04669  0.64445  1.0000
  H   H878      1.0  0.50015  0.39924  0.85193  1.0000
  C   C738      1.0  0.53484  0.04567  0.62229  1.0000
  C   C739      1.0  0.56215  0.03537  0.64640  1.0000
  C   C740      1.0  0.54317  0.06912  0.65002  1.0000
  C   C741      1.0  0.53048  0.07868  0.66630  1.0000
  C   C742      1.0  0.63923  0.07923  0.51028  1.0000
  C   C743      1.0  0.56737  0.42872  0.98874  1.0000
  C   C744      1.0  0.65610  0.40345  0.76582  1.0000
  H   H879      1.0  0.52577  0.33852  0.94449  1.0000
  Fe  Fe100     1.0  0.62420  0.49234  0.83573  1.0000
  H   H880      1.0  0.54622  0.06120  0.53770  1.0000
  S   S199      1.0  0.59225  0.48252  0.82607  1.0000
  C   C745      1.0  0.52498  0.28034  0.68333  1.0000
  S   S200      1.0  0.63438  0.49368  0.86976  1.0000
  Fe  Fe101     1.0  0.58091  0.00933  0.51403  1.0000
  H   H881      1.0  0.56793  0.03627  0.66273  1.0000
  H   H882      1.0  0.54548  0.12974  0.66073  1.0000
  H   H883      1.0  0.56622  0.45482  0.96631  1.0000
  C   C746      1.0  0.52719  0.33457  0.91088  1.0000
  H   H884      1.0  0.51540  0.20287  0.55926  1.0000
  H   H885      1.0  0.59464  0.47176  0.91239  1.0000
  C   C747      1.0  0.67911  0.26565  0.50035  1.0000
  C   C748      1.0  0.59996  0.43091  0.86473  1.0000
  H   H886      1.0  0.51614  0.32313  0.72661  1.0000
  H   H887      1.0  0.57559  0.10558  0.51110  1.0000
  C   C749      1.0  0.52425  0.36837  0.92741  1.0000
  H   H888      1.0  0.57603  0.45497  0.92603  1.0000
  H   H889      1.0  0.55560  0.38184  0.86350  1.0000
  C   C750      1.0  0.51976  0.00292  0.58276  1.0000
  C   C751      1.0  0.67795  0.48114  0.73103  1.0000
  H   H890      1.0  0.55010  0.24416  0.68292  1.0000
  H   H891      1.0  0.53975  0.40028  0.84835  1.0000
  N   N50       1.0  0.66672  0.42325  0.77080  1.0000
  H   H892      1.0  0.56021  0.06172  0.51311  1.0000
  C   C752      1.0  0.72237  0.43666  0.73192  1.0000
  H   H893      1.0  0.52294  0.23602  0.68583  1.0000
  S   S201      1.0  0.61273  0.48129  0.77706  1.0000
  C   C753      1.0  0.52122  0.36351  0.85000  1.0000
  C   C754      1.0  0.67141  0.42198  0.79361  1.0000
  H   H894      1.0  0.54717  0.07226  0.57067  1.0000
  C   C755      1.0  0.71965  0.32584  0.58474  1.0000
  C   C756      1.0  0.54956  0.12301  0.58566  1.0000
  H   H895      1.0  0.52804  0.31744  0.91228  1.0000
  H   H896      1.0  0.63227  0.45936  0.90734  1.0000
  H   H897      1.0  0.70230  0.32923  0.58515  1.0000
  H   H898      1.0  0.65712  0.41810  0.80359  1.0000
  H   H899      1.0  0.60067  0.07177  0.55299  1.0000
  H   H900      1.0  0.63347  0.45758  0.93543  1.0000
  C   C757      1.0  0.51912  0.31144  0.71458  1.0000
  H   H901      1.0  0.50766  0.35280  0.85216  1.0000
  H   H902      1.0  0.51681  0.30665  0.66181  1.0000
  H   H903      1.0  0.51995  0.05507  0.61985  1.0000
  S   S202      1.0  0.59294  0.17920  0.50860  1.0000
  C   C758      1.0  0.55824  0.10395  0.64232  1.0000
  C   C759      1.0  0.52582  0.03502  0.65800  1.0000
  H   H904      1.0  0.57846  0.05479  0.55719  1.0000
  H   H905      1.0  0.52318  0.37750  0.94166  1.0000
  C   C760      1.0  0.71750  0.44825  0.74985  1.0000
  H   H906      1.0  0.53000  0.25921  0.71099  1.0000
  C   C761      1.0  0.64056  0.11768  0.51331  1.0000
  H   H907      1.0  0.69569  0.30030  0.56636  1.0000
  H   H908      1.0  0.54197  0.40365  0.87607  1.0000
  S   S203      1.0  0.51261  0.23635  0.60176  1.0000
  H   H909      1.0  0.72682  0.34170  0.58490  1.0000
  H   H910      1.0  0.66285  0.47419  0.73447  1.0000
  H   H911      1.0  0.73094  0.25387  0.50991  1.0000
  H   H912      1.0  0.71396  0.28820  0.54862  1.0000
  S   S204      1.0  0.50446  0.20197  0.65393  1.0000
  H   H913      1.0  0.72867  0.31963  0.53222  1.0000
  C   C762      1.0  0.53789  0.40520  0.98860  1.0000
  C   C763      1.0  0.74372  0.49320  0.50767  1.0000
  C   C764      1.0  0.54068  0.39156  0.86384  1.0000
  H   H914      1.0  0.52868  0.20486  0.51412  1.0000
  H   H915      1.0  0.71329  0.41152  0.71255  1.0000
  H   H916      1.0  0.53695  0.22155  0.53423  1.0000
  H   H917      1.0  0.52663  0.23328  0.51070  1.0000
  H   H918      1.0  0.50072  0.27674  0.64946  1.0000
  H   H919      1.0  0.51186  0.33305  0.68905  1.0000
  Fe  Fe102     1.0  0.64335  0.49146  0.78976  1.0000
  C   C765      1.0  0.69713  0.25387  0.50622  1.0000
  S   S205      1.0  0.49991  0.34056  0.79975  1.0000
  S   S206      1.0  0.74281  0.35995  0.50583  1.0000
  H   H920      1.0  0.50310  0.40483  0.87899  1.0000
  S   S207      1.0  0.50362  0.41244  0.96396  1.0000
  C   C766      1.0  0.50269  0.39169  0.86780  1.0000
  C   C767      1.0  0.68687  0.15040  0.50476  1.0000
  C   C768      1.0  0.74388  0.47133  0.50293  1.0000
  H   H921      1.0  0.52199  0.39562  0.90727  1.0000
  H   H922      1.0  0.73878  0.45929  0.51424  1.0000
  H   H923      1.0  0.50380  0.18660  0.54024  1.0000
  S   S208      1.0  0.74523  0.29563  0.49922  1.0000
  H   H924      1.0  0.72899  0.14893  0.50399  1.0000
  C   C769      1.0  0.50233  0.20215  0.54800  1.0000
  N   N51       1.0  0.50299  0.21983  0.53214  1.0000
  H   H925      1.0  0.49882  0.25371  0.53178  1.0000
  C   C770      1.0  0.49949  0.24005  0.54321  1.0000
  H   H926      1.0  0.64526  0.49584  0.91290  1.0000
  C   C771      1.0  0.68131  0.28729  0.49509  1.0000
  H   H927      1.0  0.49690  0.10100  0.62043  1.0000
  C   C772      1.0  0.54607  0.70496  0.29076  1.0000
  N   N52       1.0  0.56697  0.54406  0.09008  1.0000
  H   H928      1.0  0.51310  0.74646  0.27686  1.0000
  H   H929      1.0  0.52937  0.75449  0.49151  1.0000
  C   C773      1.0  0.52007  0.71953  0.25844  1.0000
  C   C774      1.0  0.50962  0.77470  0.44630  1.0000
  C   C775      1.0  0.52245  0.73190  0.27606  1.0000
  H   H930      1.0  0.59127  0.54209  0.27798  1.0000
  H   H931      1.0  0.66864  0.89094  0.49156  1.0000
  H   H932      1.0  0.61114  0.93530  0.47472  1.0000
  C   C776      1.0  0.50905  0.52374  0.02349  1.0000
  H   H933      1.0  0.57836  0.98677  0.40409  1.0000
  Fe  Fe103     1.0  0.60104  0.79826  0.46756  1.0000
  S   S209      1.0  0.58442  0.80808  0.43756  1.0000
  S   S210      1.0  0.63612  0.79772  0.47251  1.0000
  H   H934      1.0  0.53970  0.80327  0.45909  1.0000
  S   S211      1.0  0.52641  0.75679  0.37876  1.0000
  H   H935      1.0  0.56924  0.72962  0.31849  1.0000
  H   H936      1.0  0.51434  0.89068  0.33166  1.0000
  S   S212      1.0  0.50100  0.57114  0.20409  1.0000
  N   N53       1.0  0.72585  0.66190  0.43473  1.0000
  C   C777      1.0  0.51623  0.73720  0.32353  1.0000
  H   H937      1.0  0.74025  0.59783  0.40147  1.0000
  H   H938      1.0  0.69558  0.66955  0.44995  1.0000
  H   H939      1.0  0.52766  0.68993  0.24377  1.0000
  H   H940      1.0  0.71533  0.68859  0.45341  1.0000
  C   C778      1.0  0.61602  0.54068  0.30042  1.0000
  C   C779      1.0  0.54897  0.55646  0.14685  1.0000
  Fe  Fe104     1.0  0.60961  0.51762  0.20502  1.0000
  S   S213      1.0  0.60006  0.55237  0.20543  1.0000
  H   H941      1.0  0.64378  0.54011  0.31898  1.0000
  H   H942      1.0  0.51801  0.55268  0.16116  1.0000
  H   H943      1.0  0.63512  0.53079  0.09742  1.0000
  H   H944      1.0  0.50954  0.72491  0.24614  1.0000
  H   H945      1.0  0.70358  0.67015  0.41084  1.0000
  Fe  Fe105     1.0  0.55885  0.50589  0.02182  1.0000
  C   C780      1.0  0.54351  0.61858  0.01459  1.0000
  C   C781      1.0  0.52861  0.56671  0.20476  1.0000
  C   C782      1.0  0.54279  0.58324  0.20329  1.0000
  C   C783      1.0  0.56473  0.57878  0.20362  1.0000
  C   C784      1.0  0.57253  0.55781  0.20543  1.0000
  C   C785      1.0  0.55827  0.54137  0.20702  1.0000
  C   C786      1.0  0.53645  0.54580  0.20653  1.0000
  H   H946      1.0  0.53689  0.59942  0.20185  1.0000
  H   H947      1.0  0.57565  0.59159  0.20239  1.0000
  H   H948      1.0  0.56400  0.52521  0.20878  1.0000
  H   H949      1.0  0.52559  0.53296  0.20753  1.0000
  H   H950      1.0  0.55535  0.56260  0.16105  1.0000
  C   C787      1.0  0.62423  0.50485  0.07981  1.0000
  H   H951      1.0  0.58569  0.85212  0.44379  1.0000
  H   H952      1.0  0.52521  0.57540  0.04134  1.0000
  C   C788      1.0  0.56772  0.79322  0.42236  1.0000
  C   C789      1.0  0.56925  0.77115  0.42199  1.0000
  C   C790      1.0  0.55645  0.76013  0.40857  1.0000
  C   C791      1.0  0.54170  0.77105  0.39590  1.0000
  C   C792      1.0  0.53972  0.79304  0.39682  1.0000
  C   C793      1.0  0.55288  0.80408  0.40979  1.0000
  H   H953      1.0  0.58072  0.76266  0.43151  1.0000
  H   H954      1.0  0.55803  0.74309  0.40795  1.0000
  H   H955      1.0  0.52843  0.80161  0.38712  1.0000
  H   H956      1.0  0.55165  0.82117  0.40996  1.0000
  C   C794      1.0  0.68324  0.50222  0.29435  1.0000
  S   S214      1.0  0.61300  0.49811  0.23496  1.0000
  C   C795      1.0  0.71276  0.67133  0.45219  1.0000
  H   H957      1.0  0.62176  0.90020  0.46964  1.0000
  H   H958      1.0  0.64321  0.92175  0.42684  1.0000
  H   H959      1.0  0.52112  0.50745  0.99601  1.0000
  H   H960      1.0  0.61001  0.86398  0.47044  1.0000
  H   H961      1.0  0.58911  0.94782  0.42234  1.0000
  C   C796      1.0  0.53028  0.69982  0.25708  1.0000
  C   C797      1.0  0.54332  0.69259  0.27315  1.0000
  C   C798      1.0  0.50881  0.51775  0.00241  1.0000
  H   H962      1.0  0.54141  0.54796  0.06828  1.0000
  H   H963      1.0  0.52796  0.76840  0.29778  1.0000
  Fe  Fe106     1.0  0.49625  0.77127  0.36551  1.0000
  S   S215      1.0  0.50433  0.99204  0.42983  1.0000
  C   C799      1.0  0.49906  0.88958  0.33972  1.0000
  C   C800      1.0  0.55648  0.55522  0.07219  1.0000
  C   C801      1.0  0.62985  0.51469  0.09833  1.0000
  H   H964      1.0  0.55609  0.69822  0.30276  1.0000
  C   C802      1.0  0.53163  0.99463  0.43146  1.0000
  H   H965      1.0  0.53279  0.61285  0.04675  1.0000
  H   H966      1.0  0.60545  0.53708  0.31376  1.0000
  S   S216      1.0  0.74352  0.63034  0.48904  1.0000
  C   C803      1.0  0.73136  0.60612  0.41380  1.0000
  C   C804      1.0  0.56186  0.55432  0.12862  1.0000
  C   C805      1.0  0.53563  0.72507  0.29274  1.0000
  H   H967      1.0  0.54357  0.76979  0.32022  1.0000
  H   H968      1.0  0.58810  0.94426  0.46098  1.0000
  C   C806      1.0  0.63679  0.93126  0.44024  1.0000
  H   H969      1.0  0.63302  0.51156  0.13223  1.0000
  H   H970      1.0  0.57801  0.55902  0.12981  1.0000
  C   C807      1.0  0.70709  0.60528  0.44390  1.0000
  C   C808      1.0  0.59097  0.90316  0.42646  1.0000
  H   H971      1.0  0.49864  0.76401  0.41673  1.0000
  H   H972      1.0  0.58495  0.91321  0.41387  1.0000
  C   C809      1.0  0.72289  0.63893  0.43256  1.0000
  C   C810      1.0  0.55388  0.54638  0.10977  1.0000
  C   C811      1.0  0.53246  0.54032  0.11059  1.0000
  C   C812      1.0  0.51969  0.54264  0.12890  1.0000
  C   C813      1.0  0.54566  0.98906  0.41485  1.0000
  H   H973      1.0  0.52529  0.77633  0.43940  1.0000
  H   H974      1.0  0.52544  0.53373  0.09703  1.0000
  H   H975      1.0  0.65718  0.49982  0.27334  1.0000
  C   C814      1.0  0.53185  0.58487  0.02838  1.0000
  N   N54       1.0  0.65780  0.55379  0.24661  1.0000
  C   C815      1.0  0.65529  0.53731  0.23082  1.0000
  C   C816      1.0  0.65190  0.57465  0.23690  1.0000
  C   C817      1.0  0.68058  0.55393  0.25149  1.0000
  C   C818      1.0  0.64375  0.54953  0.26532  1.0000
  C   C819      1.0  0.62164  0.54795  0.26303  1.0000
  C   C820      1.0  0.65133  0.54685  0.28611  1.0000
  C   C821      1.0  0.60806  0.54350  0.28031  1.0000
  C   C822      1.0  0.63758  0.54242  0.30332  1.0000
  C   C823      1.0  0.56749  0.99128  0.41683  1.0000
  H   H976      1.0  0.63934  0.53800  0.22410  1.0000
  H   H977      1.0  0.66671  0.53888  0.21715  1.0000
  H   H978      1.0  0.65776  0.52124  0.23798  1.0000
  H   H979      1.0  0.63555  0.57503  0.23093  1.0000
  H   H980      1.0  0.66247  0.57865  0.22305  1.0000
  H   H981      1.0  0.65271  0.58745  0.24849  1.0000
  H   H982      1.0  0.68606  0.53837  0.25835  1.0000
  H   H983      1.0  0.69071  0.55679  0.23704  1.0000
  H   H984      1.0  0.68392  0.56660  0.26260  1.0000
  H   H985      1.0  0.61465  0.54997  0.24776  1.0000
  H   H986      1.0  0.66786  0.54769  0.28951  1.0000
  C   C824      1.0  0.60519  0.91038  0.44139  1.0000
  C   C825      1.0  0.56962  0.52133  0.08524  1.0000
  C   C826      1.0  0.62868  0.50382  0.11808  1.0000
  H   H987      1.0  0.51206  0.72070  0.32810  1.0000
  H   H988      1.0  0.56652  0.55470  0.05740  1.0000
  C   C827      1.0  0.51279  0.80606  0.49280  1.0000
  H   H989      1.0  0.50320  0.74407  0.31403  1.0000
  H   H990      1.0  0.59769  0.54431  0.10364  1.0000
  H   H991      1.0  0.67353  0.50921  0.30681  1.0000
  C   C828      1.0  0.55335  0.73017  0.32653  1.0000
  H   H992      1.0  0.57337  0.87700  0.41582  1.0000
  S   S217      1.0  0.58215  0.53092  0.01416  1.0000
  S   S218      1.0  0.64076  0.50647  0.19032  1.0000
  C   C829      1.0  0.70931  0.62699  0.44637  1.0000
  H   H993      1.0  0.53154  0.55968  0.00737  1.0000
  H   H994      1.0  0.58756  0.56995  0.09470  1.0000
  C   C830      1.0  0.73393  0.62775  0.41627  1.0000
  H   H995      1.0  0.71660  0.57797  0.42596  1.0000
  H   H996      1.0  0.73061  0.66880  0.40129  1.0000
  H   H997      1.0  0.64339  0.94737  0.43855  1.0000
  C   C831      1.0  0.54125  0.79097  0.47191  1.0000
  H   H998      1.0  0.59780  0.55097  0.07626  1.0000
  H   H999      1.0  0.55100  0.67709  0.27210  1.0000
  C   C832      1.0  0.52792  0.55078  0.14697  1.0000
  C   C833      1.0  0.70968  0.72618  0.48669  1.0000
  H   H1000     1.0  0.57971  0.51895  0.07069  1.0000
  H   H1001     1.0  0.68756  0.75243  0.48116  1.0000
  S   S219      1.0  0.50029  0.93305  0.34174  1.0000
  S   S220      1.0  0.73895  0.69349  0.49365  1.0000
  H   H1002     1.0  0.57737  0.51229  0.09833  1.0000
  N   N55       1.0  0.53682  0.73786  0.31185  1.0000
  C   C834      1.0  0.54124  0.76024  0.30602  1.0000
  H   H1003     1.0  0.61167  0.93738  0.40704  1.0000
  C   C835      1.0  0.67392  0.49692  0.27533  1.0000
  H   H1004     1.0  0.61354  0.96092  0.42163  1.0000
  H   H1005     1.0  0.51639  0.74635  0.33819  1.0000
  H   H1006     1.0  0.55433  0.51393  0.08240  1.0000
  H   H1007     1.0  0.71690  0.66421  0.46781  1.0000
  H   H1008     1.0  0.51102  0.50580  0.23178  1.0000
  C   C836      1.0  0.50456  0.77935  0.46772  1.0000
  C   C837      1.0  0.72012  0.67337  0.41492  1.0000
  H   H1009     1.0  0.64329  0.92422  0.45501  1.0000
  C   C838      1.0  0.70492  0.49829  0.29755  1.0000
  N   N56       1.0  0.61332  0.93208  0.44074  1.0000
  C   C839      1.0  0.61145  0.89572  0.45747  1.0000
  C   C840      1.0  0.58837  0.55279  0.09132  1.0000
  S   S221      1.0  0.52907  0.51462  0.03996  1.0000
  C   C841      1.0  0.60460  0.87495  0.45819  1.0000
  C   C842      1.0  0.60656  0.94497  0.42207  1.0000
  H   H1010     1.0  0.54641  0.63512  0.01698  1.0000
  C   C843      1.0  0.59095  0.86826  0.44318  1.0000
  C   C844      1.0  0.58406  0.88234  0.42742  1.0000
  C   C845      1.0  0.53525  0.57612  0.00852  1.0000
  H   H1011     1.0  0.55569  0.76134  0.29559  1.0000
  H   H1012     1.0  0.69701  0.59638  0.45485  1.0000
  H   H1013     1.0  0.49811  0.85553  0.33719  1.0000
  H   H1014     1.0  0.54905  0.77656  0.46517  1.0000
  H   H1015     1.0  0.55426  0.74065  0.34033  1.0000
  C   C846      1.0  0.71805  0.59488  0.42763  1.0000
  H   H1016     1.0  0.54981  0.71429  0.33351  1.0000
  C   C847      1.0  0.60568  0.94323  0.45991  1.0000
  H   H1017     1.0  0.55295  0.57212  0.07575  1.0000
  H   H1018     1.0  0.70051  0.63394  0.45946  1.0000
  C   C848      1.0  0.53598  0.60603  0.03141  1.0000
  S   S222      1.0  0.62477  0.51923  0.05533  1.0000
  Fe  Fe107     1.0  0.60551  0.50766  0.02862  1.0000
  S   S223      1.0  0.49920  0.63629  0.19729  1.0000
  H   H1019     1.0  0.72233  0.73332  0.47737  1.0000
  S   S224      1.0  0.71559  0.50574  0.32191  1.0000
  H   H1020     1.0  0.50859  0.81858  0.48086  1.0000
  H   H1021     1.0  0.72137  0.69079  0.41632  1.0000
  H   H1022     1.0  0.50178  0.97882  0.47859  1.0000
  S   S225      1.0  0.59468  0.77209  0.49139  1.0000
  C   C849      1.0  0.68993  0.73716  0.48889  1.0000
  H   H1023     1.0  0.61148  0.95966  0.45989  1.0000
  S   S226      1.0  0.51205  0.98765  0.36680  1.0000
  H   H1024     1.0  0.53980  0.98258  0.40071  1.0000
  H   H1025     1.0  0.49785  0.59540  0.09817  1.0000
  H   H1026     1.0  0.50332  0.53814  0.12914  1.0000
  S   S227      1.0  0.59453  0.82389  0.49073  1.0000
  H   H1027     1.0  0.55259  0.79705  0.48317  1.0000
  N   N57       1.0  0.52046  0.78641  0.48240  1.0000
  H   H1028     1.0  0.69098  0.79116  0.48892  1.0000
  S   S228      1.0  0.58790  0.98086  0.49484  1.0000
  H   H1029     1.0  0.74504  0.63555  0.40558  1.0000
  H   H1030     1.0  0.51326  0.83300  0.59186  1.0000
  H   H1031     1.0  0.65210  0.57041  0.76692  1.0000
  H   H1032     1.0  0.49984  0.54494  0.93995  1.0000
  H   H1033     1.0  0.63255  0.55457  0.77981  1.0000
  C   C850      1.0  0.71332  0.70622  0.49662  1.0000
  N   N58       1.0  0.63568  0.55031  0.74615  1.0000
  Fe  Fe108     1.0  0.58861  0.51416  0.98353  1.0000
  C   C851      1.0  0.58914  0.52110  0.90859  1.0000
  C   C852      1.0  0.50531  0.69498  0.69433  1.0000
  S   S229      1.0  0.64856  0.74219  0.50612  1.0000
  H   H1034     1.0  0.71557  0.81769  0.50055  1.0000
  H   H1035     1.0  0.57361  0.52846  0.90733  1.0000
  H   H1036     1.0  0.52228  0.55604  0.97250  1.0000
  C   C853      1.0  0.62801  0.91881  0.51560  1.0000
  S   S230      1.0  0.67384  0.49960  0.77075  1.0000
  N   N59       1.0  0.53580  0.85415  0.60366  1.0000
  C   C854      1.0  0.61981  0.56725  0.74106  1.0000
  S   S231      1.0  0.57120  0.52485  0.78375  1.0000
  S   S232      1.0  0.62807  0.51713  0.80972  1.0000
  H   H1037     1.0  0.71525  0.52512  0.54164  1.0000
  S   S233      1.0  0.52773  0.77114  0.62327  1.0000
  C   C855      1.0  0.62018  0.50423  0.89183  1.0000
  H   H1038     1.0  0.55397  0.66022  0.67734  1.0000
  S   S234      1.0  0.53769  0.61267  0.81929  1.0000
  H   H1039     1.0  0.62584  0.50832  0.94507  1.0000
  Fe  Fe109     1.0  0.59001  0.79785  0.51496  1.0000
  S   S235      1.0  0.55850  0.80406  0.53223  1.0000
  S   S236      1.0  0.62419  0.79747  0.52385  1.0000
  N   N60       1.0  0.50542  0.71509  0.65956  1.0000
  S   S237      1.0  0.64942  0.85070  0.49857  1.0000
  H   H1040     1.0  0.57397  0.59757  0.96208  1.0000
  C   C856      1.0  0.55290  0.84382  0.59058  1.0000
  C   C857      1.0  0.53614  0.77954  0.59766  1.0000
  C   C858      1.0  0.55706  0.77535  0.59055  1.0000
  C   C859      1.0  0.56419  0.78245  0.57035  1.0000
  C   C860      1.0  0.55035  0.79373  0.55719  1.0000
  C   C861      1.0  0.52936  0.79763  0.56421  1.0000
  C   C862      1.0  0.52226  0.79051  0.58433  1.0000
  H   H1041     1.0  0.56786  0.76677  0.60077  1.0000
  H   H1042     1.0  0.58039  0.77936  0.56507  1.0000
  H   H1043     1.0  0.51854  0.80624  0.55405  1.0000
  Fe  Fe110     1.0  0.61766  0.97674  0.51266  1.0000
  C   C863      1.0  0.59990  0.51345  0.89035  1.0000
  C   C864      1.0  0.56830  0.58112  0.96289  1.0000
  C   C865      1.0  0.68605  0.54946  0.69832  1.0000
  H   H1044     1.0  0.50952  0.76653  0.50861  1.0000
  C   C866      1.0  0.56222  0.54919  0.79403  1.0000
  C   C867      1.0  0.54378  0.55885  0.78616  1.0000
  C   C868      1.0  0.53622  0.57840  0.79373  1.0000
  C   C869      1.0  0.54729  0.58856  0.80897  1.0000
  C   C870      1.0  0.56578  0.57894  0.81685  1.0000
  C   C871      1.0  0.57318  0.55920  0.80950  1.0000
  H   H1045     1.0  0.53526  0.55117  0.77418  1.0000
  H   H1046     1.0  0.52188  0.58564  0.78766  1.0000
  H   H1047     1.0  0.57440  0.58677  0.82866  1.0000
  H   H1048     1.0  0.58744  0.55187  0.81560  1.0000
  C   C872      1.0  0.72928  0.78131  0.52327  1.0000
  H   H1049     1.0  0.61029  0.86807  0.51852  1.0000
  H   H1050     1.0  0.53253  0.71981  0.63846  1.0000
  C   C873      1.0  0.70692  0.78189  0.52641  1.0000
  H   H1051     1.0  0.52629  0.56827  0.84126  1.0000
  C   C874      1.0  0.53227  0.68544  0.66800  1.0000
  C   C875      1.0  0.53571  0.99202  0.59370  1.0000
  S   S238      1.0  0.53164  0.98432  0.62031  1.0000
  H   H1052     1.0  0.52513  0.73870  0.67174  1.0000
  H   H1053     1.0  0.52504  0.81248  0.50287  1.0000
  Fe  Fe111     1.0  0.62872  0.82182  0.49755  1.0000
  N   N61       1.0  0.69352  0.80073  0.52099  1.0000
  C   C876      1.0  0.54062  0.92187  0.60831  1.0000
  H   H1054     1.0  0.53752  0.60973  0.95293  1.0000
  H   H1055     1.0  0.63525  0.51682  0.75311  1.0000
  H   H1056     1.0  0.70954  0.51720  0.51550  1.0000
  H   H1057     1.0  0.53720  0.65502  0.71290  1.0000
  S   S239      1.0  0.58479  0.52957  0.95092  1.0000
  C   C877      1.0  0.52379  0.88914  0.61859  1.0000
  H   H1058     1.0  0.53639  0.77399  0.50983  1.0000
  H   H1059     1.0  0.70203  0.73006  0.54306  1.0000
  S   S240      1.0  0.74191  0.50584  0.63132  1.0000
  C   C878      1.0  0.62943  0.50259  0.91166  1.0000
  Fe  Fe112     1.0  0.59739  0.50536  0.79862  1.0000
  H   H1060     1.0  0.52178  0.60700  0.86822  1.0000
  H   H1061     1.0  0.62657  0.58324  0.74088  1.0000
  H   H1062     1.0  0.49918  0.73775  0.68408  1.0000
  H   H1063     1.0  0.61318  0.56492  0.72528  1.0000
  H   H1064     1.0  0.50483  0.89790  0.66615  1.0000
  H   H1065     1.0  0.69500  0.83386  0.51191  1.0000
  C   C879      1.0  0.51531  0.96318  0.53959  1.0000
  H   H1066     1.0  0.60631  0.56746  0.75287  1.0000
  H   H1067     1.0  0.51425  0.91978  0.63038  1.0000
  C   C880      1.0  0.65730  0.53179  0.71698  1.0000
  H   H1068     1.0  0.50259  0.74905  0.65822  1.0000
  H   H1069     1.0  0.56486  0.88133  0.58275  1.0000
  C   C881      1.0  0.72258  0.52024  0.52623  1.0000
  C   C882      1.0  0.70596  0.50371  0.74038  1.0000
  C   C883      1.0  0.67347  0.72849  0.50133  1.0000
  C   C884      1.0  0.51541  0.85018  0.59393  1.0000
  C   C885      1.0  0.61469  0.90179  0.52031  1.0000
  C   C886      1.0  0.51558  0.71567  0.63806  1.0000
  H   H1070     1.0  0.69145  0.58118  0.70742  1.0000
  C   C887      1.0  0.69751  0.76288  0.53386  1.0000
  S   S241      1.0  0.62242  0.94362  0.52747  1.0000
  H   H1071     1.0  0.57834  0.57187  0.97418  1.0000
  H   H1072     1.0  0.54183  0.55186  0.95172  1.0000
  C   C888      1.0  0.68179  0.56744  0.71008  1.0000
  C   C889      1.0  0.62057  0.88100  0.51443  1.0000
  C   C890      1.0  0.54248  0.58861  0.99085  1.0000
  C   C891      1.0  0.51502  0.56862  0.85512  1.0000
  H   H1073     1.0  0.66270  0.58198  0.73414  1.0000
  H   H1074     1.0  0.50210  0.73131  0.74804  1.0000
  H   H1075     1.0  0.55262  0.84932  0.57374  1.0000
  H   H1076     1.0  0.71270  0.51416  0.75138  1.0000
  H   H1077     1.0  0.50947  0.63854  0.90358  1.0000
  C   C892      1.0  0.50857  0.97396  0.52136  1.0000
  C   C893      1.0  0.51434  0.69837  0.67376  1.0000
  H   H1078     1.0  0.56751  0.97903  0.59165  1.0000
  C   C894      1.0  0.67902  0.80620  0.53907  1.0000
  H   H1079     1.0  0.67730  0.51775  0.69256  1.0000
  C   C895      1.0  0.54031  0.66995  0.68201  1.0000
  Fe  Fe113     1.0  0.62964  0.77321  0.49836  1.0000
  H   H1080     1.0  0.67090  0.80987  0.49765  1.0000
  H   H1081     1.0  0.53481  0.58676  0.93786  1.0000
  C   C896      1.0  0.53093  0.66698  0.70205  1.0000
  H   H1082     1.0  0.69907  0.68202  0.51635  1.0000
  H   H1083     1.0  0.54041  0.68702  0.65283  1.0000
  H   H1084     1.0  0.53539  0.82610  0.62406  1.0000
  H   H1085     1.0  0.52209  0.84839  0.63512  1.0000
  C   C897      1.0  0.67375  0.53177  0.70166  1.0000
  C   C898      1.0  0.51041  0.57183  0.89296  1.0000
  C   C899      1.0  0.55349  0.88884  0.59344  1.0000
  H   H1086     1.0  0.54046  0.59990  0.88809  1.0000
  H   H1087     1.0  0.54689  0.59622  0.86057  1.0000
  C   C900      1.0  0.62429  0.53019  0.74876  1.0000
  H   H1088     1.0  0.71593  0.82423  0.52824  1.0000
  H   H1089     1.0  0.53934  0.54155  0.87693  1.0000
  C   C901      1.0  0.50213  0.96227  0.55761  1.0000
  C   C902      1.0  0.53402  0.59496  0.87295  1.0000
  H   H1090     1.0  0.55245  0.62051  0.98202  1.0000
  H   H1091     1.0  0.50600  0.79343  0.58949  1.0000
  H   H1092     1.0  0.66754  0.79367  0.54302  1.0000
  H   H1093     1.0  0.61614  0.52628  0.73417  1.0000
  H   H1094     1.0  0.55039  0.84746  0.63340  1.0000
  H   H1095     1.0  0.57155  0.57436  0.94704  1.0000
  H   H1096     1.0  0.51979  0.97507  0.50814  1.0000
  H   H1097     1.0  0.55548  0.55997  0.86271  1.0000
  H   H1098     1.0  0.64876  0.51734  0.71895  1.0000
  H   H1099     1.0  0.54171  0.93887  0.60960  1.0000
  C   C903      1.0  0.70968  0.74453  0.53795  1.0000
  C   C904      1.0  0.53595  0.84366  0.62492  1.0000
  C   C905      1.0  0.53300  0.59291  0.95408  1.0000
  H   H1100     1.0  0.54896  0.54703  0.97826  1.0000
  C   C906      1.0  0.59833  0.51909  0.92846  1.0000
  C   C907      1.0  0.55472  0.91079  0.59502  1.0000
  H   H1101     1.0  0.68054  0.76173  0.53575  1.0000
  H   H1102     1.0  0.65728  0.54262  0.77085  1.0000
  H   H1103     1.0  0.59264  0.51482  0.87517  1.0000
  H   H1104     1.0  0.74072  0.72985  0.53684  1.0000
  H   H1105     1.0  0.55337  0.56123  0.89081  1.0000
  H   H1106     1.0  0.53118  0.95627  0.53999  1.0000
  C   C908      1.0  0.55883  0.99487  0.56252  1.0000
  C   C909      1.0  0.51269  0.55691  0.91002  1.0000
  C   C910      1.0  0.52516  0.91107  0.62003  1.0000
  C   C911      1.0  0.53802  0.87728  0.60536  1.0000
  H   H1107     1.0  0.69902  0.54914  0.68667  1.0000
  H   H1108     1.0  0.51146  0.88151  0.62796  1.0000
  N   N62       1.0  0.73681  0.50124  0.52860  1.0000
  C   C912      1.0  0.54422  0.55830  0.87656  1.0000
  H   H1109     1.0  0.56875  0.84658  0.59683  1.0000
  C   C913      1.0  0.65268  0.54978  0.72948  1.0000
  C   C914      1.0  0.66531  0.56770  0.72538  1.0000
  H   H1110     1.0  0.51586  0.59291  0.95860  1.0000
  C   C915      1.0  0.67702  0.70839  0.51098  1.0000
  C   C916      1.0  0.64480  0.55471  0.76677  1.0000
  N   N63       1.0  0.52575  0.57325  0.87482  1.0000
  H   H1111     1.0  0.66448  0.70141  0.52061  1.0000
  C   C917      1.0  0.54678  0.61006  0.99459  1.0000
  C   C918      1.0  0.64725  0.91477  0.50467  1.0000
  H   H1112     1.0  0.66925  0.82079  0.53557  1.0000
  H   H1113     1.0  0.61181  0.53099  0.76157  1.0000
  H   H1114     1.0  0.50167  0.85595  0.60379  1.0000
  H   H1115     1.0  0.55128  0.82635  0.59042  1.0000
  H   H1116     1.0  0.73096  0.53441  0.51998  1.0000
  C   C919      1.0  0.61845  0.50962  0.92994  1.0000
  C   C920      1.0  0.74127  0.76275  0.52721  1.0000
  C   C921      1.0  0.70569  0.81988  0.51523  1.0000
  H   H1117     1.0  0.52570  0.54549  0.91064  1.0000
  H   H1118     1.0  0.56674  0.91930  0.58593  1.0000
  H   H1119     1.0  0.51447  0.85813  0.57810  1.0000
  H   H1120     1.0  0.50772  0.95463  0.57198  1.0000
  H   H1121     1.0  0.50813  0.72814  0.62770  1.0000
  N   N64       1.0  0.54564  0.58013  0.96940  1.0000
  C   C922      1.0  0.53930  0.55782  0.96799  1.0000
  C   C923      1.0  0.69669  0.69730  0.50858  1.0000
  H   H1122     1.0  0.60002  0.90459  0.52919  1.0000
  Fe  Fe114     1.0  0.50602  0.62502  0.80814  1.0000
  C   C924      1.0  0.73148  0.74438  0.53442  1.0000
  H   H1123     1.0  0.68799  0.80893  0.55347  1.0000
  Fe  Fe115     1.0  0.49828  0.99227  0.63071  1.0000
  C   C925      1.0  0.64020  0.87687  0.50431  1.0000
  H   H1124     1.0  0.57365  0.99096  0.55458  1.0000
  H   H1125     1.0  0.66985  0.78276  0.50634  1.0000
  C   C926      1.0  0.51349  0.67952  0.70821  1.0000
  C   C927      1.0  0.50820  0.73599  0.66887  1.0000
  H   H1126     1.0  0.73226  0.50632  0.71766  1.0000
  H   H1127     1.0  0.50742  0.55300  0.85632  1.0000
  H   H1128     1.0  0.50273  0.58083  0.85108  1.0000
  C   C928      1.0  0.68076  0.79592  0.50272  1.0000
  H   H1129     1.0  0.73787  0.79483  0.51742  1.0000
  C   C929      1.0  0.71713  0.49931  0.72120  1.0000
  S   S242      1.0  0.74231  0.58671  0.53497  1.0000
  H   H1130     1.0  0.51420  0.70037  0.63009  1.0000
  C   C930      1.0  0.49798  0.55640  0.92704  1.0000
  C   C931      1.0  0.52403  0.76964  0.49879  1.0000
  C   C932      1.0  0.55521  0.98781  0.58346  1.0000
  H   H1131     1.0  0.73857  0.54849  0.55956  1.0000
  H   H1132     1.0  0.49880  0.80354  0.50349  1.0000
  H   H1133     1.0  0.50628  0.67734  0.72390  1.0000
  H   H1134     1.0  0.65799  0.92753  0.50154  1.0000
  C   C933      1.0  0.65337  0.89393  0.49927  1.0000
  Fe  Fe116     1.0  0.49702  0.78546  0.63640  1.0000
  C   C934      1.0  0.75941  0.43845  0.41047  1.0000
  S   S243      1.0  0.91691  0.48508  0.33437  1.0000
  S   S244      1.0  0.77728  0.48389  0.33143  1.0000
  H   H1135     1.0  0.92786  0.41222  0.41432  1.0000
  Fe  Fe117     1.0  0.77323  0.46943  0.36424  1.0000
  H   H1136     1.0  0.96154  0.49245  0.28164  1.0000
  S   S245      1.0  0.77864  0.43449  0.37109  1.0000
  C   C935      1.0  0.88826  0.45709  0.38595  1.0000
  S   S246      1.0  0.78192  0.34345  0.47405  1.0000
  C   C936      1.0  0.75081  0.46421  0.48310  1.0000
  C   C937      1.0  0.86727  0.43079  0.41529  1.0000
  C   C938      1.0  0.77240  0.42593  0.39729  1.0000
  Fe  Fe118     1.0  0.76653  0.37482  0.48301  1.0000
  H   H1137     1.0  0.87576  0.46730  0.33103  1.0000
  C   C939      1.0  0.76140  0.41144  0.43864  1.0000
  C   C940      1.0  0.77474  0.39902  0.42563  1.0000
  C   C941      1.0  0.78003  0.40618  0.40490  1.0000
  C   C942      1.0  0.89956  0.44665  0.40191  1.0000
  H   H1138     1.0  0.85821  0.42132  0.42655  1.0000
  H   H1139     1.0  0.78065  0.38380  0.43141  1.0000
  H   H1140     1.0  0.79006  0.39639  0.39477  1.0000
  C   C943      1.0  0.85613  0.44127  0.39923  1.0000
  H   H1141     1.0  0.87743  0.39950  0.44571  1.0000
  H   H1142     1.0  0.75338  0.45364  0.40481  1.0000
  H   H1143     1.0  0.91617  0.44992  0.40234  1.0000
  C   C944      1.0  0.95880  0.46949  0.44756  1.0000
  C   C945      1.0  0.95372  0.45569  0.46443  1.0000
  H   H1144     1.0  0.74913  0.43914  0.30741  1.0000
  S   S247      1.0  0.75333  0.40310  0.46441  1.0000
  H   H1145     1.0  0.93755  0.45132  0.46759  1.0000
  H   H1146     1.0  0.90277  0.45043  0.45107  1.0000
  H   H1147     1.0  0.88031  0.43481  0.45835  1.0000
  C   C946      1.0  0.89735  0.43392  0.45348  1.0000
  H   H1148     1.0  0.97205  0.45214  0.32210  1.0000
  S   S248      1.0  0.92483  0.39083  0.48954  1.0000
  H   H1149     1.0  0.95154  0.47091  0.29742  1.0000
  C   C947      1.0  0.97981  0.47515  0.44378  1.0000
  H   H1150     1.0  0.83929  0.48310  0.33348  1.0000
  C   C948      1.0  0.75787  0.47850  0.46750  1.0000
  H   H1151     1.0  0.90608  0.42663  0.46694  1.0000
  C   C949      1.0  0.86664  0.45426  0.38449  1.0000
  C   C950      1.0  0.92422  0.41986  0.42966  1.0000
  H   H1152     1.0  0.89331  0.39101  0.42313  1.0000
  H   H1153     1.0  0.88101  0.40405  0.48838  1.0000
  N   N65       1.0  0.98497  0.47603  0.30058  1.0000
  C   C951      1.0  0.75371  0.43109  0.43091  1.0000
  C   C952      1.0  0.96297  0.48397  0.29716  1.0000
  H   H1154     1.0  0.90366  0.39057  0.44913  1.0000
  Fe  Fe119     1.0  0.95174  0.49442  0.40167  1.0000
  H   H1155     1.0  0.93183  0.43544  0.42949  1.0000
  S   S249      1.0  0.96023  0.47427  0.37420  1.0000
  S   S250      1.0  0.93864  0.47985  0.43181  1.0000
  C   C953      1.0  0.88949  0.43264  0.41677  1.0000
  N   N66       1.0  0.90102  0.42171  0.43407  1.0000
  C   C954      1.0  0.87343  0.48396  0.33407  1.0000
  C   C955      1.0  0.89346  0.39986  0.43804  1.0000
  C   C956      1.0  0.99098  0.46149  0.28331  1.0000
  H   H1156     1.0  0.97934  0.44877  0.28215  1.0000
  H   H1157     1.0  0.85798  0.46218  0.37196  1.0000
  H   H1158     1.0  0.96550  0.43657  0.49014  1.0000
  H   H1159     1.0  0.83924  0.43923  0.39815  1.0000
  H   H1160     1.0  0.89638  0.46739  0.37455  1.0000
  H   H1161     1.0  0.93239  0.41034  0.44220  1.0000
  C   C957      1.0  0.98483  0.46386  0.32093  1.0000
  Fe  Fe120     1.0  0.98775  0.49569  0.36812  1.0000
  H   H1162     1.0  0.76301  0.47295  0.45206  1.0000
  C   C958      1.0  0.96958  0.44738  0.47728  1.0000
  H   H1163     1.0  0.98390  0.48573  0.43082  1.0000
  S   S251      1.0  0.98514  0.39261  0.47462  1.0000
  H   H1164     1.0  0.98238  0.47464  0.33435  1.0000
  H   H1165     1.0  0.99190  0.47020  0.26781  1.0000
  H   H1166     1.0  0.75371  0.44551  0.33398  1.0000
  C   C959      1.0  0.85276  0.49287  0.33544  1.0000
  C   C960      1.0  0.99045  0.45351  0.47389  1.0000
  H   H1167     1.0  0.84741  0.38483  0.49241  1.0000
  S   S252      1.0  0.79230  0.49336  0.37967  1.0000
  H   H1168     1.0  0.75071  0.44746  0.47978  1.0000
  C   C961      1.0  0.88150  0.38733  0.49227  1.0000
  C   C962      1.0  0.86236  0.37649  0.49462  1.0000
  H   H1169     1.0  0.95723  0.49470  0.30987  1.0000
  C   C963      1.0  0.99560  0.46748  0.45718  1.0000
  C   C964      1.0  0.90117  0.37671  0.49480  1.0000
  H   H1170     1.0  0.81435  0.45463  0.57959  1.0000
  N   N67       1.0  0.83313  0.43231  0.59790  1.0000
  C   C965      1.0  0.81637  0.40462  0.57678  1.0000
  Fe  Fe121     1.0  0.75097  0.48941  0.66199  1.0000
  H   H1171     1.0  0.81607  0.41177  0.61987  1.0000
  H   H1172     1.0  0.79669  0.32025  0.58642  1.0000
  C   C966      1.0  0.98042  0.46559  0.55252  1.0000
  S   S253      1.0  0.99230  0.42876  0.64029  1.0000
  Fe  Fe122     1.0  0.95928  0.38345  0.49830  1.0000
  S   S254      1.0  0.95145  0.47612  0.62325  1.0000
  C   C967      1.0  0.76420  0.31770  0.57807  1.0000
  S   S255      1.0  0.97083  0.40452  0.52330  1.0000
  H   H1173     1.0  0.98911  0.46135  0.56651  1.0000
  S   S256      1.0  0.77233  0.46527  0.64520  1.0000
  C   C968      1.0  0.85309  0.39815  0.55188  1.0000
  Fe  Fe123     1.0  0.79871  0.48815  0.64813  1.0000
  H   H1174     1.0  0.79936  0.43906  0.59842  1.0000
  S   S257      1.0  0.83206  0.47343  0.64984  1.0000
  C   C969      1.0  0.85265  0.41312  0.56777  1.0000
  Fe  Fe124     1.0  0.76730  0.36470  0.52981  1.0000
  S   S258      1.0  0.78290  0.33303  0.52449  1.0000
  C   C970      1.0  0.75926  0.40084  0.56869  1.0000
  H   H1175     1.0  0.86657  0.43562  0.60216  1.0000
  H   H1176     1.0  0.98153  0.43441  0.59607  1.0000
  H   H1177     1.0  0.75985  0.33152  0.58700  1.0000
  H   H1178     1.0  0.85488  0.45430  0.58332  1.0000
  C   C971      1.0  0.85687  0.48525  0.65285  1.0000
  C   C972      1.0  0.76094  0.44409  0.57765  1.0000
  C   C973      1.0  0.76460  0.43718  0.55699  1.0000
  C   C974      1.0  0.76372  0.41565  0.55251  1.0000
  C   C975      1.0  0.99355  0.41175  0.61895  1.0000
  C   C976      1.0  0.78558  0.31147  0.57774  1.0000
  C   C977      1.0  0.85218  0.44538  0.59849  1.0000
  S   S259      1.0  0.98287  0.48288  0.66319  1.0000
  H   H1179     1.0  0.76643  0.41054  0.53650  1.0000
  H   H1180     1.0  0.98398  0.40911  0.56656  1.0000
  C   C978      1.0  0.79287  0.29462  0.56556  1.0000
  H   H1181     1.0  0.76716  0.49345  0.54129  1.0000
  C   C979      1.0  0.75657  0.42931  0.59391  1.0000
  H   H1182     1.0  0.76825  0.44846  0.54436  1.0000
  S   S260      1.0  0.78990  0.38168  0.50778  1.0000
  C   C980      1.0  0.98742  0.41838  0.59875  1.0000
  H   H1183     1.0  0.83046  0.43172  0.63195  1.0000
  H   H1184     1.0  0.80185  0.40629  0.58612  1.0000
  H   H1185     1.0  0.95863  0.44041  0.55740  1.0000
  C   C981      1.0  0.81458  0.44704  0.59563  1.0000
  C   C982      1.0  0.89553  0.48136  0.65137  1.0000
  Fe  Fe125     1.0  0.98241  0.46266  0.63459  1.0000
  H   H1186     1.0  0.86709  0.42136  0.56969  1.0000
  S   S261      1.0  0.75853  0.37368  0.56345  1.0000
  H   H1187     1.0  0.86734  0.39537  0.54221  1.0000
  H   H1188     1.0  0.78466  0.27153  0.54330  1.0000
  H   H1189     1.0  0.84434  0.40924  0.62078  1.0000
  C   C983      1.0  0.98869  0.40406  0.58213  1.0000
  C   C984      1.0  0.75569  0.40772  0.58941  1.0000
  C   C985      1.0  0.87544  0.47323  0.64830  1.0000
  H   H1190     1.0  0.81435  0.45982  0.60739  1.0000
  H   H1191     1.0  0.87432  0.45728  0.64287  1.0000
  H   H1192     1.0  0.90958  0.47166  0.64827  1.0000
  H   H1193     1.0  0.80322  0.38056  0.55815  1.0000
  H   H1194     1.0  0.83569  0.37486  0.53615  1.0000
  C   C986      1.0  0.83529  0.38651  0.54842  1.0000
  H   H1195     1.0  0.85057  0.45731  0.61108  1.0000
  Fe  Fe126     1.0  0.75962  0.32896  0.49894  1.0000
  C   C987      1.0  0.83411  0.41693  0.58065  1.0000
  Fe  Fe127     1.0  0.99134  0.37670  0.53292  1.0000
  S   S262      1.0  0.97835  0.35473  0.50963  1.0000
  C   C988      1.0  0.75741  0.29008  0.55378  1.0000
  C   C989      1.0  0.81700  0.38973  0.56086  1.0000
  C   C990      1.0  0.83091  0.42073  0.61848  1.0000
  H   H1196     1.0  0.88272  0.32749  0.50628  1.0000
  H   H1197     1.0  0.75366  0.43453  0.60988  1.0000
  H   H1198     1.0  0.80956  0.29027  0.56484  1.0000
  S   S263      1.0  0.76197  0.47133  0.58237  1.0000
  C   C991      1.0  0.77882  0.28401  0.55354  1.0000
  Fe  Fe128     1.0  0.76496  0.48329  0.61538  1.0000
  H   H1199     1.0  0.75224  0.39633  0.60201  1.0000
  Fe  Fe129     1.0  0.80398  0.34964  0.50046  1.0000
  C   C992      1.0  0.98620  0.48309  0.53990  1.0000
  C   C993      1.0  0.96313  0.45391  0.54752  1.0000
  C   C994      1.0  0.74930  0.30688  0.56638  1.0000
  H   H1200     1.0  0.74756  0.28197  0.54328  1.0000
  C   C995      1.0  0.95152  0.45968  0.52991  1.0000
  C   C996      1.0  0.97473  0.48948  0.52184  1.0000
  H   H1201     1.0  0.91635  0.34666  0.50210  1.0000
  C   C997      1.0  0.95704  0.47729  0.51728  1.0000
  H   H1202     1.0  0.94732  0.48088  0.50394  1.0000
  C   C998      1.0  0.88229  0.34427  0.50245  1.0000
  C   C999      1.0  0.86264  0.35478  0.49952  1.0000
  C   C1000     1.0  0.90142  0.35513  0.50017  1.0000
  S   S264      1.0  0.83914  0.33997  0.50191  1.0000
  H   H1203     1.0  0.93820  0.45037  0.52596  1.0000
  H   H1204     1.0  0.95151  0.51584  0.49412  1.0000
  S   S265      1.0  0.97194  0.63256  0.47874  1.0000
  C   C1001     1.0  0.83912  0.61083  0.46249  1.0000
  Fe  Fe130     1.0  0.96004  0.53455  0.37702  1.0000
  C   C1002     1.0  0.96836  0.51207  0.48988  1.0000
  C   C1003     1.0  0.89234  0.54429  0.44819  1.0000
  H   H1205     1.0  0.76060  0.58362  0.46461  1.0000
  H   H1206     1.0  0.76396  0.51093  0.45953  1.0000
  C   C1004     1.0  0.97127  0.58657  0.44304  1.0000
  Fe  Fe131     1.0  0.77622  0.62563  0.47484  1.0000
  H   H1207     1.0  0.96924  0.49822  0.47952  1.0000
  S   S266      1.0  0.78447  0.61561  0.44149  1.0000
  H   H1208     1.0  0.94494  0.54142  0.45459  1.0000
  C   C1005     1.0  0.86819  0.61585  0.43724  1.0000
  H   H1209     1.0  0.85435  0.55236  0.38166  1.0000
  H   H1210     1.0  0.83521  0.61633  0.42935  1.0000
  H   H1211     1.0  0.80941  0.52377  0.40782  1.0000
  S   S267      1.0  0.76401  0.52928  0.35305  1.0000
  H   H1212     1.0  0.75102  0.68264  0.44192  1.0000
  C   C1006     1.0  0.84650  0.61429  0.44180  1.0000
  H   H1213     1.0  0.90963  0.58581  0.43336  1.0000
  S   S268      1.0  0.82413  0.52682  0.33942  1.0000
  C   C1007     1.0  0.95156  0.55398  0.42330  1.0000
  S   S269      1.0  0.93050  0.51654  0.38356  1.0000
  C   C1008     1.0  0.77706  0.59005  0.43496  1.0000
  C   C1009     1.0  0.76511  0.57766  0.44922  1.0000
  H   H1214     1.0  0.91009  0.51885  0.43355  1.0000
  C   C1010     1.0  0.76358  0.55012  0.42318  1.0000
  C   C1011     1.0  0.77592  0.56231  0.40905  1.0000
  C   C1012     1.0  0.78265  0.58223  0.41495  1.0000
  C   C1013     1.0  0.84687  0.51191  0.39316  1.0000
  H   H1215     1.0  0.90557  0.60782  0.41518  1.0000
  H   H1216     1.0  0.87118  0.56881  0.45972  1.0000
  S   S270      1.0  0.96093  0.56904  0.38347  1.0000
  C   C1014     1.0  0.86730  0.52710  0.34077  1.0000
  H   H1217     1.0  0.97937  0.59889  0.45057  1.0000
  H   H1218     1.0  0.86507  0.54393  0.34286  1.0000
  C   C1015     1.0  0.87347  0.55620  0.44863  1.0000
  C   C1016     1.0  0.96187  0.57037  0.45520  1.0000
  H   H1219     1.0  0.75358  0.65640  0.45286  1.0000
  H   H1220     1.0  0.90132  0.52789  0.34211  1.0000
  C   C1017     1.0  0.96089  0.57011  0.41104  1.0000
  H   H1221     1.0  0.83484  0.56402  0.39949  1.0000
  H   H1222     1.0  0.91697  0.59315  0.47179  1.0000
  C   C1018     1.0  0.85332  0.60897  0.47874  1.0000
  C   C1019     1.0  0.85980  0.53521  0.42037  1.0000
  C   C1020     1.0  0.82246  0.52772  0.41822  1.0000
  H   H1223     1.0  0.82228  0.61015  0.46601  1.0000
  S   S271      1.0  0.75423  0.52535  0.41635  1.0000
  C   C1021     1.0  0.85751  0.55194  0.43481  1.0000
  H   H1224     1.0  0.87301  0.61941  0.42106  1.0000
  C   C1022     1.0  0.89529  0.52801  0.43399  1.0000
  Fe  Fe132     1.0  0.76185  0.51175  0.38418  1.0000
  C   C1023     1.0  0.84965  0.51458  0.33846  1.0000
  C   C1024     1.0  0.75836  0.55780  0.44332  1.0000
  S   S272      1.0  0.96927  0.51812  0.34693  1.0000
  H   H1225     1.0  0.93028  0.60375  0.42673  1.0000
  H   H1226     1.0  0.94396  0.54131  0.41587  1.0000
  H   H1227     1.0  0.77994  0.55655  0.39346  1.0000
  H   H1228     1.0  0.97818  0.59885  0.41148  1.0000
  H   H1229     1.0  0.88283  0.51056  0.40972  1.0000
  C   C1025     1.0  0.87933  0.52340  0.42028  1.0000
  C   C1026     1.0  0.88787  0.51803  0.34036  1.0000
  C   C1027     1.0  0.87504  0.61049  0.47439  1.0000
  H   H1230     1.0  0.79181  0.59180  0.40381  1.0000
  H   H1231     1.0  0.82697  0.54656  0.37984  1.0000
  S   S273      1.0  0.96164  0.57026  0.48278  1.0000
  H   H1232     1.0  0.90152  0.64382  0.42825  1.0000
  H   H1233     1.0  0.75918  0.66105  0.42547  1.0000
  H   H1234     1.0  0.93674  0.61046  0.46154  1.0000
  C   C1028     1.0  0.97068  0.58651  0.42092  1.0000
  H   H1235     1.0  0.90436  0.64895  0.45564  1.0000
  H   H1236     1.0  0.92705  0.64126  0.43967  1.0000
  N   N68       1.0  0.90603  0.61597  0.44829  1.0000
  C   C1029     1.0  0.91298  0.60277  0.43016  1.0000
  C   C1030     1.0  0.90990  0.63843  0.44264  1.0000
  C   C1031     1.0  0.91968  0.60968  0.46614  1.0000
  C   C1032     1.0  0.88320  0.61364  0.45337  1.0000
  C   C1033     1.0  0.95208  0.55407  0.44530  1.0000
  N   N69       1.0  0.84259  0.53096  0.40597  1.0000
  H   H1237     1.0  0.91736  0.62049  0.47961  1.0000
  H   H1238     1.0  0.74868  0.54855  0.45426  1.0000
  H   H1239     1.0  0.84333  0.56190  0.43548  1.0000
  C   C1034     1.0  0.75166  0.50722  0.49159  1.0000
  S   S274      1.0  0.78765  0.65681  0.48511  1.0000
  H   H1240     1.0  0.86121  0.51361  0.38269  1.0000
  C   C1035     1.0  0.83960  0.54930  0.39119  1.0000
  H   H1241     1.0  0.97907  0.52026  0.29466  1.0000
  Fe  Fe133     1.0  0.79396  0.50948  0.34778  1.0000
  C   C1036     1.0  0.75838  0.49993  0.47177  1.0000
  S   S275      1.0  0.98063  0.51384  0.39746  1.0000
  H   H1242     1.0  0.75280  0.52393  0.49418  1.0000
  H   H1243     1.0  0.82415  0.51460  0.43016  1.0000
  H   H1244     1.0  0.90477  0.54771  0.45881  1.0000
  H   H1245     1.0  0.88504  0.60971  0.48785  1.0000
  H   H1246     1.0  0.81664  0.54209  0.42654  1.0000
  H   H1247     1.0  0.87779  0.67301  0.48119  1.0000
  H   H1248     1.0  0.83381  0.50922  0.38236  1.0000
  Fe  Fe134     1.0  0.74690  0.50211  0.33942  1.0000
  H   H1249     1.0  0.97406  0.52577  0.48009  1.0000
  Fe  Fe135     1.0  0.94114  0.49810  0.35548  1.0000
  C   C1037     1.0  0.74833  0.66571  0.43881  1.0000
  H   H1250     1.0  0.84875  0.49737  0.40327  1.0000
  C   C1038     1.0  0.99501  0.51479  0.29770  1.0000
  H   H1251     1.0  0.84211  0.66268  0.49468  1.0000
  C   C1039     1.0  0.89106  0.49648  0.33664  1.0000
  C   C1040     1.0  0.87632  0.66240  0.49480  1.0000
  H   H1252     1.0  0.84736  0.60712  0.49491  1.0000
  C   C1041     1.0  0.92778  0.59926  0.60425  1.0000
  C   C1042     1.0  0.75570  0.50711  0.53998  1.0000
  S   S276      1.0  0.97228  0.52221  0.63193  1.0000
  Fe  Fe136     1.0  0.97408  0.62074  0.53851  1.0000
  S   S277      1.0  0.97645  0.65366  0.52481  1.0000
  H   H1253     1.0  0.76099  0.61084  0.56780  1.0000
  H   H1254     1.0  0.87076  0.60256  0.58392  1.0000
  H   H1255     1.0  0.88796  0.56111  0.64087  1.0000
  H   H1256     1.0  0.92967  0.54612  0.60180  1.0000
  Fe  Fe137     1.0  0.77003  0.52569  0.63565  1.0000
  S   S278      1.0  0.82897  0.63614  0.53132  1.0000
  S   S279      1.0  0.77101  0.56063  0.62723  1.0000
  H   H1257     1.0  0.96206  0.52963  0.52775  1.0000
  S   S280      1.0  0.76651  0.64580  0.53183  1.0000
  Fe  Fe138     1.0  0.75704  0.61508  0.51838  1.0000
  C   C1043     1.0  0.76164  0.56822  0.60218  1.0000
  N   N70       1.0  0.98109  0.50826  0.50892  1.0000
  Fe  Fe139     1.0  0.96951  0.60134  0.49605  1.0000
  H   H1258     1.0  0.81117  0.55922  0.60186  1.0000
  Fe  Fe140     1.0  0.97165  0.49963  0.60571  1.0000
  C   C1044     1.0  0.76437  0.58898  0.59439  1.0000
  C   C1045     1.0  0.97305  0.58480  0.57456  1.0000
  H   H1259     1.0  0.77126  0.60043  0.60424  1.0000
  H   H1260     1.0  0.94205  0.58390  0.64332  1.0000
  C   C1046     1.0  0.89243  0.64116  0.52248  1.0000
  C   C1047     1.0  0.87221  0.63557  0.53024  1.0000
  H   H1261     1.0  0.83049  0.53458  0.62476  1.0000
  H   H1262     1.0  0.90630  0.63543  0.53053  1.0000
  H   H1263     1.0  0.87069  0.62534  0.54410  1.0000
  H   H1264     1.0  0.88207  0.53125  0.57923  1.0000
  C   C1048     1.0  0.75857  0.59490  0.57377  1.0000
  H   H1265     1.0  0.84452  0.51502  0.66420  1.0000
  S   S281      1.0  0.96197  0.51412  0.57490  1.0000
  H   H1266     1.0  0.92427  0.53266  0.62644  1.0000
  H   H1267     1.0  0.80754  0.59201  0.58772  1.0000
  H   H1268     1.0  0.86569  0.52009  0.61372  1.0000
  C   C1049     1.0  0.81709  0.59463  0.57293  1.0000
  S   S282      1.0  0.94588  0.61295  0.52026  1.0000
  H   H1269     1.0  0.76408  0.52040  0.53189  1.0000
  C   C1050     1.0  0.90121  0.61654  0.58270  1.0000
  C   C1051     1.0  0.85866  0.50570  0.66033  1.0000
  S   S283      1.0  0.79227  0.50460  0.61729  1.0000
  C   C1052     1.0  0.92172  0.61530  0.58990  1.0000
  C   C1053     1.0  0.85606  0.65658  0.50242  1.0000
  C   C1054     1.0  0.80347  0.56403  0.55679  1.0000
  H   H1270     1.0  0.90895  0.55427  0.65764  1.0000
  N   N71       1.0  0.82303  0.57463  0.56224  1.0000
  C   C1055     1.0  0.83440  0.58039  0.54210  1.0000
  C   C1056     1.0  0.95631  0.57684  0.56375  1.0000
  H   H1271     1.0  0.94403  0.59919  0.60889  1.0000
  C   C1057     1.0  0.83547  0.56046  0.57646  1.0000
  C   C1058     1.0  0.85596  0.55217  0.57076  1.0000
  C   C1059     1.0  0.96653  0.54122  0.57480  1.0000
  C   C1060     1.0  0.86666  0.53775  0.58408  1.0000
  H   H1272     1.0  0.87994  0.52906  0.67060  1.0000
  Fe  Fe141     1.0  0.79776  0.63926  0.51451  1.0000
  H   H1273     1.0  0.83854  0.56625  0.53262  1.0000
  H   H1274     1.0  0.82447  0.59104  0.53195  1.0000
  H   H1275     1.0  0.84894  0.58921  0.54490  1.0000
  N   N72       1.0  0.91921  0.56652  0.62690  1.0000
  C   C1061     1.0  0.82676  0.55381  0.59643  1.0000
  H   H1276     1.0  0.94408  0.55590  0.64751  1.0000
  H   H1277     1.0  0.83129  0.60338  0.57696  1.0000
  H   H1278     1.0  0.75153  0.51196  0.55641  1.0000
  H   H1279     1.0  0.93315  0.62675  0.58417  1.0000
  H   H1280     1.0  0.86398  0.55634  0.55599  1.0000
  S   S284      1.0  0.92242  0.51149  0.66535  1.0000
  C   C1062     1.0  0.89460  0.65479  0.50483  1.0000
  H   H1281     1.0  0.79333  0.56035  0.57095  1.0000
  C   C1063     1.0  0.85394  0.64334  0.52037  1.0000
  C   C1064     1.0  0.95309  0.55511  0.56378  1.0000
  C   C1065     1.0  0.91893  0.54609  0.61607  1.0000
  C   C1066     1.0  0.88669  0.60155  0.58961  1.0000
  C   C1067     1.0  0.89736  0.50148  0.65955  1.0000
  H   H1282     1.0  0.94547  0.58747  0.55574  1.0000
  H   H1283     1.0  0.90227  0.58167  0.65264  1.0000
  C   C1068     1.0  0.85752  0.53145  0.60349  1.0000
  C   C1069     1.0  0.89262  0.58534  0.60386  1.0000
  H   H1284     1.0  0.95322  0.56703  0.62284  1.0000
  H   H1285     1.0  0.89666  0.62917  0.57171  1.0000
  C   C1070     1.0  0.90390  0.56597  0.64520  1.0000
  H   H1286     1.0  0.90292  0.54235  0.61110  1.0000
  H   H1287     1.0  0.93999  0.54912  0.55548  1.0000
  C   C1071     1.0  0.94058  0.56857  0.63543  1.0000
  H   H1288     1.0  0.80738  0.60547  0.56271  1.0000
  C   C1072     1.0  0.87880  0.51365  0.66390  1.0000
  C   C1073     1.0  0.83769  0.53961  0.60970  1.0000
  H   H1289     1.0  0.75825  0.76244  0.52431  1.0000
  C   C1074     1.0  0.91330  0.58384  0.61184  1.0000
  H   H1290     1.0  0.79354  0.57414  0.54610  1.0000
  H   H1291     1.0  0.80715  0.54883  0.54889  1.0000
  S   S285      1.0  0.77816  0.51093  0.66738  1.0000
  H   H1292     1.0  0.88089  0.57395  0.60862  1.0000
  Fe  Fe142     1.0  0.75520  0.66094  0.50113  1.0000
  H   H1293     1.0  0.98300  0.54198  0.51264  1.0000
  Fe  Fe143     1.0  0.95307  0.49816  0.65010  1.0000
  S   S286      1.0  0.78859  0.60785  0.50289  1.0000
  H   H1294     1.0  0.98871  0.52649  0.53589  1.0000
  Fe  Fe144     1.0  0.94972  0.64456  0.50447  1.0000
  S   S287      1.0  0.97793  0.61187  0.57270  1.0000
  C   C1075     1.0  0.98633  0.57097  0.58593  1.0000
  C   C1076     1.0  0.97870  0.52739  0.52184  1.0000
  C   C1077     1.0  0.74932  0.58024  0.56110  1.0000
  H   H1295     1.0  0.75014  0.53759  0.59535  1.0000
  C   C1078     1.0  0.75239  0.55360  0.58948  1.0000
  C   C1079     1.0  0.98316  0.54912  0.58591  1.0000
  H   H1296     1.0  0.99383  0.53838  0.59417  1.0000
  C   C1080     1.0  0.74598  0.55972  0.56916  1.0000
  S   S288      1.0  0.91982  0.66271  0.49503  1.0000
