data_image0
_chemical_formula_structural       S2FeSFeS3FeSFeSC6H4C3HC2HCHC2H2SFeSFeS3C2H3CHCH2C6H4NC9H11CH3CH2C2NC4H11C3H2C2H2C2SHC3H5SFeCHCHCHSHC2HCHNC2HCH3C2FeCHCFeH2CHC2H2S2C5HC3H3C2HNCH3SHCHCNHCHSCFeCSC3H2CH2C3HFeCFeHSCH2FeSFeCHSH2CSHC4H2CH4CH3C2SHCSCFeHCH2CH4NH2CSCHS2HC2HCH3C2FeHCSCSC2NHFeHC2H2C4H8C2H3C2HC3HC2H2CH2CH4CHCSC2HSH3CH3C2NHCSCH2NHC2SH2CHCH3C2HCHC2HFeHSCH3S2FeSC6H4CNC5H5FeHSHSC2FeC3FeSCH2CH7SC2H3CH3CHCSH3C2HCHSFeS2FeS2FeSFeS3C2HC2HC3HC6H5SNC8H12CNCFeH2CH4CH6NC2H3CH2CH3CHC2SC3HC2HCH7C2H2CHCHSHSCH2CFeS2HFeCHSC3FeS2FeS2FeSFeS3C2H3C3H3SH2CH3C8H4NC8FeHCH5CHSH3CH3NHSCHCH2CH3CHCHCH2FeH2CH2CNC5H4FeC2H3C2NHCHCH3C2SHCFeS2FeS2FeSFeS3C2H3C3H2CHCH2C8H6CH4C3H4CHCHCH9CHC2H2NFeCHNC3H2CSH4CHC3H2NCHCH2SHCH2C2NH3S2HFeS2FeH2FeSFeS2FeS2FeSFeS3C3NH4CHC3HC3H2C2H2C6H4CH2CSH2FeC3H2FeCH9NC9H15CNC5H8CH2NCHCHC2H2C4S2CH5CHSHSHSHC2H4C6H5C4H6CHCH4CFeCSNH2SNCH4CHCFeHCFeS2HCFeHS2HC3HNC8H4CH2CSCHC2SH5CFeCH2C3NC9H14CH6SC2H2C2H2SFeS2FeS2FeSFeS4HSFeSFeSCH3C2H2C2H3C6H4C3H2C6H4C2FeC2HC2H7CH3NHCHC4FeH2CHCH4CH2CHCHC5H2C3H3C2H3C2NHC2SCH5CNHCH4C4H3C3SH3CNCHC3H3C3HCHC3H2FeSHFeS2FeS2FeSFeS4CSFeSFeSHC2H2FeCHCH2C6H4SH4C6H6CHCNHC2H3CSCH4CH2SH4NC2H2CH3SHC2HCNC5H6C2HCFeSC3HCH6C5H
_chemical_formula_sum              "S144 Fe72 C540 H648 N36"
_cell_length_a       50.6792
_cell_length_b       50.6845
_cell_length_c       35.4024
_cell_angle_alpha    91.1385
_cell_angle_beta     87.192
_cell_angle_gamma    119.527

_space_group_name_H-M_alt    "P 1"
_space_group_IT_number       1

loop_
  _space_group_symop_operation_xyz
  'x, y, z'

loop_
  _atom_site_type_symbol
  _atom_site_label
  _atom_site_symmetry_multiplicity
  _atom_site_fract_x
  _atom_site_fract_y
  _atom_site_fract_z
  _atom_site_occupancy
  S   S1        1.0  0.14016  0.27720  0.20580  1.0000
  S   S2        1.0  0.12352  0.24363  0.28918  1.0000
  Fe  Fe1       1.0  0.16538  0.27064  0.25217  1.0000
  S   S3        1.0  0.20386  0.26078  0.23775  1.0000
  Fe  Fe2       1.0  0.09887  0.25403  0.24572  1.0000
  S   S4        1.0  0.05355  0.21479  0.22813  1.0000
  S   S5        1.0  0.26172  0.10772  0.22527  1.0000
  S   S6        1.0  0.25394  0.11315  0.31699  1.0000
  Fe  Fe3       1.0  0.27031  0.08881  0.27701  1.0000
  S   S7        1.0  0.25975  0.04035  0.28730  1.0000
  Fe  Fe4       1.0  0.24969  0.13559  0.26536  1.0000
  S   S8        1.0  0.20659  0.13891  0.26562  1.0000
  C   C1        1.0  0.20732  0.17389  0.26091  1.0000
  C   C2        1.0  0.23224  0.19898  0.24380  1.0000
  C   C3        1.0  0.23090  0.22557  0.23737  1.0000
  C   C4        1.0  0.20492  0.22748  0.24857  1.0000
  C   C5        1.0  0.18067  0.20297  0.26758  1.0000
  C   C6        1.0  0.18187  0.17622  0.27359  1.0000
  H   H1        1.0  0.25209  0.19754  0.23427  1.0000
  H   H2        1.0  0.24989  0.24461  0.22304  1.0000
  H   H3        1.0  0.16105  0.20464  0.27762  1.0000
  H   H4        1.0  0.16295  0.15718  0.28798  1.0000
  C   C7        1.0  0.19964  0.20373  0.40298  1.0000
  C   C8        1.0  0.13640  0.29621  0.42138  1.0000
  C   C9        1.0  0.11787  0.28627  0.45477  1.0000
  H   H5        1.0  0.27917  0.22077  0.34449  1.0000
  C   C10       1.0  0.22973  0.00722  0.26826  1.0000
  C   C11       1.0  0.31128  0.16702  0.48556  1.0000
  H   H6        1.0  0.20671  0.02876  0.24478  1.0000
  C   C12       1.0  0.29721  0.11790  0.45868  1.0000
  H   H7        1.0  0.20156  0.15268  0.34513  1.0000
  C   C13       1.0  0.01770  0.21253  0.23715  1.0000
  C   C14       1.0  0.01514  0.23798  0.24748  1.0000
  H   H8        1.0  0.26132  0.99485  0.44933  1.0000
  H   H9        1.0  0.03542  0.25963  0.25093  1.0000
  S   S9        1.0  0.44446  0.24626  0.05790  1.0000
  Fe  Fe5       1.0  0.31038  0.14556  0.22845  1.0000
  S   S10       1.0  0.33582  0.15358  0.17012  1.0000
  Fe  Fe6       1.0  0.30203  0.15080  0.31555  1.0000
  S   S11       1.0  0.31870  0.17726  0.37056  1.0000
  S   S12       1.0  0.31944  0.12510  0.27898  1.0000
  S   S13       1.0  0.29720  0.17483  0.26506  1.0000
  C   C15       1.0  0.31129  0.16068  0.41654  1.0000
  C   C16       1.0  0.30134  0.12985  0.42182  1.0000
  H   H10       1.0  0.23679  0.05536  0.46038  1.0000
  H   H11       1.0  0.43517  0.18681  0.12672  1.0000
  H   H12       1.0  0.26600  0.23682  0.12844  1.0000
  C   C17       1.0  0.31614  0.17915  0.44864  1.0000
  H   H13       1.0  0.29782  0.11542  0.39748  1.0000
  C   C18       1.0  0.42491  0.15320  0.16834  1.0000
  H   H14       1.0  0.13857  0.08820  0.16818  1.0000
  H   H15       1.0  0.32412  0.20308  0.44495  1.0000
  C   C19       1.0  0.41424  0.21994  0.08866  1.0000
  C   C20       1.0  0.41122  0.22889  0.12585  1.0000
  C   C21       1.0  0.38802  0.20874  0.15153  1.0000
  C   C22       1.0  0.36712  0.17942  0.14018  1.0000
  C   C23       1.0  0.37022  0.17045  0.10304  1.0000
  C   C24       1.0  0.39361  0.19047  0.07748  1.0000
  H   H16       1.0  0.42716  0.25153  0.13500  1.0000
  H   H17       1.0  0.38629  0.21596  0.18007  1.0000
  H   H18       1.0  0.35425  0.14784  0.09383  1.0000
  H   H19       1.0  0.39553  0.18313  0.04906  1.0000
  N   N1        1.0  0.08990  0.16094  0.19611  1.0000
  C   C25       1.0  0.11464  0.19259  0.20090  1.0000
  C   C26       1.0  0.07047  0.16114  0.16612  1.0000
  C   C27       1.0  0.07084  0.15068  0.23177  1.0000
  C   C28       1.0  0.10320  0.14109  0.18751  1.0000
  C   C29       1.0  0.09915  0.12512  0.15284  1.0000
  C   C30       1.0  0.12090  0.13729  0.21443  1.0000
  C   C31       1.0  0.11182  0.10628  0.14612  1.0000
  C   C32       1.0  0.13344  0.11841  0.20747  1.0000
  C   C33       1.0  0.12884  0.10286  0.17341  1.0000
  H   H20       1.0  0.13005  0.20098  0.17516  1.0000
  H   H21       1.0  0.10550  0.20833  0.20651  1.0000
  H   H22       1.0  0.12886  0.19508  0.22503  1.0000
  H   H23       1.0  0.06053  0.17598  0.17380  1.0000
  H   H24       1.0  0.05097  0.13809  0.16152  1.0000
  H   H25       1.0  0.08369  0.17033  0.13895  1.0000
  H   H26       1.0  0.08439  0.15413  0.25697  1.0000
  H   H27       1.0  0.05849  0.16347  0.23771  1.0000
  H   H28       1.0  0.05349  0.12622  0.23043  1.0000
  H   H29       1.0  0.08620  0.12667  0.13052  1.0000
  H   H30       1.0  0.12510  0.14892  0.24118  1.0000
  C   C34       1.0  0.22391  0.03514  0.44374  1.0000
  H   H31       1.0  0.14693  0.11592  0.22859  1.0000
  H   H32       1.0  0.29071  0.09432  0.46234  1.0000
  H   H33       1.0  0.27119  0.18237  0.34384  1.0000
  C   C35       1.0  0.46246  0.13794  0.17641  1.0000
  H   H34       1.0  0.22607  0.13256  0.17788  1.0000
  H   H35       1.0  0.19784  0.14846  0.39567  1.0000
  C   C36       1.0  0.22206  0.20793  0.37439  1.0000
  C   C37       1.0  0.23512  0.15515  0.16609  1.0000
  N   N2        1.0  0.31196  0.22096  0.13404  1.0000
  C   C38       1.0  0.32846  0.22491  0.16903  1.0000
  C   C39       1.0  0.32143  0.20511  0.10539  1.0000
  C   C40       1.0  0.32168  0.25169  0.11884  1.0000
  C   C41       1.0  0.26617  0.17268  0.15700  1.0000
  H   H36       1.0  0.35343  0.23954  0.16414  1.0000
  H   H37       1.0  0.31674  0.18248  0.11529  1.0000
  H   H38       1.0  0.34630  0.21808  0.09822  1.0000
  H   H39       1.0  0.30929  0.20145  0.07877  1.0000
  H   H40       1.0  0.34662  0.26448  0.11208  1.0000
  H   H41       1.0  0.31044  0.25044  0.09210  1.0000
  H   H42       1.0  0.31674  0.26559  0.13973  1.0000
  H   H43       1.0  0.28026  0.16261  0.16176  1.0000
  H   H44       1.0  0.21716  0.26237  0.32344  1.0000
  H   H45       1.0  0.46874  0.16632  0.05477  1.0000
  H   H46       1.0  0.10835  0.09414  0.11961  1.0000
  C   C42       1.0  0.21255  0.24620  0.34597  1.0000
  C   C43       1.0  0.22815  0.22983  0.34582  1.0000
  C   C44       1.0  0.19862  0.01007  0.46005  1.0000
  H   H47       1.0  0.40292  0.15110  0.17603  1.0000
  H   H48       1.0  0.32079  0.23533  0.19190  1.0000
  C   C45       1.0  0.27887  0.20271  0.14274  1.0000
  C   C46       1.0  0.22749  0.19634  0.14754  1.0000
  H   H49       1.0  0.32494  0.20302  0.18020  1.0000
  H   H50       1.0  0.46965  0.12393  0.19059  1.0000
  C   C47       1.0  0.44358  0.17366  0.14009  1.0000
  C   C48       1.0  0.18412  0.22018  0.40278  1.0000
  S   S14       1.0  0.11868  0.28772  0.37719  1.0000
  H   H51       1.0  0.22392  0.00861  0.35545  1.0000
  C   C49       1.0  0.25854  0.21411  0.13836  1.0000
  C   C50       1.0  0.21598  0.00822  0.38448  1.0000
  C   C51       1.0  0.98628  0.23564  0.25218  1.0000
  H   H52       1.0  0.22531  0.14230  0.36959  1.0000
  H   H53       1.0  0.21248  0.20571  0.14498  1.0000
  H   H54       1.0  0.24446  0.23444  0.32257  1.0000
  H   H55       1.0  0.45374  0.19143  0.06518  1.0000
  H   H56       1.0  0.19361  0.18729  0.42539  1.0000
  S   S15       1.0  0.10666  0.29736  0.27294  1.0000
  Fe  Fe7       1.0  0.13351  0.28839  0.31490  1.0000
  C   C52       1.0  0.21449  0.15686  0.37122  1.0000
  H   H57       1.0  0.26994  0.21833  0.41451  1.0000
  C   C53       1.0  0.26045  0.19688  0.34310  1.0000
  H   H58       1.0  0.26569  0.18113  0.41065  1.0000
  C   C54       1.0  0.20608  0.00746  0.24974  1.0000
  H   H59       1.0  0.99278  0.16481  0.22436  1.0000
  S   S16       1.0  0.17746  0.31510  0.28069  1.0000
  H   H60       1.0  0.19198  0.15364  0.16948  1.0000
  C   C55       1.0  0.25306  0.19399  0.41044  1.0000
  C   C56       1.0  0.21584  0.16695  0.16131  1.0000
  H   H61       1.0  0.25020  0.19272  0.31512  1.0000
  C   C57       1.0  0.16786  0.31377  0.42431  1.0000
  H   H62       1.0  0.23714  0.18612  0.43564  1.0000
  N   N3        1.0  0.23737  0.18943  0.37457  1.0000
  C   C58       1.0  0.23270  0.03412  0.40609  1.0000
  C   C59       1.0  0.43437  0.13541  0.18654  1.0000
  H   H63       1.0  0.09350  0.27277  0.45288  1.0000
  C   C60       1.0  0.99107  0.18462  0.23243  1.0000
  H   H64       1.0  0.25253  0.05358  0.39337  1.0000
  H   H65       1.0  0.16667  0.21623  0.42445  1.0000
  H   H66       1.0  0.17822  0.25382  0.37387  1.0000
  C   C61       1.0  0.47237  0.17696  0.12905  1.0000
  C   C62       1.0  0.19054  0.24135  0.37428  1.0000
  Fe  Fe8       1.0  0.46373  0.24124  0.99953  1.0000
  C   C63       1.0  0.18042  0.32189  0.46029  1.0000
  H   H67       1.0  0.18241  0.32185  0.39896  1.0000
  C   C64       1.0  0.47490  0.18990  0.06311  1.0000
  Fe  Fe9       1.0  0.14991  0.32029  0.23601  1.0000
  H   H68       1.0  0.47685  0.23156  0.11228  1.0000
  H   H69       1.0  0.41980  0.11955  0.20845  1.0000
  C   C65       1.0  0.48129  0.15832  0.14804  1.0000
  H   H70       1.0  0.19216  0.01091  0.48955  1.0000
  C   C66       1.0  0.01292  0.21642  0.67167  1.0000
  C   C67       1.0  0.01427  0.24131  0.65337  1.0000
  H   H71       1.0  0.03361  0.21756  0.68041  1.0000
  H   H72       1.0  0.41958  0.25855  0.84037  1.0000
  S   S17       1.0  0.04880  0.27591  0.64621  1.0000
  S   S18       1.0  0.45411  0.19716  0.97251  1.0000
  C   C68       1.0  0.42198  0.19609  0.79996  1.0000
  C   C69       1.0  0.43663  0.27888  0.73392  1.0000
  C   C70       1.0  0.18160  0.19196  0.67127  1.0000
  C   C71       1.0  0.20459  0.25903  0.77315  1.0000
  C   C72       1.0  0.19264  0.00069  0.69550  1.0000
  H   H73       1.0  0.15945  0.22786  0.55125  1.0000
  C   C73       1.0  0.48397  0.27168  0.83774  1.0000
  C   C74       1.0  0.21369  0.30029  0.83411  1.0000
  C   C75       1.0  0.40134  0.25331  0.78628  1.0000
  H   H74       1.0  0.14876  0.23496  0.75165  1.0000
  H   H75       1.0  0.29898  0.03158  0.76229  1.0000
  H   H76       1.0  0.19937  0.24354  0.74835  1.0000
  C   C76       1.0  0.46058  0.29187  0.75857  1.0000
  C   C77       1.0  0.17737  0.31308  0.81026  1.0000
  H   H77       1.0  0.37842  0.23775  0.79679  1.0000
  N   N4        1.0  0.20750  0.26016  0.54601  1.0000
  C   C78       1.0  0.25130  0.00066  0.54390  1.0000
  H   H78       1.0  0.31206  0.11995  0.74105  1.0000
  H   H79       1.0  0.13898  0.26152  0.77198  1.0000
  H   H80       1.0  0.25101  0.30139  0.54879  1.0000
  S   S19       1.0  0.18230  0.30781  0.64378  1.0000
  H   H81       1.0  0.19946  0.24466  0.79877  1.0000
  C   C79       1.0  0.22844  0.28943  0.56391  1.0000
  H   H82       1.0  0.31034  0.06845  0.69006  1.0000
  C   C80       1.0  0.40711  0.25958  0.74773  1.0000
  N   N5        1.0  0.31117  0.07775  0.75000  1.0000
  H   H83       1.0  0.25841  0.26407  0.64808  1.0000
  C   C81       1.0  0.42511  0.26571  0.81110  1.0000
  H   H84       1.0  0.19089  0.27754  0.71300  1.0000
  S   S20       1.0  0.12038  0.28019  0.69928  1.0000
  C   C82       1.0  0.21898  0.23855  0.54961  1.0000
  Fe  Fe10      1.0  0.14289  0.26214  0.65784  1.0000
  C   C83       1.0  0.37107  0.11463  0.84296  1.0000
  S   S21       1.0  0.46203  0.26238  0.94465  1.0000
  C   C84       1.0  0.29544  0.09560  0.74654  1.0000
  C   C85       1.0  0.36422  0.10496  0.77588  1.0000
  C   C86       1.0  0.20177  0.20983  0.56782  1.0000
  H   H85       1.0  0.99951  0.24138  0.74257  1.0000
  H   H86       1.0  0.29634  0.07830  0.82564  1.0000
  C   C87       1.0  0.28805  0.04554  0.75739  1.0000
  H   H87       1.0  0.27260  0.04274  0.78220  1.0000
  H   H88       1.0  0.37533  0.10869  0.74813  1.0000
  C   C88       1.0  0.32045  0.08835  0.81929  1.0000
  C   C89       1.0  0.33973  0.10047  0.84945  1.0000
  C   C90       1.0  0.30214  0.13633  0.49081  1.0000
  H   H89       1.0  0.25801  0.99627  0.64004  1.0000
  Fe  Fe11      1.0  0.09720  0.28409  0.64857  1.0000
  C   C91       1.0  0.21019  0.24580  0.65862  1.0000
  Fe  Fe12      1.0  0.45458  0.21889  0.91676  1.0000
  H   H90       1.0  0.17943  0.20222  0.58078  1.0000
  S   S22       1.0  0.25078  0.13033  0.61976  1.0000
  C   C92       1.0  0.17676  0.24931  0.56406  1.0000
  H   H91       1.0  0.21937  0.30550  0.56442  1.0000
  H   H92       1.0  0.03110  0.29591  0.72810  1.0000
  Fe  Fe13      1.0  0.27752  0.17371  0.65169  1.0000
  S   S23       1.0  0.14803  0.22121  0.67172  1.0000
  Fe  Fe14      1.0  0.32479  0.15693  0.67620  1.0000
  C   C93       1.0  0.41156  0.19022  0.76268  1.0000
  H   H93       1.0  0.16881  0.26602  0.56070  1.0000
  S   S24       1.0  0.28100  0.15054  0.70345  1.0000
  H   H94       1.0  0.28154  0.09434  0.77241  1.0000
  H   H95       1.0  0.33043  0.09955  0.87793  1.0000
  C   C94       1.0  0.98867  0.25478  0.73760  1.0000
  S   S25       1.0  0.32281  0.18254  0.62562  1.0000
  H   H96       1.0  0.25471  0.01756  0.56534  1.0000
  C   C95       1.0  0.24296  0.19882  0.55733  1.0000
  C   C96       1.0  0.32677  0.07900  0.71286  1.0000
  C   C97       1.0  0.99284  0.30280  0.72212  1.0000
  C   C98       1.0  0.18233  0.21982  0.66675  1.0000
  H   H97       1.0  0.23222  0.28595  0.59364  1.0000
  H   H98       1.0  0.17451  0.00191  0.71145  1.0000
  C   C99       1.0  0.19403  0.29226  0.73796  1.0000
  H   H99       1.0  0.22942  0.27530  0.77059  1.0000
  H   H100      1.0  0.27289  0.03541  0.73319  1.0000
  H   H101      1.0  0.44098  0.28333  0.70377  1.0000
  H   H102      1.0  0.20756  0.16840  0.67045  1.0000
  C   C100      1.0  0.20583  0.26571  0.50544  1.0000
  H   H103      1.0  0.16017  0.17172  0.67774  1.0000
  H   H104      1.0  0.26154  0.04620  0.65219  1.0000
  H   H105      1.0  0.38873  0.24888  0.72843  1.0000
  C   C101      1.0  0.21838  0.02762  0.68279  1.0000
  C   C102      1.0  0.45548  0.28560  0.79809  1.0000
  S   S26       1.0  0.11613  0.26178  0.60862  1.0000
  H   H106      1.0  0.21119  0.26741  0.65545  1.0000
  C   C103      1.0  0.40160  0.19059  0.83091  1.0000
  S   S27       1.0  0.36895  0.17140  0.70759  1.0000
  C   C104      1.0  0.24171  0.02576  0.66231  1.0000
  Fe  Fe15      1.0  0.29600  0.13764  0.59637  1.0000
  H   H107      1.0  0.14726  0.23879  0.80226  1.0000
  C   C105      1.0  0.38069  0.17901  0.75551  1.0000
  H   H108      1.0  0.33661  0.16534  0.78177  1.0000
  H   H109      1.0  0.44568  0.20434  0.80470  1.0000
  C   C106      1.0  0.24848  0.24615  0.53489  1.0000
  H   H110      1.0  0.98793  0.25869  0.62841  1.0000
  H   H111      1.0  0.42757  0.19436  0.73913  1.0000
  H   H112      1.0  0.35465  0.17488  0.84730  1.0000
  H   H113      1.0  0.40771  0.12887  0.80127  1.0000
  N   N6        1.0  0.18664  0.27503  0.77387  1.0000
  H   H114      1.0  0.46335  0.25447  0.85374  1.0000
  H   H115      1.0  0.19681  0.28157  0.50181  1.0000
  C   C107      1.0  0.21370  0.19034  0.57134  1.0000
  S   S28       1.0  0.29750  0.11993  0.53644  1.0000
  C   C108      1.0  0.37074  0.17938  0.82374  1.0000
  H   H116      1.0  0.17648  0.24575  0.59502  1.0000
  S   S29       1.0  0.22115  0.06311  0.69430  1.0000
  S   S30       1.0  0.27064  0.21497  0.65224  1.0000
  H   H117      1.0  0.33975  0.06663  0.71377  1.0000
  C   C109      1.0  0.33208  0.09000  0.78155  1.0000
  C   C110      1.0  0.23696  0.24387  0.65458  1.0000
  H   H118      1.0  0.34248  0.10287  0.70358  1.0000
  C   C111      1.0  0.23953  0.99734  0.65524  1.0000
  H   H119      1.0  0.31548  0.18155  0.50992  1.0000
  H   H120      1.0  0.28327  0.23328  0.52884  1.0000
  H   H121      1.0  0.38603  0.12492  0.86620  1.0000
  C   C112      1.0  0.36036  0.17378  0.78645  1.0000
  C   C113      1.0  0.20841  0.18999  0.66716  1.0000
  Fe  Fe16      1.0  0.25848  0.10764  0.66878  1.0000
  H   H122      1.0  0.27968  0.08733  0.72290  1.0000
  C   C114      1.0  0.38326  0.11682  0.80630  1.0000
  S   S31       1.0  0.30229  0.11269  0.64425  1.0000
  C   C115      1.0  0.23623  0.21597  0.65860  1.0000
  S   S32       1.0  0.41296  0.19637  0.87901  1.0000
  C   C116      1.0  0.25952  0.00948  0.50623  1.0000
  C   C117      1.0  0.00654  0.28557  0.72951  1.0000
  N   N7        1.0  0.48045  0.29729  0.82471  1.0000
  H   H123      1.0  0.26296  0.26763  0.52093  1.0000
  Fe  Fe17      1.0  0.15438  0.30894  0.59677  1.0000
  H   H124      1.0  0.20070  0.16904  0.58658  1.0000
  C   C118      1.0  0.26027  0.22660  0.53897  1.0000
  C   C119      1.0  0.19267  0.29599  0.80618  1.0000
  H   H125      1.0  0.11577  0.28658  0.51603  1.0000
  H   H126      1.0  0.25255  0.18417  0.56172  1.0000
  C   C120      1.0  0.15404  0.25161  0.77509  1.0000
  C   C121      1.0  0.47339  0.31133  0.85811  1.0000
  C   C122      1.0  0.21901  0.32064  0.86395  1.0000
  C   C123      1.0  0.16176  0.31234  0.49367  1.0000
  H   H127      1.0  0.17921  0.30224  0.73419  1.0000
  H   H128      1.0  0.48289  0.30624  0.74585  1.0000
  H   H129      1.0  0.21784  0.31137  0.73671  1.0000
  H   H130      1.0  0.22651  0.28847  0.83336  1.0000
  H   H131      1.0  0.45357  0.29462  0.87566  1.0000
  H   H132      1.0  0.16151  0.31156  0.78979  1.0000
  H   H133      1.0  0.19060  0.24422  0.49085  1.0000
  H   H134      1.0  0.26950  0.03324  0.49851  1.0000
  C   C124      1.0  0.13043  0.29408  0.49069  1.0000
  C   C125      1.0  0.98711  0.23950  0.64240  1.0000
  H   H135      1.0  0.22841  0.27618  0.49024  1.0000
  H   H136      1.0  0.10269  0.34259  0.40949  1.0000
  H   H137      1.0  0.09764  0.36320  0.35386  1.0000
  C   C126      1.0  0.12976  0.35826  0.45710  1.0000
  C   C127      1.0  0.12516  0.35835  0.41846  1.0000
  H   H138      1.0  0.10671  0.33303  0.34677  1.0000
  C   C128      1.0  0.11405  0.35710  0.33992  1.0000
  C   C129      1.0  0.48084  0.65589  0.08943  1.0000
  C   C130      1.0  0.37784  0.60667  0.99989  1.0000
  H   H139      1.0  0.11200  0.35794  0.30879  1.0000
  C   C131      1.0  0.15837  0.37665  0.47113  1.0000
  C   C132      1.0  0.31148  0.47251  0.00577  1.0000
  H   H140      1.0  0.16110  0.34577  0.34098  1.0000
  H   H141      1.0  0.16232  0.36665  0.29962  1.0000
  C   C133      1.0  0.16566  0.36832  0.33071  1.0000
  H   H142      1.0  0.19766  0.41074  0.39012  1.0000
  H   H143      1.0  0.20481  0.40946  0.45772  1.0000
  C   C134      1.0  0.14932  0.37736  0.39264  1.0000
  H   H144      1.0  0.19011  0.38446  0.33429  1.0000
  H   H145      1.0  0.15056  0.40961  0.30826  1.0000
  H   H146      1.0  0.17821  0.42539  0.34328  1.0000
  H   H147      1.0  0.14001  0.41716  0.35493  1.0000
  C   C135      1.0  0.15395  0.40882  0.33904  1.0000
  H   H148      1.0  0.46206  0.64662  0.06930  1.0000
  C   C136      1.0  0.27596  0.49451  0.10648  1.0000
  S   S33       1.0  0.16321  0.36616  0.20829  1.0000
  C   C137      1.0  0.20707  0.40454  0.08903  1.0000
  C   C138      1.0  0.17814  0.39601  0.40801  1.0000
  H   H149      1.0  0.35200  0.54983  0.05429  1.0000
  S   S34       1.0  0.20752  0.54328  0.00323  1.0000
  H   H150      1.0  0.28910  0.45380  0.01634  1.0000
  H   H151      1.0  0.27687  0.53489  0.12800  1.0000
  H   H152      1.0  0.34948  0.45707  0.03879  1.0000
  C   C139      1.0  0.20551  0.37782  0.10266  1.0000
  H   H153      1.0  0.37878  0.52410  0.04038  1.0000
  H   H154      1.0  0.20364  0.63835  0.00846  1.0000
  H   H155      1.0  0.35113  0.47677  0.08234  1.0000
  C   C140      1.0  0.36182  0.51124  0.01884  1.0000
  C   C141      1.0  0.17969  0.38001  0.16183  1.0000
  N   N8        1.0  0.33226  0.48841  0.03667  1.0000
  H   H156      1.0  0.48518  0.63711  0.09650  1.0000
  C   C142      1.0  0.28861  0.52575  0.11054  1.0000
  S   S35       1.0  0.26022  0.50744  0.00921  1.0000
  C   C143      1.0  0.33741  0.46619  0.05718  1.0000
  H   H157      1.0  0.37576  0.61352  0.02851  1.0000
  H   H158      1.0  0.32576  0.56950  0.09466  1.0000
  N   N9        1.0  0.14555  0.37775  0.35142  1.0000
  H   H159      1.0  0.31576  0.44615  0.06717  1.0000
  C   C144      1.0  0.33096  0.53347  0.06831  1.0000
  C   C145      1.0  0.31614  0.54518  0.09168  1.0000
  S   S36       1.0  0.22571  0.41931  0.04376  1.0000
  H   H160      1.0  0.27940  0.45824  0.08043  1.0000
  H   H161      1.0  0.19815  0.59075  0.03490  1.0000
  C   C146      1.0  0.31829  0.50169  0.06289  1.0000
  H   H162      1.0  0.25431  0.47931  0.12072  1.0000
  C   C147      1.0  0.18140  0.40684  0.14830  1.0000
  H   H163      1.0  0.20468  0.33617  0.46226  1.0000
  H   H164      1.0  0.19566  0.43941  0.10228  1.0000
  H   H165      1.0  0.17219  0.41834  0.16586  1.0000
  C   C148      1.0  0.29056  0.48261  0.08319  1.0000
  C   C149      1.0  0.19476  0.41890  0.11214  1.0000
  H   H166      1.0  0.19083  0.34499  0.14836  1.0000
  C   C150      1.0  0.18251  0.39552  0.44665  1.0000
  H   H167      1.0  0.21492  0.36643  0.08524  1.0000
  C   C151      1.0  0.19177  0.36552  0.13855  1.0000
  C   C152      1.0  0.20704  0.59738  0.00616  1.0000
  H   H168      1.0  0.33267  0.56738  0.00177  1.0000
  Fe  Fe18      1.0  0.23084  0.45670  0.00280  1.0000
  H   H169      1.0  0.11126  0.34301  0.47617  1.0000
  S   S37       1.0  0.43632  0.65483  0.99940  1.0000
  C   C153      1.0  0.21025  0.62449  0.99128  1.0000
  H   H170      1.0  0.37177  0.50053  0.99946  1.0000
  H   H171      1.0  0.35915  0.52754  0.00091  1.0000
  H   H172      1.0  0.30706  0.48854  0.98989  1.0000
  S   S38       1.0  0.24395  0.51391  0.92078  1.0000
  S   S39       1.0  0.25220  0.45633  0.94508  1.0000
  Fe  Fe19      1.0  0.21578  0.46271  0.92008  1.0000
  S   S40       1.0  0.18354  0.43614  0.87234  1.0000
  C   C154      1.0  0.18586  0.41487  0.83236  1.0000
  C   C155      1.0  0.15978  0.39751  0.81147  1.0000
  C   C156      1.0  0.16052  0.38083  0.77923  1.0000
  C   C157      1.0  0.18755  0.38152  0.76697  1.0000
  C   C158      1.0  0.21360  0.39879  0.78793  1.0000
  C   C159      1.0  0.21277  0.41517  0.82044  1.0000
  H   H173      1.0  0.13880  0.39702  0.82023  1.0000
  H   H174      1.0  0.14026  0.36779  0.76359  1.0000
  H   H175      1.0  0.23468  0.39957  0.77892  1.0000
  H   H176      1.0  0.23310  0.42838  0.83590  1.0000
  C   C160      1.0  0.22052  0.63274  0.95370  1.0000
  N   N10       1.0  0.15209  0.50656  0.89362  1.0000
  C   C161      1.0  0.16752  0.49990  0.92348  1.0000
  C   C162      1.0  0.12030  0.48153  0.89279  1.0000
  C   C163      1.0  0.16771  0.50670  0.85688  1.0000
  C   C164      1.0  0.15238  0.53547  0.90199  1.0000
  C   C165      1.0  0.16351  0.55975  0.87544  1.0000
  H   H177      1.0  0.15413  0.61202  0.92743  1.0000
  H   H178      1.0  0.17012  0.47978  0.91634  1.0000
  H   H179      1.0  0.10776  0.47866  0.92045  1.0000
  H   H180      1.0  0.11927  0.45941  0.88628  1.0000
  H   H181      1.0  0.10773  0.48579  0.87098  1.0000
  Fe  Fe20      1.0  0.22391  0.51135  0.97947  1.0000
  H   H182      1.0  0.16795  0.48496  0.85207  1.0000
  S   S41       1.0  0.17858  0.32434  0.53825  1.0000
  H   H183      1.0  0.17274  0.55870  0.84771  1.0000
  S   S42       1.0  0.19029  0.36129  0.72611  1.0000
  C   C166      1.0  0.15284  0.59054  0.92004  1.0000
  C   C167      1.0  0.14111  0.53992  0.93768  1.0000
  Fe  Fe21      1.0  0.15880  0.32659  0.68281  1.0000
  C   C168      1.0  0.16371  0.58684  0.88459  1.0000
  C   C169      1.0  0.22874  0.61422  0.93175  1.0000
  C   C170      1.0  0.22615  0.58744  0.94688  1.0000
  Fe  Fe22      1.0  0.27872  0.50746  0.95029  1.0000
  S   S43       1.0  0.32871  0.53493  0.93095  1.0000
  C   C171      1.0  0.35645  0.57045  0.94865  1.0000
  H   H184      1.0  0.23219  0.57331  0.92945  1.0000
  H   H185      1.0  0.23650  0.62029  0.90258  1.0000
  C   C172      1.0  0.40493  0.62397  0.97815  1.0000
  H   H186      1.0  0.34678  0.62470  0.93493  1.0000
  H   H187      1.0  0.17324  0.60559  0.86462  1.0000
  H   H188      1.0  0.42799  0.62781  0.92417  1.0000
  H   H189      1.0  0.38593  0.58050  0.89870  1.0000
  H   H190      1.0  0.19045  0.51956  0.92751  1.0000
  H   H191      1.0  0.32108  0.46239  0.98496  1.0000
  H   H192      1.0  0.13249  0.52266  0.95944  1.0000
  S   S44       1.0  0.19301  0.46054  0.97754  1.0000
  C   C173      1.0  0.18279  0.33321  0.84025  1.0000
  C   C174      1.0  0.38333  0.58802  0.92678  1.0000
  H   H193      1.0  0.17120  0.34642  0.84233  1.0000
  H   H194      1.0  0.19192  0.52498  0.85597  1.0000
  H   H195      1.0  0.15509  0.49489  0.95147  1.0000
  C   C175      1.0  0.40723  0.61490  0.94115  1.0000
  H   H196      1.0  0.13406  0.57052  0.97450  1.0000
  H   H197      1.0  0.16196  0.37565  0.50094  1.0000
  H   H198      1.0  0.15619  0.50944  0.83254  1.0000
  C   C176      1.0  0.35344  0.58043  0.98491  1.0000
  H   H199      1.0  0.46863  0.32947  0.84935  1.0000
  C   C177      1.0  0.14159  0.56715  0.94653  1.0000
  S   S45       1.0  0.13446  0.33190  0.63417  1.0000
  H   H200      1.0  0.20808  0.35317  0.88976  1.0000
  H   H201      1.0  0.00692  0.32674  0.71561  1.0000
  H   H202      1.0  0.31256  0.62656  0.94094  1.0000
  C   C178      1.0  0.33565  0.63562  0.95181  1.0000
  C   C179      1.0  0.21464  0.57852  0.98400  1.0000
  H   H203      1.0  0.23534  0.32390  0.88476  1.0000
  C   C180      1.0  0.20366  0.33711  0.86694  1.0000
  H   H204      1.0  0.33277  0.62761  0.98157  1.0000
  S   S46       1.0  0.18055  0.75052  0.06139  1.0000
  Fe  Fe23      1.0  0.15190  0.82216  0.25705  1.0000
  S   S47       1.0  0.11623  0.82809  0.22923  1.0000
  S   S48       1.0  0.18547  0.81102  0.22437  1.0000
  Fe  Fe24      1.0  0.13983  0.84555  0.33498  1.0000
  S   S49       1.0  0.10397  0.85313  0.31070  1.0000
  S   S50       1.0  0.14716  0.86467  0.39501  1.0000
  Fe  Fe25      1.0  0.08766  0.80799  0.28283  1.0000
  S   S51       1.0  0.03954  0.76863  0.29185  1.0000
  Fe  Fe26      1.0  0.13632  0.87281  0.26025  1.0000
  S   S52       1.0  0.14712  0.91769  0.23362  1.0000
  S   S53       1.0  0.12223  0.79917  0.30940  1.0000
  S   S54       1.0  0.17309  0.86791  0.28571  1.0000
  C   C181      1.0  0.17956  0.95201  0.24600  1.0000
  C   C182      1.0  0.20362  0.95196  0.26361  1.0000
  H   H205      1.0  0.20310  0.93085  0.26894  1.0000
  C   C183      1.0  0.00536  0.76622  0.27769  1.0000
  C   C184      1.0  0.00461  0.79070  0.26127  1.0000
  H   H206      1.0  0.02551  0.81176  0.25600  1.0000
  C   C185      1.0  0.06876  0.78476  0.39518  1.0000
  C   C186      1.0  0.14390  0.84732  0.43923  1.0000
  C   C187      1.0  0.15085  0.82406  0.44305  1.0000
  H   H207      1.0  0.15733  0.81536  0.41827  1.0000
  C   C188      1.0  0.18263  0.76731  0.10695  1.0000
  C   C189      1.0  0.15648  0.76689  0.12331  1.0000
  C   C190      1.0  0.15680  0.77989  0.15915  1.0000
  C   C191      1.0  0.18331  0.79331  0.17949  1.0000
  C   C192      1.0  0.20946  0.79369  0.16321  1.0000
  C   C193      1.0  0.20922  0.78100  0.12714  1.0000
  H   H208      1.0  0.13574  0.75635  0.10811  1.0000
  H   H209      1.0  0.13645  0.77929  0.17109  1.0000
  H   H210      1.0  0.23014  0.80396  0.17853  1.0000
  H   H211      1.0  0.22952  0.78151  0.11516  1.0000
  H   H212      1.0  0.09369  0.79820  0.38872  1.0000
  S   S55       1.0  0.24213  0.72423  0.01810  1.0000
  N   N11       1.0  0.20782  0.88947  0.15075  1.0000
  C   C194      1.0  0.22907  0.88499  0.17366  1.0000
  C   C195      1.0  0.21410  0.92113  0.15669  1.0000
  C   C196      1.0  0.17638  0.86907  0.16552  1.0000
  C   C197      1.0  0.21108  0.88208  0.11067  1.0000
  C   C198      1.0  0.21989  0.90348  0.08068  1.0000
  C   C199      1.0  0.20535  0.85253  0.10063  1.0000
  C   C200      1.0  0.22271  0.89548  0.04318  1.0000
  C   C201      1.0  0.20823  0.84476  0.06317  1.0000
  H   H213      1.0  0.16233  0.96552  0.45306  1.0000
  H   H214      1.0  0.25301  0.89955  0.16322  1.0000
  H   H215      1.0  0.22716  0.89017  0.20408  1.0000
  H   H216      1.0  0.22446  0.86114  0.17302  1.0000
  H   H217      1.0  0.23783  0.93792  0.14761  1.0000
  H   H218      1.0  0.21120  0.92573  0.18713  1.0000
  H   H219      1.0  0.19802  0.92568  0.14147  1.0000
  H   H220      1.0  0.17083  0.84495  0.16659  1.0000
  H   H221      1.0  0.17271  0.87515  0.19495  1.0000
  H   H222      1.0  0.15944  0.87031  0.14785  1.0000
  H   H223      1.0  0.22466  0.92649  0.08540  1.0000
  H   H224      1.0  0.19854  0.83509  0.12174  1.0000
  C   C202      1.0  0.07760  0.75549  0.44025  1.0000
  N   N12       1.0  0.05947  0.75347  0.40742  1.0000
  C   C203      1.0  0.06760  0.73819  0.37636  1.0000
  Fe  Fe27      1.0  0.21431  0.74812  0.01705  1.0000
  H   H225      1.0  0.38596  0.79618  0.02897  1.0000
  H   H226      1.0  0.13099  0.91205  0.37617  1.0000
  C   C204      1.0  0.02625  0.73690  0.41612  1.0000
  H   H227      1.0  0.22941  0.91206  0.02067  1.0000
  H   H228      1.0  0.05746  0.78501  0.36910  1.0000
  H   H229      1.0  0.06305  0.79713  0.41750  1.0000
  H   H230      1.0  0.13081  0.87685  0.46920  1.0000
  C   C205      1.0  0.13625  0.85887  0.47185  1.0000
  H   H231      1.0  0.07593  0.77003  0.46318  1.0000
  H   H232      1.0  0.10224  0.76599  0.43223  1.0000
  H   H233      1.0  0.24702  0.97909  0.28831  1.0000
  H   H234      1.0  0.09264  0.74846  0.37152  1.0000
  H   H235      1.0  0.05820  0.71366  0.38265  1.0000
  H   H236      1.0  0.05929  0.74010  0.34858  1.0000
  N   N13       1.0  0.17185  0.95571  0.37589  1.0000
  C   C206      1.0  0.19091  0.94210  0.36370  1.0000
  C   C207      1.0  0.22861  0.97941  0.27443  1.0000
  H   H237      1.0  0.17859  0.92226  0.34479  1.0000
  H   H238      1.0  0.14920  0.92199  0.41988  1.0000
  H   H239      1.0  0.19768  0.93390  0.38840  1.0000
  C   C208      1.0  0.14385  0.93161  0.39530  1.0000
  H   H240      1.0  0.12821  0.94015  0.40489  1.0000
  H   H241      1.0  0.21201  0.95841  0.34784  1.0000
  C   C209      1.0  0.21690  0.86620  0.03447  1.0000
  H   H242      1.0  0.20364  0.82188  0.05644  1.0000
  H   H243      1.0  0.01349  0.73415  0.35753  1.0000
  H   H244      1.0  0.16276  0.98021  0.22457  1.0000
  C   C210      1.0  0.01341  0.72925  0.45367  1.0000
  H   H245      1.0  0.21907  0.85999  0.00544  1.0000
  C   C211      1.0  0.00558  0.72846  0.38666  1.0000
  C   C212      1.0  0.18116  0.97992  0.23846  1.0000
  S   S56       1.0  0.32770  0.78596  0.00680  1.0000
  C   C213      1.0  0.18163  0.98405  0.43861  1.0000
  C   C214      1.0  0.15071  0.81291  0.47928  1.0000
  C   C215      1.0  0.18959  0.98252  0.39983  1.0000
  H   H246      1.0  0.29802  0.71725  0.03777  1.0000
  C   C216      1.0  0.30904  0.70715  0.02067  1.0000
  C   C217      1.0  0.35322  0.70174  0.00528  1.0000
  H   H247      1.0  0.07057  0.73263  0.45199  1.0000
  C   C218      1.0  0.33833  0.71362  0.02816  1.0000
  H   H248      1.0  0.02720  0.73525  0.47807  1.0000
  H   H249      1.0  0.34993  0.72886  0.05109  1.0000
  H   H250      1.0  0.42530  0.78660  0.99698  1.0000
  H   H251      1.0  0.23983  0.94167  0.46594  1.0000
  H   H252      1.0  0.15685  0.79541  0.48209  1.0000
  H   H253      1.0  0.47185  0.66231  0.11518  1.0000
  H   H254      1.0  0.14872  0.94526  0.32325  1.0000
  C   C219      1.0  0.16237  0.96496  0.34184  1.0000
  C   C220      1.0  0.38206  0.78573  0.00136  1.0000
  H   H255      1.0  0.14857  0.97596  0.34973  1.0000
  H   H256      1.0  0.18196  0.98127  0.32379  1.0000
  C   C221      1.0  0.25497  0.98780  0.47865  1.0000
  H   H257      1.0  0.20227  0.89405  0.48634  1.0000
  C   C222      1.0  0.24256  0.95721  0.48867  1.0000
  H   H258      1.0  0.37621  0.70850  0.01213  1.0000
  S   S57       1.0  0.46622  0.73921  0.00182  1.0000
  H   H259      1.0  0.48185  0.69824  0.04599  1.0000
  S   S58       1.0  0.25255  0.79063  0.99090  1.0000
  C   C223      1.0  0.29429  0.68844  0.99055  1.0000
  H   H260      1.0  0.23297  0.96452  0.58379  1.0000
  H   H261      1.0  0.34683  0.85096  0.94831  1.0000
  C   C224      1.0  0.14356  0.82480  0.51196  1.0000
  Fe  Fe28      1.0  0.23443  0.76984  0.93427  1.0000
  S   S59       1.0  0.19521  0.72787  0.96025  1.0000
  S   S60       1.0  0.23074  0.80289  0.89363  1.0000
  H   H262      1.0  0.38209  0.85128  0.87451  1.0000
  Fe  Fe29      1.0  0.22673  0.70801  0.95935  1.0000
  C   C225      1.0  0.06240  0.74835  0.85204  1.0000
  H   H263      1.0  0.38564  0.67084  0.98906  1.0000
  S   S61       1.0  0.26480  0.74893  0.92929  1.0000
  C   C226      1.0  0.38509  0.67842  0.95997  1.0000
  C   C227      1.0  0.35002  0.76429  0.94823  1.0000
  C   C228      1.0  0.19012  0.97215  0.68763  1.0000
  Fe  Fe30      1.0  0.16005  0.82545  0.69877  1.0000
  S   S62       1.0  0.14842  0.86113  0.71868  1.0000
  S   S63       1.0  0.17097  0.79485  0.73468  1.0000
  Fe  Fe31      1.0  0.14472  0.83062  0.61554  1.0000
  S   S64       1.0  0.13166  0.86612  0.63032  1.0000
  S   S65       1.0  0.14562  0.81124  0.55688  1.0000
  Fe  Fe32      1.0  0.17318  0.88695  0.66542  1.0000
  S   S66       1.0  0.21240  0.93535  0.65757  1.0000
  Fe  Fe33      1.0  0.10781  0.83708  0.68195  1.0000
  S   S67       1.0  0.06091  0.82548  0.70670  1.0000
  S   S68       1.0  0.18753  0.85268  0.64767  1.0000
  S   S69       1.0  0.11806  0.80020  0.66490  1.0000
  C   C229      1.0  0.21367  0.97038  0.66760  1.0000
  C   C230      1.0  0.08446  0.75853  0.82144  1.0000
  H   H264      1.0  0.32902  0.75772  0.93469  1.0000
  H   H265      1.0  0.13110  0.76971  0.80699  1.0000
  H   H266      1.0  0.17017  0.95160  0.69750  1.0000
  C   C231      1.0  0.02679  0.79666  0.68796  1.0000
  C   C232      1.0  0.02603  0.85731  0.63931  1.0000
  C   C233      1.0  0.02698  0.78102  0.65507  1.0000
  H   H267      1.0  0.12406  0.80375  0.77347  1.0000
  H   H268      1.0  0.04836  0.78601  0.64090  1.0000
  H   H269      1.0  0.04254  0.77542  0.79963  1.0000
  S   S70       1.0  0.46634  0.71615  0.91298  1.0000
  H   H270      1.0  0.37568  0.88157  0.88927  1.0000
  H   H271      1.0  0.09564  0.80498  0.74716  1.0000
  C   C234      1.0  0.04736  0.76075  0.77995  1.0000
  H   H272      1.0  0.04396  0.76659  0.75100  1.0000
  H   H273      1.0  0.03007  0.89314  0.67604  1.0000
  H   H274      1.0  0.10770  0.75222  0.75203  1.0000
  C   C235      1.0  0.13569  0.84741  0.50799  1.0000
  C   C236      1.0  0.37284  0.76010  0.92953  1.0000
  C   C237      1.0  0.18860  0.79807  0.77843  1.0000
  C   C238      1.0  0.20023  0.82437  0.80042  1.0000
  C   C239      1.0  0.21296  0.82530  0.83544  1.0000
  C   C240      1.0  0.21394  0.79994  0.84934  1.0000
  C   C241      1.0  0.20212  0.77356  0.82749  1.0000
  C   C242      1.0  0.18967  0.77272  0.79228  1.0000
  H   H275      1.0  0.19949  0.84401  0.79044  1.0000
  H   H276      1.0  0.22199  0.84585  0.85200  1.0000
  H   H277      1.0  0.20266  0.75385  0.83762  1.0000
  H   H278      1.0  0.18061  0.75217  0.77573  1.0000
  N   N14       1.0  0.33530  0.83760  0.89024  1.0000
  C   C243      1.0  0.36558  0.85970  0.87365  1.0000
  C   C244      1.0  0.31621  0.85238  0.89208  1.0000
  C   C245      1.0  0.33872  0.83076  0.92967  1.0000
  C   C246      1.0  0.32238  0.80939  0.86764  1.0000
  C   C247      1.0  0.29493  0.79830  0.84836  1.0000
  C   C248      1.0  0.33742  0.79202  0.86443  1.0000
  C   C249      1.0  0.29794  0.75423  0.82653  1.0000
  C   C250      1.0  0.32524  0.76480  0.84434  1.0000
  Fe  Fe34      1.0  0.27910  0.76560  0.98787  1.0000
  H   H279      1.0  0.23289  0.88924  0.57559  1.0000
  C   C251      1.0  0.23435  0.94752  0.52702  1.0000
  H   H280      1.0  0.20825  0.87060  0.51763  1.0000
  H   H281      1.0  0.32633  0.87335  0.90947  1.0000
  H   H282      1.0  0.29338  0.83710  0.90549  1.0000
  H   H283      1.0  0.31319  0.85905  0.86353  1.0000
  H   H284      1.0  0.35524  0.82251  0.93173  1.0000
  C   C252      1.0  0.99878  0.78969  0.70615  1.0000
  H   H285      1.0  0.31666  0.81294  0.94238  1.0000
  S   S71       1.0  0.42836  0.76304  0.92132  1.0000
  H   H286      1.0  0.35853  0.79912  0.87801  1.0000
  H   H287      1.0  0.09768  0.81332  0.79675  1.0000
  H   H288      1.0  0.33687  0.75167  0.84299  1.0000
  C   C253      1.0  0.09994  0.79835  0.77496  1.0000
  H   H289      1.0  0.12938  0.85618  0.53283  1.0000
  H   H290      1.0  0.24029  0.90048  0.49286  1.0000
  H   H291      1.0  0.07837  0.75130  0.72570  1.0000
  N   N15       1.0  0.22156  0.91551  0.53906  1.0000
  H   H292      1.0  0.01526  0.81845  0.60458  1.0000
  S   S72       1.0  0.22048  0.66405  0.93181  1.0000
  C   C254      1.0  0.19112  0.90470  0.55771  1.0000
  H   H293      1.0  0.10303  0.74156  0.92151  1.0000
  C   C255      1.0  0.99939  0.75935  0.63989  1.0000
  H   H294      1.0  0.36940  0.75092  0.90126  1.0000
  H   H295      1.0  0.26155  0.76273  0.81471  1.0000
  C   C256      1.0  0.06913  0.74224  0.88766  1.0000
  H   H296      1.0  0.14226  0.75927  0.86932  1.0000
  H   H297      1.0  0.24317  0.92604  0.59286  1.0000
  H   H298      1.0  0.36405  0.86454  0.84353  1.0000
  C   C257      1.0  0.33879  0.68251  0.97425  1.0000
  H   H299      1.0  0.05209  0.73457  0.91071  1.0000
  C   C258      1.0  0.24156  0.91316  0.56646  1.0000
  H   H300      1.0  0.05025  0.86531  0.63759  1.0000
  C   C259      1.0  0.35538  0.67879  0.90982  1.0000
  H   H301      1.0  0.18046  0.88042  0.56629  1.0000
  H   H302      1.0  0.19192  0.91736  0.58397  1.0000
  Fe  Fe35      1.0  0.46585  0.75553  0.94339  1.0000
  H   H303      1.0  0.03986  0.74504  0.84926  1.0000
  H   H304      1.0  0.28187  0.80988  0.84877  1.0000
  C   C260      1.0  0.11984  0.75604  0.86447  1.0000
  H   H305      1.0  0.36907  0.70390  0.90709  1.0000
  H   H306      1.0  0.06934  0.72256  0.76096  1.0000
  C   C261      1.0  0.08368  0.74715  0.75443  1.0000
  N   N16       1.0  0.07866  0.76592  0.78353  1.0000
  C   C262      1.0  0.01454  0.87281  0.66119  1.0000
  C   C263      1.0  0.28293  0.77104  0.82835  1.0000
  C   C264      1.0  0.09780  0.74614  0.89386  1.0000
  C   C265      1.0  0.11328  0.76204  0.82882  1.0000
  C   C266      1.0  0.40000  0.76775  0.94706  1.0000
  H   H307      1.0  0.03006  0.73657  0.78504  1.0000
  H   H308      1.0  0.26502  0.92201  0.55409  1.0000
  H   H309      1.0  0.28827  0.73290  0.81147  1.0000
  H   H310      1.0  0.17567  0.90715  0.53863  1.0000
  Fe  Fe36      1.0  0.46818  0.70075  0.97119  1.0000
  C   C267      1.0  0.23891  0.97020  0.55419  1.0000
  C   C268      1.0  0.40436  0.78024  0.98335  1.0000
  H   H311      1.0  0.99843  0.80154  0.73176  1.0000
  H   H312      1.0  0.99979  0.74778  0.61404  1.0000
  H   H313      1.0  0.40008  0.70346  0.95799  1.0000
  C   C269      1.0  0.21806  0.89446  0.50742  1.0000
  C   C270      1.0  0.00627  0.83087  0.62075  1.0000
  N   N17       1.0  0.35365  0.66919  0.94960  1.0000
  H   H314      1.0  0.29611  0.66152  0.94495  1.0000
  C   C271      1.0  0.35474  0.77769  0.98395  1.0000
  H   H315      1.0  0.39582  0.66845  0.94063  1.0000
  C   C272      1.0  0.30873  0.67606  0.96778  1.0000
  H   H316      1.0  0.36648  0.66914  0.89056  1.0000
  H   H317      1.0  0.33269  0.67159  0.89881  1.0000
  H   H318      1.0  0.27159  0.68374  0.98464  1.0000
  C   C273      1.0  0.73055  0.99665  0.15953  1.0000
  C   C274      1.0  0.80450  0.07116  0.14537  1.0000
  S   S73       1.0  0.76150  0.22828  0.06431  1.0000
  H   H319      1.0  0.53483  0.21670  0.06805  1.0000
  C   C275      1.0  0.91860  0.20696  0.41325  1.0000
  Fe  Fe37      1.0  0.87680  0.16502  0.25619  1.0000
  S   S74       1.0  0.84133  0.17937  0.26404  1.0000
  S   S75       1.0  0.92408  0.20662  0.25187  1.0000
  Fe  Fe38      1.0  0.82775  0.09737  0.25798  1.0000
  S   S76       1.0  0.78972  0.10789  0.26631  1.0000
  S   S77       1.0  0.82197  0.05015  0.24894  1.0000
  Fe  Fe39      1.0  0.81457  0.14393  0.22097  1.0000
  S   S78       1.0  0.79668  0.14534  0.16259  1.0000
  Fe  Fe40      1.0  0.82027  0.14238  0.30854  1.0000
  S   S79       1.0  0.80524  0.15210  0.36678  1.0000
  S   S80       1.0  0.85143  0.13161  0.21109  1.0000
  S   S81       1.0  0.85697  0.12987  0.30252  1.0000
  C   C276      1.0  0.95967  0.20778  0.24727  1.0000
  C   C277      1.0  0.96216  0.18216  0.23779  1.0000
  H   H320      1.0  0.90071  0.15819  0.36936  1.0000
  H   H321      1.0  0.94189  0.16060  0.23381  1.0000
  H   H322      1.0  0.82800  0.26030  0.09673  1.0000
  C   C278      1.0  0.81565  0.14599  0.41193  1.0000
  C   C279      1.0  0.80476  0.15418  0.44493  1.0000
  C   C280      1.0  0.83519  0.13415  0.41567  1.0000
  H   H323      1.0  0.78961  0.16333  0.44247  1.0000
  H   H324      1.0  0.84356  0.12744  0.39076  1.0000
  C   C281      1.0  0.78770  0.01504  0.25563  1.0000
  H   H325      1.0  0.76078  0.04819  0.09347  1.0000
  C   C282      1.0  0.75982  0.01364  0.26458  1.0000
  H   H326      1.0  0.81277  0.06520  0.11865  1.0000
  H   H327      1.0  0.75897  0.03423  0.27029  1.0000
  C   C283      1.0  0.89433  0.20666  0.47518  1.0000
  C   C284      1.0  0.85844  0.24898  0.12387  1.0000
  C   C285      1.0  0.77083  0.20452  0.09102  1.0000
  C   C286      1.0  0.77512  0.20977  0.13013  1.0000
  C   C287      1.0  0.78337  0.19230  0.15239  1.0000
  C   C288      1.0  0.78714  0.16896  0.13595  1.0000
  C   C289      1.0  0.78274  0.16360  0.09691  1.0000
  C   C290      1.0  0.77481  0.18129  0.07457  1.0000
  H   H328      1.0  0.77206  0.22757  0.14330  1.0000
  H   H329      1.0  0.78629  0.19661  0.18236  1.0000
  H   H330      1.0  0.78552  0.14566  0.08370  1.0000
  H   H331      1.0  0.77173  0.17693  0.04462  1.0000
  H   H332      1.0  0.94138  0.25411  0.13378  1.0000
  H   H333      1.0  0.73777  0.04756  0.19541  1.0000
  C   C291      1.0  0.76179  0.01863  0.15474  1.0000
  H   H334      1.0  0.91670  0.24452  0.07658  1.0000
  H   H335      1.0  0.91073  0.25172  0.20827  1.0000
  H   H336      1.0  0.80712  0.02269  0.15221  1.0000
  H   H337      1.0  0.76390  0.08135  0.11718  1.0000
  C   C292      1.0  0.94247  0.20713  0.43291  1.0000
  C   C293      1.0  0.52106  0.19987  0.09075  1.0000
  C   C294      1.0  0.88381  0.24423  0.11973  1.0000
  H   H338      1.0  0.87501  0.20623  0.42356  1.0000
  H   H339      1.0  0.85965  0.12247  0.45418  1.0000
  H   H340      1.0  0.84630  0.24590  0.15084  1.0000
  H   H341      1.0  0.94141  0.17921  0.36520  1.0000
  C   C295      1.0  0.75604  0.05669  0.12076  1.0000
  H   H342      1.0  0.84935  0.20590  0.17747  1.0000
  C   C296      1.0  0.83339  0.13953  0.48478  1.0000
  H   H343      1.0  0.71328  0.00327  0.16138  1.0000
  C   C297      1.0  0.89749  0.24785  0.08271  1.0000
  H   H344      1.0  0.91878  0.28066  0.17367  1.0000
  H   H345      1.0  0.92948  0.22583  0.16987  1.0000
  H   H346      1.0  0.89666  0.25792  0.02391  1.0000
  H   H347      1.0  0.81073  0.09549  0.14312  1.0000
  H   H348      1.0  0.51227  0.24662  0.08681  1.0000
  H   H349      1.0  0.96815  0.23460  0.36373  1.0000
  H   H350      1.0  0.81735  0.06981  0.16926  1.0000
  H   H351      1.0  0.85224  0.26566  0.03330  1.0000
  H   H352      1.0  0.73104  0.04557  0.12578  1.0000
  C   C298      1.0  0.76244  0.06099  0.18799  1.0000
  H   H353      1.0  0.76810  0.08513  0.18684  1.0000
  C   C299      1.0  0.81342  0.15086  0.48114  1.0000
  C   C300      1.0  0.89451  0.20695  0.43567  1.0000
  H   H354      1.0  0.87751  0.19678  0.19051  1.0000
  H   H355      1.0  0.87110  0.18520  0.36420  1.0000
  N   N18       1.0  0.77124  0.05128  0.15210  1.0000
  Fe  Fe41      1.0  0.75080  0.23184  0.00235  1.0000
  C   C301      1.0  0.84410  0.13113  0.45179  1.0000
  H   H356      1.0  0.88126  0.25854  0.19491  1.0000
  N   N19       1.0  0.91936  0.20654  0.37136  1.0000
  C   C302      1.0  0.89252  0.20591  0.35522  1.0000
  C   C303      1.0  0.94679  0.23396  0.35629  1.0000
  C   C304      1.0  0.92046  0.17926  0.35750  1.0000
  H   H357      1.0  0.86271  0.18782  0.14397  1.0000
  H   H358      1.0  0.96159  0.20725  0.41784  1.0000
  C   C305      1.0  0.78287  0.00775  0.15416  1.0000
  S   S82       1.0  0.51464  0.26165  0.99296  1.0000
  H   H359      1.0  0.92007  0.17769  0.32606  1.0000
  H   H360      1.0  0.89055  0.22617  0.36357  1.0000
  H   H361      1.0  0.89370  0.20561  0.32376  1.0000
  H   H362      1.0  0.58843  0.21225  0.02289  1.0000
  C   C306      1.0  0.90158  0.25751  0.18362  1.0000
  H   H363      1.0  0.94743  0.23496  0.32481  1.0000
  C   C307      1.0  0.86128  0.26009  0.05717  1.0000
  C   C308      1.0  0.92192  0.23227  0.14420  1.0000
  C   C309      1.0  0.88621  0.25561  0.05201  1.0000
  H   H364      1.0  0.91758  0.21420  0.12302  1.0000
  H   H365      1.0  0.77467  0.05867  0.21173  1.0000
  N   N20       1.0  0.89437  0.23504  0.15274  1.0000
  C   C310      1.0  0.86998  0.20516  0.16677  1.0000
  H   H366      1.0  0.50261  0.15895  0.14141  1.0000
  C   C311      1.0  0.84760  0.25702  0.09305  1.0000
  H   H367      1.0  0.50954  0.23695  0.13618  1.0000
  H   H368      1.0  0.94743  0.25497  0.36737  1.0000
  S   S83       1.0  0.72270  0.25457  0.99111  1.0000
  H   H369      1.0  0.53503  0.20676  0.11613  1.0000
  C   C312      1.0  0.49780  0.22970  0.10906  1.0000
  H   H370      1.0  0.48903  0.20502  0.03933  1.0000
  H   H371      1.0  0.51804  0.17774  0.08016  1.0000
  C   C313      1.0  0.94186  0.20654  0.47245  1.0000
  C   C314      1.0  0.59134  0.20861  0.99313  1.0000
  N   N21       1.0  0.49139  0.19864  0.09867  1.0000
  H   H372      1.0  0.63528  0.21196  0.99901  1.0000
  H   H373      1.0  0.98464  0.25565  0.25928  1.0000
  H   H374      1.0  0.95997  0.20600  0.48691  1.0000
  S   S84       1.0  0.78792  0.26030  0.95874  1.0000
  S   S85       1.0  0.73434  0.24529  0.90080  1.0000
  H   H375      1.0  0.95166  0.30342  0.71579  1.0000
  Fe  Fe42      1.0  0.76081  0.22314  0.91736  1.0000
  S   S86       1.0  0.77909  0.19858  0.87774  1.0000
  S   S87       1.0  0.72504  0.19371  0.96168  1.0000
  Fe  Fe43      1.0  0.50517  0.21855  0.96320  1.0000
  H   H376      1.0  0.64384  0.15146  0.85581  1.0000
  H   H377      1.0  0.64557  0.25911  0.89914  1.0000
  Fe  Fe44      1.0  0.51207  0.27836  0.93599  1.0000
  S   S88       1.0  0.50479  0.23589  0.90528  1.0000
  Fe  Fe45      1.0  0.82661  0.16489  0.66966  1.0000
  S   S89       1.0  0.83741  0.13483  0.70323  1.0000
  S   S90       1.0  0.81442  0.19791  0.70099  1.0000
  Fe  Fe46      1.0  0.83884  0.14083  0.59291  1.0000
  S   S91       1.0  0.85006  0.10904  0.62323  1.0000
  S   S92       1.0  0.84746  0.13719  0.52914  1.0000
  Fe  Fe47      1.0  0.80979  0.09856  0.66178  1.0000
  S   S93       1.0  0.77340  0.05275  0.68461  1.0000
  Fe  Fe48      1.0  0.87692  0.14830  0.66139  1.0000
  S   S94       1.0  0.92218  0.15640  0.68218  1.0000
  S   S95       1.0  0.79643  0.12777  0.62979  1.0000
  S   S96       1.0  0.86816  0.18086  0.62970  1.0000
  C   C315      1.0  0.95745  0.18872  0.66910  1.0000
  C   C316      1.0  0.89645  0.25653  0.75451  1.0000
  C   C317      1.0  0.95889  0.21325  0.64983  1.0000
  N   N22       1.0  0.90898  0.24336  0.72591  1.0000
  H   H378      1.0  0.93826  0.21225  0.64125  1.0000
  H   H379      1.0  0.91287  0.24138  0.66529  1.0000
  H   H380      1.0  0.62972  0.28366  0.89545  1.0000
  H   H381      1.0  0.87525  0.20562  0.49177  1.0000
  C   C318      1.0  0.95702  0.24080  0.73720  1.0000
  H   H382      1.0  0.55431  0.19358  0.91122  1.0000
  C   C319      1.0  0.79450  0.01683  0.64984  1.0000
  C   C320      1.0  0.77166  0.01794  0.67240  1.0000
  C   C321      1.0  0.59819  0.19691  0.91712  1.0000
  H   H383      1.0  0.81286  0.03747  0.63771  1.0000
  C   C322      1.0  0.76031  0.04042  0.58391  1.0000
  C   C323      1.0  0.78261  0.05623  0.55583  1.0000
  C   C324      1.0  0.90206  0.24912  0.68767  1.0000
  H   H384      1.0  0.81382  0.02678  0.73908  1.0000
  H   H385      1.0  0.86777  0.20006  0.72953  1.0000
  C   C325      1.0  0.57211  0.19819  0.93031  1.0000
  C   C326      1.0  0.62120  0.20186  0.94169  1.0000
  H   H386      1.0  0.75641  0.05280  0.60684  1.0000
  H   H387      1.0  0.60035  0.19169  0.88775  1.0000
  C   C327      1.0  0.78922  0.19943  0.82851  1.0000
  C   C328      1.0  0.78976  0.22063  0.80324  1.0000
  C   C329      1.0  0.79765  0.21994  0.76447  1.0000
  C   C330      1.0  0.80509  0.19811  0.75034  1.0000
  C   C331      1.0  0.80477  0.17709  0.77567  1.0000
  C   C332      1.0  0.79690  0.17779  0.81437  1.0000
  H   H388      1.0  0.78417  0.23759  0.81357  1.0000
  H   H389      1.0  0.79785  0.23638  0.74525  1.0000
  H   H390      1.0  0.81017  0.16000  0.76546  1.0000
  H   H391      1.0  0.79651  0.16121  0.83353  1.0000
  C   C333      1.0  0.94230  0.25759  0.72883  1.0000
  H   H392      1.0  0.79578  0.08077  0.55671  1.0000
  H   H393      1.0  0.68537  0.27027  0.94083  1.0000
  C   C334      1.0  0.89270  0.21001  0.73195  1.0000
  S   S97       1.0  0.65271  0.19825  0.92378  1.0000
  H   H394      1.0  0.87118  0.10269  0.71165  1.0000
  H   H395      1.0  0.83644  0.06974  0.70034  1.0000
  Fe  Fe49      1.0  0.70012  0.21863  0.94717  1.0000
  C   C335      1.0  0.96120  0.28916  0.72207  1.0000
  C   C336      1.0  0.61793  0.20838  0.97967  1.0000
  C   C337      1.0  0.51025  0.32050  0.80781  1.0000
  H   H396      1.0  0.84979  0.07579  0.74791  1.0000
  H   H397      1.0  0.77593  0.99760  0.50199  1.0000
  Fe  Fe50      1.0  0.75809  0.28026  0.94530  1.0000
  C   C338      1.0  0.91770  0.20606  0.49351  1.0000
  H   H398      1.0  0.89595  0.09227  0.66054  1.0000
  H   H399      1.0  0.90029  0.19848  0.71050  1.0000
  H   H400      1.0  0.87126  0.24584  0.75334  1.0000
  H   H401      1.0  0.80547  0.05304  0.50488  1.0000
  H   H402      1.0  0.90156  0.25308  0.78365  1.0000
  H   H403      1.0  0.72931  0.99145  0.70405  1.0000
  H   H404      1.0  0.86417  0.05640  0.64870  1.0000
  H   H405      1.0  0.90570  0.28124  0.75028  1.0000
  H   H406      1.0  0.87719  0.23708  0.68338  1.0000
  N   N23       1.0  0.68587  0.15222  0.83970  1.0000
  C   C339      1.0  0.65275  0.13975  0.83634  1.0000
  C   C340      1.0  0.69147  0.14720  0.87897  1.0000
  C   C341      1.0  0.70074  0.18551  0.83362  1.0000
  C   C342      1.0  0.69696  0.13678  0.81264  1.0000
  C   C343      1.0  0.68549  0.10501  0.81541  1.0000
  C   C344      1.0  0.71888  0.15232  0.78280  1.0000
  C   C345      1.0  0.69555  0.08986  0.79021  1.0000
  C   C346      1.0  0.72858  0.13689  0.75758  1.0000
  C   C347      1.0  0.71710  0.10580  0.76139  1.0000
  H   H407      1.0  0.63954  0.11526  0.84374  1.0000
  H   H408      1.0  0.66704  0.27787  0.98095  1.0000
  H   H409      1.0  0.64747  0.14245  0.80699  1.0000
  H   H410      1.0  0.67878  0.12299  0.88755  1.0000
  H   H411      1.0  0.68437  0.15952  0.89986  1.0000
  H   H412      1.0  0.71604  0.15531  0.88238  1.0000
  H   H413      1.0  0.69677  0.19122  0.80504  1.0000
  H   H414      1.0  0.69166  0.19629  0.85425  1.0000
  H   H415      1.0  0.72567  0.19658  0.83743  1.0000
  H   H416      1.0  0.66873  0.09165  0.83724  1.0000
  H   H417      1.0  0.72927  0.17649  0.77849  1.0000
  H   H418      1.0  0.68669  0.06564  0.79306  1.0000
  H   H419      1.0  0.74546  0.14924  0.73515  1.0000
  H   H420      1.0  0.72505  0.09409  0.74199  1.0000
  H   H421      1.0  0.91007  0.27349  0.68243  1.0000
  C   C348      1.0  0.86770  0.00916  0.70484  1.0000
  N   N24       1.0  0.87376  0.06150  0.70777  1.0000
  C   C349      1.0  0.90099  0.07457  0.73085  1.0000
  C   C350      1.0  0.88384  0.06753  0.66721  1.0000
  C   C351      1.0  0.85693  0.07799  0.71739  1.0000
  C   C352      1.0  0.85549  0.02840  0.71473  1.0000
  C   C353      1.0  0.82544  0.01431  0.73124  1.0000
  H   H422      1.0  0.91671  0.20465  0.52413  1.0000
  H   H423      1.0  0.89593  0.20392  0.76071  1.0000
  H   H424      1.0  0.48830  0.25979  0.81349  1.0000
  H   H425      1.0  0.62410  0.26241  0.93844  1.0000
  H   H426      1.0  0.91610  0.06500  0.72336  1.0000
  H   H427      1.0  0.91498  0.09964  0.72669  1.0000
  H   H428      1.0  0.89443  0.07018  0.76151  1.0000
  H   H429      1.0  0.89988  0.05934  0.65851  1.0000
  C   C354      1.0  0.56821  0.20343  0.96860  1.0000
  H   H430      1.0  0.80505  0.15756  0.50611  1.0000
  H   H431      1.0  0.51872  0.31084  0.78492  1.0000
  N   N25       1.0  0.66879  0.30114  0.92988  1.0000
  C   C355      1.0  0.68203  0.28824  0.95523  1.0000
  H   H432      1.0  0.94479  0.21662  0.74222  1.0000
  C   C356      1.0  0.77096  0.00880  0.52527  1.0000
  H   H433      1.0  0.61356  0.30057  0.94936  1.0000
  C   C357      1.0  0.64075  0.27557  0.91509  1.0000
  C   C358      1.0  0.74319  0.00876  0.58297  1.0000
  H   H434      1.0  0.98376  0.17155  0.69471  1.0000
  H   H435      1.0  0.70473  0.30563  0.96472  1.0000
  C   C359      1.0  0.98460  0.19038  0.67980  1.0000
  C   C360      1.0  0.78802  0.04047  0.52663  1.0000
  C   C361      1.0  0.63399  0.32018  0.95837  1.0000
  C   C362      1.0  0.74779  0.99195  0.55324  1.0000
  S   S98       1.0  0.54787  0.32207  0.90656  1.0000
  S   S99       1.0  0.53324  0.19941  0.98771  1.0000
  C   C363      1.0  0.69039  0.31574  0.89708  1.0000
  H   H436      1.0  0.69396  0.29901  0.87992  1.0000
  H   H437      1.0  0.72671  0.99809  0.60611  1.0000
  H   H438      1.0  0.49259  0.32162  0.87763  1.0000
  H   H439      1.0  0.50328  0.27959  0.85671  1.0000
  H   H440      1.0  0.89042  0.01822  0.69247  1.0000
  C   C364      1.0  0.74718  0.99079  0.68674  1.0000
  H   H441      1.0  0.83376  0.52993  0.05340  1.0000
  S   S100      1.0  0.72534  0.48093  0.01897  1.0000
  H   H442      1.0  0.80601  0.52465  0.22492  1.0000
  S   S101      1.0  0.77864  0.57378  0.03699  1.0000
  H   H443      1.0  0.69284  0.63257  0.15971  1.0000
  S   S102      1.0  0.79150  0.61182  0.21255  1.0000
  H   H444      1.0  0.75560  0.49558  0.09826  1.0000
  C   C365      1.0  0.82802  0.56417  0.18941  1.0000
  C   C366      1.0  0.83583  0.57515  0.15248  1.0000
  H   H445      1.0  0.79138  0.48882  0.17242  1.0000
  H   H446      1.0  0.83305  0.56536  0.09414  1.0000
  H   H447      1.0  0.77361  0.65646  0.18191  1.0000
  H   H448      1.0  0.58796  0.39897  0.00748  1.0000
  C   C367      1.0  0.78111  0.58386  0.08601  1.0000
  C   C368      1.0  0.80117  0.61406  0.09633  1.0000
  C   C369      1.0  0.80447  0.62316  0.13466  1.0000
  C   C370      1.0  0.78783  0.60208  0.16342  1.0000
  C   C371      1.0  0.76750  0.57197  0.15308  1.0000
  C   C372      1.0  0.76410  0.56292  0.11474  1.0000
  H   H449      1.0  0.81445  0.63057  0.07450  1.0000
  H   H450      1.0  0.84773  0.59944  0.14752  1.0000
  H   H451      1.0  0.75445  0.55541  0.17496  1.0000
  H   H452      1.0  0.74829  0.53975  0.10748  1.0000
  H   H453      1.0  0.80818  0.46534  0.07399  1.0000
  C   C373      1.0  0.81060  0.52315  0.12771  1.0000
  C   C374      1.0  0.81462  0.48159  0.09813  1.0000
  C   C375      1.0  0.81213  0.53303  0.19608  1.0000
  C   C376      1.0  0.82716  0.55512  0.12193  1.0000
  H   H454      1.0  0.83984  0.49542  0.09719  1.0000
  H   H455      1.0  0.68164  0.63395  0.20840  1.0000
  H   H456      1.0  0.52374  0.65510  0.04116  1.0000
  H   H457      1.0  0.83381  0.57991  0.21286  1.0000
  H   H458      1.0  0.75890  0.46773  0.12508  1.0000
  H   H459      1.0  0.75872  0.46531  0.07500  1.0000
  C   C377      1.0  0.69794  0.63072  0.18947  1.0000
  H   H460      1.0  0.69274  0.60693  0.19428  1.0000
  C   C378      1.0  0.80370  0.51275  0.16579  1.0000
  H   H461      1.0  0.79798  0.53004  0.05426  1.0000
  H   H462      1.0  0.76635  0.38551  0.03408  1.0000
  H   H463      1.0  0.80738  0.46760  0.12432  1.0000
  H   H464      1.0  0.80090  0.49869  0.03518  1.0000
  C   C379      1.0  0.76706  0.48168  0.09888  1.0000
  Fe  Fe51      1.0  0.75390  0.52982  0.00199  1.0000
  C   C380      1.0  0.80876  0.51579  0.05822  1.0000
  S   S103      1.0  0.76931  0.43957  0.00515  1.0000
  N   N26       1.0  0.80057  0.50117  0.09615  1.0000
  H   H465      1.0  0.74270  0.61895  0.18154  1.0000
  H   H466      1.0  0.82023  0.64637  0.14195  1.0000
  S   S104      1.0  0.79121  0.65461  0.30360  1.0000
  N   N27       1.0  0.73005  0.65285  0.19688  1.0000
  C   C381      1.0  0.74929  0.64287  0.17491  1.0000
  H   H467      1.0  0.71987  0.65665  0.25624  1.0000
  H   H468      1.0  0.76638  0.34106  0.00294  1.0000
  H   H469      1.0  0.74739  0.64413  0.14390  1.0000
  H   H470      1.0  0.70354  0.39324  0.99339  1.0000
  C   C382      1.0  0.76749  0.38438  0.00355  1.0000
  H   H471      1.0  0.65185  0.38609  0.00461  1.0000
  C   C383      1.0  0.73498  0.65145  0.23752  1.0000
  Fe  Fe52      1.0  0.81594  0.65532  0.24830  1.0000
  H   H472      1.0  0.73132  0.62878  0.24591  1.0000
  C   C384      1.0  0.65502  0.36868  0.99022  1.0000
  Fe  Fe53      1.0  0.75446  0.51336  0.91725  1.0000
  S   S105      1.0  0.72394  0.52500  0.95387  1.0000
  S   S106      1.0  0.77974  0.53484  0.86034  1.0000
  H   H473      1.0  0.83400  0.58587  0.94739  1.0000
  C   C385      1.0  0.84233  0.63960  0.86235  1.0000
  Fe  Fe54      1.0  0.69777  0.47470  0.96813  1.0000
  H   H474      1.0  0.64748  0.41499  0.90969  1.0000
  S   S107      1.0  0.72614  0.46254  0.92839  1.0000
  S   S108      1.0  0.79791  0.64017  0.74590  1.0000
  H   H475      1.0  0.77153  0.42441  0.92543  1.0000
  C   C386      1.0  0.60395  0.37364  0.90930  1.0000
  C   C387      1.0  0.59268  0.39181  0.98020  1.0000
  C   C388      1.0  0.62624  0.40092  0.92521  1.0000
  H   H476      1.0  0.85324  0.62603  0.85804  1.0000
  N   N28       1.0  0.82096  0.61790  0.92828  1.0000
  C   C389      1.0  0.77035  0.40632  0.94244  1.0000
  C   C390      1.0  0.83207  0.63621  0.96308  1.0000
  C   C391      1.0  0.78416  0.56409  0.82878  1.0000
  C   C392      1.0  0.76603  0.57785  0.83202  1.0000
  C   C393      1.0  0.77068  0.60099  0.80646  1.0000
  C   C394      1.0  0.79343  0.61080  0.77722  1.0000
  C   C395      1.0  0.81132  0.59682  0.77366  1.0000
  C   C396      1.0  0.80668  0.57366  0.79924  1.0000
  H   H477      1.0  0.74819  0.57048  0.85395  1.0000
  H   H478      1.0  0.75652  0.61143  0.80944  1.0000
  H   H479      1.0  0.82877  0.60384  0.75125  1.0000
  H   H480      1.0  0.82070  0.56308  0.79613  1.0000
  C   C397      1.0  0.62053  0.41042  0.96056  1.0000
  H   H481      1.0  0.60833  0.36696  0.88154  1.0000
  H   H482      1.0  0.77438  0.60642  0.94261  1.0000
  C   C398      1.0  0.57609  0.35508  0.92895  1.0000
  S   S109      1.0  0.78536  0.52008  0.96467  1.0000
  C   C399      1.0  0.68826  0.35054  0.96470  1.0000
  H   H483      1.0  0.77302  0.38074  0.89439  1.0000
  C   C400      1.0  0.78832  0.59564  0.93466  1.0000
  C   C401      1.0  0.83740  0.60053  0.92254  1.0000
  S   S110      1.0  0.64661  0.44582  0.98064  1.0000
  H   H484      1.0  0.83020  0.62185  0.98767  1.0000
  H   H485      1.0  0.71114  0.35450  0.96081  1.0000
  H   H486      1.0  0.82896  0.58495  0.89790  1.0000
  H   H487      1.0  0.54933  0.35035  0.98008  1.0000
  H   H488      1.0  0.86228  0.61583  0.91824  1.0000
  C   C402      1.0  0.82494  0.63786  0.89597  1.0000
  Fe  Fe55      1.0  0.75471  0.47072  0.97855  1.0000
  C   C403      1.0  0.76750  0.35915  0.98598  1.0000
  H   H489      1.0  0.78460  0.57967  0.95795  1.0000
  H   H490      1.0  0.77887  0.58181  0.90899  1.0000
  C   C404      1.0  0.76879  0.40801  0.98188  1.0000
  C   C405      1.0  0.57073  0.36416  0.96475  1.0000
  C   C406      1.0  0.77123  0.38154  0.92492  1.0000
  N   N29       1.0  0.74729  0.58373  0.64330  1.0000
  C   C407      1.0  0.73752  0.57688  0.60369  1.0000
  C   C408      1.0  0.73783  0.60543  0.65863  1.0000
  C   C409      1.0  0.78089  0.59879  0.64201  1.0000
  C   C410      1.0  0.73472  0.55660  0.66807  1.0000
  C   C411      1.0  0.74142  0.55977  0.70689  1.0000
  C   C412      1.0  0.71646  0.52657  0.65465  1.0000
  C   C413      1.0  0.73087  0.53464  0.73079  1.0000
  C   C414      1.0  0.70583  0.50151  0.67888  1.0000
  C   C415      1.0  0.71309  0.50554  0.71682  1.0000
  H   H491      1.0  0.71242  0.56598  0.60241  1.0000
  H   H492      1.0  0.74733  0.59793  0.58603  1.0000
  H   H493      1.0  0.74552  0.56213  0.58952  1.0000
  H   H494      1.0  0.71271  0.59435  0.66283  1.0000
  H   H495      1.0  0.74533  0.62522  0.63931  1.0000
  H   H496      1.0  0.74786  0.61515  0.68626  1.0000
  H   H497      1.0  0.78904  0.58293  0.63219  1.0000
  H   H498      1.0  0.79119  0.61856  0.62231  1.0000
  H   H499      1.0  0.79036  0.60750  0.67016  1.0000
  H   H500      1.0  0.75522  0.58183  0.71899  1.0000
  H   H501      1.0  0.71022  0.52180  0.62558  1.0000
  H   H502      1.0  0.73676  0.53782  0.76028  1.0000
  H   H503      1.0  0.69205  0.47876  0.66814  1.0000
  H   H504      1.0  0.70505  0.48609  0.73546  1.0000
  C   C416      1.0  0.76965  0.35776  0.94652  1.0000
  H   H505      1.0  0.71335  0.33290  0.90580  1.0000
  H   H506      1.0  0.60744  0.33919  0.98328  1.0000
  H   H507      1.0  0.68219  0.32731  0.87835  1.0000
  H   H508      1.0  0.50895  0.34015  0.79653  1.0000
  H   H509      1.0  0.85625  0.65414  0.95902  1.0000
  H   H510      1.0  0.81866  0.64743  0.97184  1.0000
  S   S111      1.0  0.77009  0.32688  0.92263  1.0000
  C   C417      1.0  0.63004  0.34231  0.97797  1.0000
  C   C418      1.0  0.68409  0.37273  0.98374  1.0000
  H   H511      1.0  0.52818  0.32965  0.82914  1.0000
  H   H512      1.0  0.79684  0.65559  0.92171  1.0000
  C   C419      1.0  0.81070  0.65600  0.89731  1.0000
  C   C420      1.0  0.66346  0.32383  0.95080  1.0000
  H   H513      1.0  0.56723  0.72752  0.05628  1.0000
  H   H514      1.0  0.75791  0.84245  0.37952  1.0000
  S   S112      1.0  0.55489  0.79451  0.03621  1.0000
  Fe  Fe56      1.0  0.64570  0.81373  0.23155  1.0000
  S   S113      1.0  0.69194  0.84937  0.20957  1.0000
  S   S114      1.0  0.60134  0.78838  0.19974  1.0000
  Fe  Fe57      1.0  0.66751  0.82054  0.31399  1.0000
  S   S115      1.0  0.71474  0.85727  0.29758  1.0000
  S   S116      1.0  0.65359  0.79783  0.37203  1.0000
  Fe  Fe58      1.0  0.69232  0.87605  0.26147  1.0000
  S   S117      1.0  0.69843  0.92369  0.25796  1.0000
  Fe  Fe59      1.0  0.71035  0.82733  0.24763  1.0000
  S   S118      1.0  0.74949  0.81913  0.22996  1.0000
  S   S119      1.0  0.64505  0.84125  0.28204  1.0000
  S   S120      1.0  0.66418  0.78967  0.26552  1.0000
  S   S121      1.0  0.82558  0.70219  0.23209  1.0000
  H   H515      1.0  0.69727  0.94961  0.16878  1.0000
  S   S122      1.0  0.84607  0.72318  0.31970  1.0000
  Fe  Fe60      1.0  0.80292  0.70231  0.28843  1.0000
  S   S123      1.0  0.76439  0.71279  0.30059  1.0000
  Fe  Fe61      1.0  0.86820  0.71887  0.26511  1.0000
  S   S124      1.0  0.91444  0.75890  0.24835  1.0000
  C   C421      1.0  0.53214  0.68533  0.13603  1.0000
  H   H516      1.0  0.93794  0.69157  0.43650  1.0000
  H   H517      1.0  0.68831  0.88674  0.45570  1.0000
  H   H518      1.0  0.97743  0.80480  0.37331  1.0000
  C   C422      1.0  0.94925  0.76070  0.25840  1.0000
  C   C423      1.0  0.95012  0.73618  0.27454  1.0000
  H   H519      1.0  0.56432  0.89949  0.07879  1.0000
  H   H520      1.0  0.92930  0.71500  0.27951  1.0000
  C   C424      1.0  0.76137  0.95949  0.25248  1.0000
  C   C425      1.0  0.73338  0.95825  0.25951  1.0000
  H   H521      1.0  0.62886  0.85434  0.17386  1.0000
  H   H522      1.0  0.76218  0.93876  0.24759  1.0000
  H   H523      1.0  0.77838  0.69756  0.15170  1.0000
  C   C426      1.0  0.75406  0.79036  0.25120  1.0000
  C   C427      1.0  0.78060  0.78866  0.24279  1.0000
  C   C428      1.0  0.78425  0.76513  0.25774  1.0000
  C   C429      1.0  0.76136  0.74313  0.28136  1.0000
  C   C430      1.0  0.73499  0.74504  0.29013  1.0000
  C   C431      1.0  0.73135  0.76854  0.27519  1.0000
  H   H524      1.0  0.79826  0.80542  0.22420  1.0000
  H   H525      1.0  0.80464  0.76391  0.25076  1.0000
  H   H526      1.0  0.71712  0.72803  0.30826  1.0000
  H   H527      1.0  0.71072  0.76943  0.28153  1.0000
  C   C432      1.0  0.66175  0.81690  0.41612  1.0000
  C   C433      1.0  0.72107  0.96583  0.16357  1.0000
  C   C434      1.0  0.67408  0.84833  0.41853  1.0000
  H   H528      1.0  0.64617  0.77564  0.44803  1.0000
  H   H529      1.0  0.67884  0.86162  0.39302  1.0000
  C   C435      1.0  0.56749  0.79055  0.08100  1.0000
  C   C436      1.0  0.54720  0.77505  0.11136  1.0000
  C   C437      1.0  0.55806  0.77432  0.14710  1.0000
  C   C438      1.0  0.58937  0.78951  0.15342  1.0000
  C   C439      1.0  0.60975  0.80524  0.12318  1.0000
  C   C440      1.0  0.59883  0.80589  0.08736  1.0000
  H   H530      1.0  0.52309  0.76465  0.10772  1.0000
  H   H531      1.0  0.54203  0.76230  0.17026  1.0000
  H   H532      1.0  0.63390  0.81698  0.12734  1.0000
  H   H533      1.0  0.61480  0.81850  0.06438  1.0000
  C   C441      1.0  0.57355  0.89583  0.10391  1.0000
  C   C442      1.0  0.58531  0.91820  0.13155  1.0000
  Fe  Fe62      1.0  0.51750  0.76465  0.99505  1.0000
  C   C443      1.0  0.56374  0.71796  0.08435  1.0000
  C   C444      1.0  0.93212  0.76192  0.42158  1.0000
  H   H534      1.0  0.58510  0.93928  0.12779  1.0000
  C   C445      1.0  0.96234  0.70434  0.43095  1.0000
  C   C446      1.0  0.97800  0.73899  0.28424  1.0000
  H   H535      1.0  0.61030  0.74875  0.09684  1.0000
  H   H536      1.0  0.58503  0.84241  0.14308  1.0000
  H   H537      1.0  0.51096  0.66838  0.14912  1.0000
  H   H538      1.0  0.52046  0.72670  0.05178  1.0000
  H   H539      1.0  0.89384  0.77568  0.38547  1.0000
  H   H540      1.0  0.60430  0.73172  0.16314  1.0000
  H   H541      1.0  0.70970  0.73332  0.20621  1.0000
  C   C447      1.0  0.96235  0.78213  0.36117  1.0000
  H   H542      1.0  0.93056  0.80870  0.38965  1.0000
  H   H543      1.0  0.80977  0.98855  0.24356  1.0000
  H   H544      1.0  0.53504  0.69114  0.01984  1.0000
  N   N30       1.0  0.93177  0.76717  0.38061  1.0000
  H   H545      1.0  0.91784  0.79139  0.34426  1.0000
  C   C448      1.0  0.81005  0.66375  0.44183  1.0000
  H   H546      1.0  0.73027  0.83897  0.43851  1.0000
  C   C449      1.0  0.91796  0.78662  0.37491  1.0000
  C   C450      1.0  0.74870  0.74344  0.16998  1.0000
  C   C451      1.0  0.67944  0.86251  0.45416  1.0000
  C   C452      1.0  0.58712  0.85265  0.22310  1.0000
  Fe  Fe63      1.0  0.83616  0.67568  0.33113  1.0000
  H   H547      1.0  0.59584  0.84793  0.24891  1.0000
  H   H548      1.0  0.49413  0.71381  0.09179  1.0000
  C   C453      1.0  0.59776  0.88604  0.16952  1.0000
  H   H549      1.0  0.88282  0.73982  0.43148  1.0000
  C   C454      1.0  0.73686  0.68399  0.18731  1.0000
  H   H550      1.0  0.91268  0.74074  0.33061  1.0000
  H   H551      1.0  0.75349  0.76636  0.16411  1.0000
  H   H552      1.0  0.64835  0.87362  0.21466  1.0000
  H   H553      1.0  0.65344  0.89469  0.17247  1.0000
  C   C455      1.0  0.91324  0.73784  0.36158  1.0000
  H   H554      1.0  0.71699  0.82427  0.37923  1.0000
  H   H555      1.0  0.73696  0.75683  0.44562  1.0000
  C   C456      1.0  0.76227  0.70386  0.16361  1.0000
  H   H556      1.0  0.78954  0.96906  0.15840  1.0000
  C   C457      1.0  0.73612  0.77612  0.45782  1.0000
  H   H557      1.0  0.96109  0.78608  0.33064  1.0000
  C   C458      1.0  0.85636  0.66770  0.46335  1.0000
  C   C459      1.0  0.73696  0.82118  0.37259  1.0000
  C   C460      1.0  0.55711  0.69844  0.15909  1.0000
  C   C461      1.0  0.63635  0.87552  0.19033  1.0000
  C   C462      1.0  0.97666  0.78789  0.25161  1.0000
  H   H558      1.0  0.95900  0.70505  0.37073  1.0000
  H   H559      1.0  0.88925  0.72646  0.37222  1.0000
  C   C463      1.0  0.72395  0.72473  0.19374  1.0000
  C   C464      1.0  0.62235  0.90550  0.23072  1.0000
  C   C465      1.0  0.59736  0.91356  0.16394  1.0000
  H   H560      1.0  0.63158  0.90012  0.25565  1.0000
  H   H561      1.0  0.55456  0.69170  0.18852  1.0000
  H   H562      1.0  0.70376  0.74622  0.39366  1.0000
  C   C466      1.0  0.73494  0.79804  0.43461  1.0000
  C   C467      1.0  0.70566  0.76760  0.38305  1.0000
  H   H563      1.0  0.70309  0.76527  0.35194  1.0000
  H   H564      1.0  0.60621  0.93184  0.18411  1.0000
  H   H565      1.0  0.68581  0.76910  0.39549  1.0000
  C   C468      1.0  0.58526  0.72091  0.14482  1.0000
  C   C469      1.0  0.76795  0.73312  0.15518  1.0000
  N   N31       1.0  0.73455  0.79463  0.39291  1.0000
  H   H566      1.0  0.73754  0.81837  0.34127  1.0000
  C   C470      1.0  0.76029  0.79044  0.37849  1.0000
  C   C471      1.0  0.58549  0.86381  0.14083  1.0000
  S   S125      1.0  0.86020  0.67218  0.27738  1.0000
  C   C472      1.0  0.58861  0.73050  0.10746  1.0000
  H   H567      1.0  0.64157  0.92665  0.21827  1.0000
  H   H568      1.0  0.56465  0.85127  0.08691  1.0000
  H   H569      1.0  0.56692  0.85488  0.23183  1.0000
  H   H570      1.0  0.57913  0.83190  0.20554  1.0000
  H   H571      1.0  0.78768  0.74813  0.13757  1.0000
  C   C473      1.0  0.57368  0.86869  0.10853  1.0000
  N   N32       1.0  0.61069  0.88029  0.20296  1.0000
  H   H572      1.0  0.78224  0.80887  0.38856  1.0000
  C   C474      1.0  0.74227  0.95591  0.16259  1.0000
  H   H573      1.0  0.75790  0.76837  0.38710  1.0000
  H   H574      1.0  0.76217  0.79061  0.34698  1.0000
  H   H575      1.0  0.49685  0.66183  0.01762  1.0000
  H   H576      1.0  0.60415  0.91009  0.24204  1.0000
  C   C475      1.0  0.73248  0.82185  0.45349  1.0000
  C   C476      1.0  0.97419  0.71209  0.39399  1.0000
  C   C477      1.0  0.90454  0.74760  0.44389  1.0000
  C   C478      1.0  0.78834  0.98778  0.25016  1.0000
  H   H577      1.0  0.92179  0.72177  0.36591  1.0000
  H   H578      1.0  0.97837  0.71981  0.29651  1.0000
  H   H579      1.0  0.73491  0.93212  0.16705  1.0000
  C   C479      1.0  0.65568  0.79996  0.44959  1.0000
  C   C480      1.0  0.53478  0.69468  0.09774  1.0000
  C   C481      1.0  0.83845  0.66624  0.43337  1.0000
  S   S126      1.0  0.85201  0.66603  0.38612  1.0000
  H   H580      1.0  0.77688  0.65866  0.48600  1.0000
  H   H581      1.0  0.97624  0.80696  0.23904  1.0000
  H   H582      1.0  0.79590  0.66234  0.41910  1.0000
  C   C482      1.0  0.77307  0.97679  0.15775  1.0000
  N   N33       1.0  0.50865  0.68227  0.07288  1.0000
  C   C483      1.0  0.95934  0.77058  0.44051  1.0000
  H   H583      1.0  0.97340  0.76785  0.36213  1.0000
  C   C484      1.0  0.98191  0.71306  0.46073  1.0000
  C   C485      1.0  0.90421  0.74242  0.48260  1.0000
  C   C486      1.0  0.51648  0.67216  0.03645  1.0000
  H   H584      1.0  0.87825  0.66940  0.45715  1.0000
  H   H585      1.0  0.98136  0.78116  0.42591  1.0000
  H   H586      1.0  0.75860  0.66840  0.24424  1.0000
  C   C487      1.0  0.71830  0.69563  0.20280  1.0000
  C   C488      1.0  0.73280  0.98545  0.26580  1.0000
  C   C489      1.0  0.50100  0.70628  0.06523  1.0000
  H   H587      1.0  0.69970  0.68263  0.22283  1.0000
  C   C490      1.0  0.95872  0.76522  0.47930  1.0000
  H   H588      1.0  0.71132  0.98472  0.27176  1.0000
  C   C491      1.0  0.66148  0.81422  0.48522  1.0000
  C   C492      1.0  0.79931  0.66165  0.47983  1.0000
  C   C493      1.0  0.67308  0.84557  0.48768  1.0000
  H   H589      1.0  0.73014  0.95686  0.48907  1.0000
  H   H590      1.0  0.97254  0.70702  0.48951  1.0000
  Fe  Fe64      1.0  0.51761  0.74459  0.91191  1.0000
  S   S127      1.0  0.55348  0.74694  0.86711  1.0000
  H   H591      1.0  0.97590  0.87467  0.68288  1.0000
  Fe  Fe65      1.0  0.66282  0.83412  0.67510  1.0000
  S   S128      1.0  0.70872  0.84155  0.69072  1.0000
  S   S129      1.0  0.62053  0.82171  0.71450  1.0000
  Fe  Fe66      1.0  0.68360  0.84851  0.58962  1.0000
  S   S130      1.0  0.72969  0.85536  0.60022  1.0000
  S   S131      1.0  0.67903  0.86455  0.53176  1.0000
  Fe  Fe67      1.0  0.70617  0.81463  0.63812  1.0000
  S   S132      1.0  0.71336  0.77372  0.63303  1.0000
  Fe  Fe68      1.0  0.72821  0.88198  0.65100  1.0000
  S   S133      1.0  0.77103  0.92784  0.65337  1.0000
  S   S134      1.0  0.65941  0.80541  0.62386  1.0000
  S   S135      1.0  0.68295  0.87677  0.63924  1.0000
  S   S136      1.0  0.86489  0.71863  0.70344  1.0000
  C   C494      1.0  0.98320  0.86180  0.66496  1.0000
  S   S137      1.0  0.86521  0.72762  0.61116  1.0000
  Fe  Fe69      1.0  0.88765  0.71145  0.65098  1.0000
  S   S138      1.0  0.93747  0.72701  0.63535  1.0000
  Fe  Fe70      1.0  0.83968  0.73112  0.66288  1.0000
  S   S139      1.0  0.83488  0.77324  0.67133  1.0000
  H   H592      1.0  0.53510  0.69889  0.79873  1.0000
  C   C495      1.0  0.97117  0.76770  0.69122  1.0000
  C   C496      1.0  0.97135  0.75286  0.65754  1.0000
  H   H593      1.0  0.65639  0.80089  0.51075  1.0000
  H   H594      1.0  0.94984  0.76233  0.70568  1.0000
  Fe  Fe71      1.0  0.82785  0.67013  0.69587  1.0000
  C   C497      1.0  0.76961  0.96188  0.65862  1.0000
  H   H595      1.0  0.58928  0.74969  0.70298  1.0000
  C   C498      1.0  0.74596  0.96281  0.67954  1.0000
  H   H596      1.0  0.85776  0.65877  0.80638  1.0000
  H   H597      1.0  0.72734  0.94211  0.69146  1.0000
  C   C499      1.0  0.74756  0.77439  0.64343  1.0000
  C   C500      1.0  0.77232  0.80028  0.65753  1.0000
  C   C501      1.0  0.79892  0.79963  0.66593  1.0000
  C   C502      1.0  0.80104  0.77317  0.66026  1.0000
  C   C503      1.0  0.77633  0.74738  0.64593  1.0000
  C   C504      1.0  0.74973  0.74799  0.63766  1.0000
  H   H598      1.0  0.77094  0.82074  0.66211  1.0000
  H   H599      1.0  0.81789  0.81970  0.67699  1.0000
  H   H600      1.0  0.77767  0.72693  0.64122  1.0000
  H   H601      1.0  0.73075  0.72790  0.62663  1.0000
  S   S140      1.0  0.51709  0.78497  0.93863  1.0000
  H   H602      1.0  0.93073  0.74653  0.53022  1.0000
  H   H603      1.0  0.68925  0.95329  0.58142  1.0000
  H   H604      1.0  0.64506  0.73587  0.64315  1.0000
  H   H605      1.0  0.97966  0.77175  0.49318  1.0000
  C   C505      1.0  0.57346  0.77136  0.82746  1.0000
  C   C506      1.0  0.56044  0.78431  0.80557  1.0000
  C   C507      1.0  0.57549  0.80014  0.77172  1.0000
  C   C508      1.0  0.60399  0.80377  0.75938  1.0000
  C   C509      1.0  0.61762  0.79204  0.78221  1.0000
  C   C510      1.0  0.60225  0.77555  0.81554  1.0000
  H   H606      1.0  0.53829  0.78123  0.81399  1.0000
  H   H607      1.0  0.56469  0.80923  0.75462  1.0000
  H   H608      1.0  0.63980  0.79532  0.77403  1.0000
  H   H609      1.0  0.61263  0.76571  0.83208  1.0000
  H   H610      1.0  0.60773  0.70516  0.65608  1.0000
  H   H611      1.0  0.73587  0.91952  0.55120  1.0000
  C   C511      1.0  0.55958  0.72406  0.74871  1.0000
  H   H612      1.0  0.76613  0.95187  0.52770  1.0000
  C   C512      1.0  0.59848  0.70067  0.75869  1.0000
  N   N34       1.0  0.72933  0.95851  0.55037  1.0000
  H   H613      1.0  0.92366  0.83348  0.59705  1.0000
  C   C513      1.0  0.73177  0.82368  0.49301  1.0000
  C   C514      1.0  0.62475  0.72896  0.66270  1.0000
  H   H614      1.0  0.69845  0.92547  0.51162  1.0000
  H   H615      1.0  0.89413  0.83020  0.67561  1.0000
  H   H616      1.0  0.56898  0.67762  0.80731  1.0000
  C   C515      1.0  0.60512  0.72117  0.72815  1.0000
  S   S141      1.0  0.51941  0.72511  0.96808  1.0000
  C   C516      1.0  0.81344  0.67447  0.86683  1.0000
  H   H617      1.0  0.71547  0.94809  0.60932  1.0000
  H   H618      1.0  0.92698  0.84507  0.70270  1.0000
  H   H619      1.0  0.72927  0.84169  0.50685  1.0000
  H   H620      1.0  0.65998  0.76774  0.74103  1.0000
  C   C517      1.0  0.57323  0.69250  0.78347  1.0000
  H   H621      1.0  0.65921  0.71918  0.73643  1.0000
  H   H622      1.0  0.64307  0.77875  0.70575  1.0000
  S   S142      1.0  0.80160  0.68363  0.65853  1.0000
  H   H623      1.0  0.54517  0.73409  0.74587  1.0000
  H   H624      1.0  0.69162  0.91940  0.57751  1.0000
  H   H625      1.0  0.66970  0.72356  0.68744  1.0000
  H   H626      1.0  0.91678  0.79519  0.60045  1.0000
  N   N35       1.0  0.63275  0.73204  0.70297  1.0000
  C   C518      1.0  0.65351  0.76442  0.71101  1.0000
  C   C519      1.0  0.64972  0.71545  0.70789  1.0000
  H   H627      1.0  0.92806  0.86284  0.65813  1.0000
  H   H628      1.0  0.69997  0.96159  0.51091  1.0000
  C   C520      1.0  0.71391  0.95037  0.51392  1.0000
  H   H629      1.0  0.67483  0.77361  0.69311  1.0000
  H   H630      1.0  0.61527  0.74367  0.65508  1.0000
  H   H631      1.0  0.63511  0.69071  0.70315  1.0000
  S   S143      1.0  0.80151  0.65712  0.55700  1.0000
  H   H632      1.0  0.83194  0.68917  0.81022  1.0000
  C   C521      1.0  0.55390  0.70425  0.77856  1.0000
  C   C522      1.0  0.73548  0.77824  0.49731  1.0000
  H   H633      1.0  0.88921  0.80413  0.61946  1.0000
  C   C523      1.0  0.58491  0.73268  0.72407  1.0000
  N   N36       1.0  0.92903  0.82085  0.65266  1.0000
  C   C524      1.0  0.91749  0.79269  0.67514  1.0000
  C   C525      1.0  0.91940  0.84082  0.67313  1.0000
  C   C526      1.0  0.91422  0.81319  0.61577  1.0000
  C   C527      1.0  0.96237  0.83455  0.64687  1.0000
  C   C528      1.0  0.84597  0.66643  0.50135  1.0000
  H   H634      1.0  0.73230  0.80323  0.54554  1.0000
  H   H635      1.0  0.92112  0.77525  0.65988  1.0000
  H   H636      1.0  0.96056  0.79774  0.61177  1.0000
  H   H637      1.0  0.61279  0.69120  0.76463  1.0000
  H   H638      1.0  0.92895  0.79720  0.70244  1.0000
  H   H639      1.0  0.89273  0.78228  0.68192  1.0000
  C   C529      1.0  0.84521  0.65845  0.83226  1.0000
  C   C530      1.0  0.74922  0.94478  0.55185  1.0000
  H   H640      1.0  0.85979  0.66700  0.52403  1.0000
  C   C531      1.0  0.70545  0.94444  0.58109  1.0000
  Fe  Fe72      1.0  0.82872  0.67901  0.60914  1.0000
  S   S144      1.0  0.85232  0.66186  0.64580  1.0000
  C   C532      1.0  0.73328  0.80195  0.51487  1.0000
  C   C533      1.0  0.85057  0.97773  0.70998  1.0000
  C   C534      1.0  0.82108  0.96464  0.72566  1.0000
  H   H641      1.0  0.78540  0.97247  0.74781  1.0000
  C   C535      1.0  0.79375  0.98896  0.64354  1.0000
  H   H642      1.0  0.80740  0.94019  0.72833  1.0000
  H   H643      1.0  0.80177  0.68756  0.86806  1.0000
  H   H644      1.0  0.76189  0.95113  0.57836  1.0000
  H   H645      1.0  0.85988  0.96329  0.70108  1.0000
  H   H646      1.0  0.73626  0.76119  0.51456  1.0000
  H   H647      1.0  0.81208  0.98839  0.62725  1.0000
  C   C536      1.0  0.83060  0.67561  0.83434  1.0000
  C   C537      1.0  0.81716  0.66294  0.50981  1.0000
  C   C538      1.0  0.97491  0.81938  0.62476  1.0000
  C   C539      1.0  0.93121  0.75107  0.50026  1.0000
  C   C540      1.0  0.80869  0.98291  0.73661  1.0000
  H   H648      1.0  0.88275  0.73117  0.49887  1.0000
