data_image0
_chemical_formula_structural       FeS2FeS2FeSFeS3CHCSC7H2CH4CHC3H3C3HNC2HC2H8CHFeH2C4HNC3HC2H3NC2HC3H2CH2CH3CHC3H9NH3SC3H5FeS2FeS2FeSFeS3HSC8H2CHC2H3C3H3C2H3CH2CHCHCH4CHCFeHCH3CHCHCH2CHC2HCNHNH3C2H2C5H2NHC2HC3H4C2HSFeS2FeS2FeSFeS3HSCHCH3CHC7H5FeH2C3H4CH2CH4CH3C7HNH3CH2CH2C2H2CFeS2FeS2FeSFeS3CHSHC3H2CHC6HCH2C2H4C2H3C2H2NH6C3HCHCHCH2CHCH2C2H2CH2CH4NCSC3H2NCHCHFeC2H2NHCSHFeH3C3H3C2HC3H3CFeSH3C2HSHC3H2CH2CHC3HCHNHSHCH2CH4CFeCSCSH2FeC4HC2HS2CFeH2SC2H2CH2CH3FeSHCNHCH6CH4CNH2CSCFeS2FeS2FeSFeS3HCHCFeSH5C7H4C2H3C3H2C2HCHCH3CHC4H2NHC3HCNC3H2C2H7CSH2C3SH4NCH2CFeHC4HCHC2HCHC3HCHSH4FeS2FeS2FeSFeS3FeSH3CH2C6H5C2HCH2CHC3H3C2HNC9H15CH3NH2CHC3H3CH2C4SH2C2HSHC2HCHC4HCH4C2FeS2FeSCFeSFeS3CFeSH2SH2C4SNCHC6H9NC9H15CHCS2C2H2CHCFeH4CHFeS2FeS2FeSFeS3C2HCSC2H2CHC2HCHCH3C6H4C3H3CHCH2CH3CH2SC2NCH2SCH6NFeCH4C4H4C2H2C2H
_chemical_formula_sum              "Fe48 S96 C360 H432 N24"
_cell_length_a       37.0762
_cell_length_b       37.6414
_cell_length_c       34.5019
_cell_angle_alpha    94.6635
_cell_angle_beta     90.0811
_cell_angle_gamma    91.2059

_space_group_name_H-M_alt    "P 1"
_space_group_IT_number       1

loop_
  _space_group_symop_operation_xyz
  'x, y, z'

loop_
  _atom_site_type_symbol
  _atom_site_label
  _atom_site_symmetry_multiplicity
  _atom_site_fract_x
  _atom_site_fract_y
  _atom_site_fract_z
  _atom_site_occupancy
  Fe  Fe1       1.0  0.15855  0.18779  0.29160  1.0000
  S   S1        1.0  0.17258  0.24409  0.31413  1.0000
  S   S2        1.0  0.10852  0.16509  0.26060  1.0000
  Fe  Fe2       1.0  0.22580  0.15766  0.32535  1.0000
  S   S3        1.0  0.24584  0.21144  0.35066  1.0000
  S   S4        1.0  0.25574  0.10670  0.33170  1.0000
  Fe  Fe3       1.0  0.18845  0.22004  0.36943  1.0000
  S   S5        1.0  0.16553  0.23976  0.42830  1.0000
  Fe  Fe4       1.0  0.22890  0.23107  0.29309  1.0000
  S   S6        1.0  0.26711  0.26980  0.26458  1.0000
  S   S7        1.0  0.16987  0.16498  0.34812  1.0000
  S   S8        1.0  0.21347  0.17631  0.26675  1.0000
  C   C1        1.0  0.21345  0.34547  0.20034  1.0000
  H   H1        1.0  0.07930  0.16660  0.34747  1.0000
  C   C2        1.0  0.25669  0.14143  0.17486  1.0000
  S   S9        1.0  0.28305  0.29999  0.08533  1.0000
  C   C3        1.0  0.08004  0.23391  0.37961  1.0000
  C   C4        1.0  0.27231  0.27589  0.21421  1.0000
  C   C5        1.0  0.24690  0.26264  0.18641  1.0000
  C   C6        1.0  0.25088  0.27009  0.14716  1.0000
  C   C7        1.0  0.28042  0.29056  0.13508  1.0000
  C   C8        1.0  0.30616  0.30331  0.16280  1.0000
  C   C9        1.0  0.30193  0.29623  0.20213  1.0000
  H   H2        1.0  0.22378  0.24734  0.19532  1.0000
  H   H3        1.0  0.23075  0.26017  0.12604  1.0000
  C   C10       1.0  0.17241  0.03550  0.31651  1.0000
  H   H4        1.0  0.25498  0.41555  0.07813  1.0000
  H   H5        1.0  0.18238  0.18504  0.14911  1.0000
  H   H6        1.0  0.14324  0.03606  0.31572  1.0000
  H   H7        1.0  0.23790  0.21706  0.44646  1.0000
  C   C11       1.0  0.23003  0.08416  0.44859  1.0000
  H   H8        1.0  0.19212  0.32528  0.19704  1.0000
  C   C12       1.0  0.19245  0.06736  0.32362  1.0000
  C   C13       1.0  0.23011  0.06691  0.32419  1.0000
  C   C14       1.0  0.24765  0.03427  0.31813  1.0000
  H   H9        1.0  0.17864  0.09221  0.32836  1.0000
  H   H10       1.0  0.27683  0.03378  0.31804  1.0000
  H   H11       1.0  0.32327  0.40467  0.15385  1.0000
  C   C15       1.0  0.06945  0.19072  0.26489  1.0000
  C   C16       1.0  0.07186  0.22741  0.27475  1.0000
  C   C17       1.0  0.30446  0.39760  0.12923  1.0000
  H   H12       1.0  0.09798  0.24053  0.27854  1.0000
  N   N1        1.0  0.26687  0.40788  0.13822  1.0000
  C   C18       1.0  0.24015  0.05193  0.46407  1.0000
  C   C19       1.0  0.01803  0.21042  0.45250  1.0000
  H   H13       1.0  0.25798  0.09237  0.20039  1.0000
  C   C20       1.0  0.25371  0.38882  0.17155  1.0000
  C   C21       1.0  0.08612  0.18727  0.42221  1.0000
  H   H14       1.0  0.04239  0.27587  0.28610  1.0000
  H   H15       1.0  0.19362  0.02709  0.23166  1.0000
  H   H16       1.0  0.15245  0.13291  0.17334  1.0000
  H   H17       1.0  0.28581  0.14480  0.17595  1.0000
  H   H18       1.0  0.18193  0.04690  0.14659  1.0000
  H   H19       1.0  0.09391  0.20691  0.44684  1.0000
  H   H20       1.0  0.29350  0.41303  0.21294  1.0000
  H   H21       1.0  0.24677  0.37127  0.09127  1.0000
  C   C22       1.0  0.26630  0.44702  0.14796  1.0000
  H   H22       1.0  0.03973  0.15168  0.37233  1.0000
  Fe  Fe5       1.0  0.32327  0.33144  0.05004  1.0000
  H   H23       1.0  0.06419  0.24608  0.35701  1.0000
  H   H24       1.0  0.21473  0.13896  0.46034  1.0000
  C   C23       1.0  0.24017  0.11130  0.18892  1.0000
  C   C24       1.0  0.22485  0.36321  0.16830  1.0000
  C   C25       1.0  0.27067  0.39486  0.20852  1.0000
  C   C26       1.0  0.23062  0.35214  0.23618  1.0000
  H   H25       1.0  0.27516  0.46196  0.12285  1.0000
  N   N2        1.0  0.06107  0.20290  0.39488  1.0000
  C   C27       1.0  0.16341  0.05525  0.17087  1.0000
  C   C28       1.0  0.34678  0.50226  0.03964  1.0000
  C   C29       1.0  0.19846  0.16413  0.15977  1.0000
  H   H26       1.0  0.30392  0.03908  0.42906  1.0000
  C   C30       1.0  0.23593  0.16769  0.16022  1.0000
  C   C31       1.0  0.21766  0.00866  0.41353  1.0000
  H   H27       1.0  0.24896  0.19110  0.14970  1.0000
  H   H28       1.0  0.32929  0.31864  0.15407  1.0000
  H   H29       1.0  0.17060  0.10460  0.25741  1.0000
  N   N3        1.0  0.18339  0.07517  0.20326  1.0000
  C   C32       1.0  0.25925  0.37668  0.24024  1.0000
  C   C33       1.0  0.22187  0.21777  0.47269  1.0000
  H   H30       1.0  0.22264  0.33717  0.26047  1.0000
  C   C34       1.0  0.20836  0.05002  0.21994  1.0000
  C   C35       1.0  0.18559  0.22703  0.47152  1.0000
  C   C36       1.0  0.24512  0.39992  0.10222  1.0000
  H   H31       1.0  0.07437  0.16285  0.43376  1.0000
  H   H32       1.0  0.22414  0.06344  0.24461  1.0000
  C   C37       1.0  0.04037  0.24735  0.27897  1.0000
  H   H33       1.0  0.28495  0.45596  0.17218  1.0000
  H   H34       1.0  0.14199  0.07148  0.15884  1.0000
  C   C38       1.0  0.15730  0.08675  0.23408  1.0000
  H   H35       1.0  0.21631  0.40666  0.10696  1.0000
  H   H36       1.0  0.32169  0.30666  0.22341  1.0000
  H   H37       1.0  0.13447  0.10154  0.22280  1.0000
  C   C39       1.0  0.20194  0.10673  0.18878  1.0000
  H   H38       1.0  0.30606  0.36839  0.12182  1.0000
  C   C40       1.0  0.05391  0.17555  0.36222  1.0000
  C   C41       1.0  0.18161  0.13414  0.17375  1.0000
  C   C42       1.0  0.03539  0.17401  0.25940  1.0000
  H   H39       1.0  0.31519  0.41108  0.10402  1.0000
  H   H40       1.0  0.21131  0.35551  0.14110  1.0000
  H   H41       1.0  0.22747  0.03839  0.19780  1.0000
  H   H42       1.0  0.14485  0.06377  0.24788  1.0000
  H   H43       1.0  0.22864  0.08630  0.41750  1.0000
  H   H44       1.0  0.14978  0.03082  0.18055  1.0000
  H   H45       1.0  0.23870  0.45574  0.15638  1.0000
  H   H46       1.0  0.03343  0.14559  0.25170  1.0000
  H   H47       1.0  0.08613  0.25510  0.40329  1.0000
  N   N4        1.0  0.24950  0.02043  0.43771  1.0000
  H   H48       1.0  0.10624  0.22625  0.36586  1.0000
  H   H49       1.0  0.11191  0.17931  0.40775  1.0000
  H   H50       1.0  0.27324  0.38079  0.26790  1.0000
  S   S10       1.0  0.30001  0.37625  0.01907  1.0000
  C   C43       1.0  0.22182  0.11449  0.47284  1.0000
  C   C44       1.0  0.27958  0.02987  0.41185  1.0000
  C   C45       1.0  0.02647  0.21435  0.41281  1.0000
  H   H51       1.0  0.19681  0.31935  0.47862  1.0000
  H   H52       1.0  0.20880  0.02947  0.39477  1.0000
  H   H53       1.0  0.27269  0.05162  0.39341  1.0000
  H   H54       1.0  0.03681  0.18576  0.33939  1.0000
  H   H55       1.0  0.03654  0.19900  0.47196  1.0000
  Fe  Fe6       1.0  0.22450  0.21412  0.73486  1.0000
  S   S11       1.0  0.16655  0.20017  0.74711  1.0000
  S   S12       1.0  0.26568  0.21860  0.78468  1.0000
  Fe  Fe7       1.0  0.21121  0.20659  0.64549  1.0000
  S   S13       1.0  0.15250  0.19287  0.65180  1.0000
  S   S14       1.0  0.23975  0.20631  0.58722  1.0000
  Fe  Fe8       1.0  0.15350  0.23616  0.70047  1.0000
  S   S15       1.0  0.11567  0.28221  0.70785  1.0000
  Fe  Fe9       1.0  0.17115  0.15791  0.69749  1.0000
  S   S16       1.0  0.14520  0.10314  0.69964  1.0000
  S   S17       1.0  0.21135  0.25299  0.69103  1.0000
  S   S18       1.0  0.22995  0.16884  0.68823  1.0000
  H   H56       1.0  0.23319  0.08181  0.56067  1.0000
  S   S19       1.0  0.30154  0.35216  0.90608  1.0000
  C   C46       1.0  0.28981  0.31410  0.87424  1.0000
  C   C47       1.0  0.30322  0.28033  0.87943  1.0000
  C   C48       1.0  0.29551  0.25145  0.85179  1.0000
  C   C49       1.0  0.27372  0.25574  0.81910  1.0000
  C   C50       1.0  0.25993  0.28938  0.81420  1.0000
  C   C51       1.0  0.26826  0.31843  0.84142  1.0000
  C   C52       1.0  0.24068  0.05178  0.50531  1.0000
  C   C53       1.0  0.23794  0.21088  0.50824  1.0000
  H   H57       1.0  0.24328  0.29317  0.78915  1.0000
  H   H58       1.0  0.25790  0.34447  0.83700  1.0000
  C   C54       1.0  0.22428  0.09267  0.81400  1.0000
  H   H59       1.0  0.24883  0.04133  0.82368  1.0000
  C   C55       1.0  0.21776  0.21254  0.54275  1.0000
  C   C56       1.0  0.18108  0.22016  0.54125  1.0000
  H   H60       1.0  0.28367  0.08679  0.86061  1.0000
  H   H61       1.0  0.20809  0.29458  0.61676  1.0000
  H   H62       1.0  0.16531  0.22077  0.56753  1.0000
  C   C57       1.0  0.21098  0.07242  0.71056  1.0000
  C   C58       1.0  0.17380  0.06705  0.70566  1.0000
  C   C59       1.0  0.15888  0.03264  0.70735  1.0000
  H   H63       1.0  0.22278  0.09855  0.70866  1.0000
  H   H64       1.0  0.13029  0.02804  0.70305  1.0000
  H   H65       1.0  0.30650  0.22564  0.85581  1.0000
  C   C60       1.0  0.06850  0.28154  0.70134  1.0000
  C   C61       1.0  0.05180  0.31454  0.70246  1.0000
  H   H66       1.0  0.06035  0.22453  0.69381  1.0000
  H   H67       1.0  0.06778  0.33888  0.70759  1.0000
  H   H68       1.0  0.11969  0.26576  0.57944  1.0000
  C   C62       1.0  0.23290  0.04397  0.71875  1.0000
  H   H69       1.0  0.02240  0.12123  0.77987  1.0000
  H   H70       1.0  0.16840  0.32113  0.65580  1.0000
  C   C63       1.0  0.19285  0.03450  0.81421  1.0000
  H   H71       1.0  0.27599  0.16422  0.84974  1.0000
  C   C64       1.0  0.16953  0.32093  0.53399  1.0000
  H   H72       1.0  0.31314  0.11555  0.83553  1.0000
  C   C65       1.0  0.23459  0.29762  0.56276  1.0000
  H   H73       1.0  0.24141  0.13961  0.87358  1.0000
  H   H74       1.0  0.34078  0.47635  0.98199  1.0000
  H   H75       1.0  0.26160  0.04823  0.72292  1.0000
  H   H76       1.0  0.10214  0.28224  0.62584  1.0000
  C   C66       1.0  0.10969  0.33723  0.58434  1.0000
  H   H77       1.0  0.29741  0.07476  0.81092  1.0000
  C   C67       1.0  0.17159  0.31458  0.57405  1.0000
  Fe  Fe10      1.0  0.32855  0.35301  0.96570  1.0000
  H   H78       1.0  0.11870  0.36412  0.57652  1.0000
  C   C68       1.0  0.12667  0.28146  0.60725  1.0000
  H   H79       1.0  0.24757  0.02850  0.51987  1.0000
  H   H80       1.0  0.16411  0.36283  0.63417  1.0000
  H   H81       1.0  0.24440  0.14291  0.76681  1.0000
  C   C69       1.0  0.28917  0.09722  0.83187  1.0000
  H   H82       1.0  0.14506  0.32898  0.52059  1.0000
  C   C70       1.0  0.16517  0.22793  0.50588  1.0000
  H   H83       1.0  0.23100  0.16562  0.83365  1.0000
  C   C71       1.0  0.04750  0.25010  0.69483  1.0000
  H   H84       1.0  0.07639  0.06191  0.71322  1.0000
  H   H85       1.0  0.31978  0.27654  0.90452  1.0000
  C   C72       1.0  0.01843  0.07241  0.71918  1.0000
  H   H86       1.0  0.18873  0.13498  0.79870  1.0000
  C   C73       1.0  0.20494  0.30224  0.58748  1.0000
  C   C74       1.0  0.25106  0.14741  0.84489  1.0000
  H   H87       1.0  0.12649  0.34211  0.65739  1.0000
  C   C75       1.0  0.15034  0.33686  0.63830  1.0000
  N   N5        1.0  0.25730  0.11559  0.81752  1.0000
  H   H88       1.0  0.14720  0.26638  0.62237  1.0000
  N   N6        1.0  0.14005  0.31773  0.60035  1.0000
  H   H89       1.0  0.27217  0.10482  0.75755  1.0000
  H   H90       1.0  0.08731  0.34108  0.60575  1.0000
  H   H91       1.0  0.09736  0.32220  0.55834  1.0000
  C   C76       1.0  0.04960  0.05090  0.71692  1.0000
  C   C77       1.0  0.19071  0.10729  0.80449  1.0000
  H   H92       1.0  0.26631  0.20476  0.50910  1.0000
  H   H93       1.0  0.29084  0.14570  0.78029  1.0000
  C   C78       1.0  0.26656  0.12769  0.77891  1.0000
  C   C79       1.0  0.22448  0.05539  0.81836  1.0000
  C   C80       1.0  0.23174  0.30422  0.52378  1.0000
  C   C81       1.0  0.15924  0.08618  0.80060  1.0000
  C   C82       1.0  0.04693  0.01401  0.71966  1.0000
  H   H94       1.0  0.13424  0.09776  0.79202  1.0000
  H   H95       1.0  0.21704  0.13719  0.53190  1.0000
  N   N7        1.0  0.02009  0.11168  0.71760  1.0000
  H   H96       1.0  0.13711  0.23506  0.50523  1.0000
  C   C83       1.0  0.23232  0.08228  0.52927  1.0000
  C   C84       1.0  0.21779  0.00995  0.72194  1.0000
  H   H97       1.0  0.05753  0.15562  0.71026  1.0000
  C   C85       1.0  0.16030  0.04986  0.80550  1.0000
  C   C86       1.0  0.05708  0.12615  0.71162  1.0000
  C   C87       1.0  0.22310  0.11358  0.51310  1.0000
  H   H98       1.0  0.25935  0.28693  0.57344  1.0000
  H   H99       1.0  0.06894  0.11462  0.68384  1.0000
  H   H100      1.0  0.13616  0.03329  0.80102  1.0000
  H   H101      1.0  0.07554  0.12075  0.73586  1.0000
  C   C88       1.0  0.19927  0.31573  0.50940  1.0000
  C   C89       1.0  0.34167  0.50159  0.99941  1.0000
  H   H102      1.0  0.25431  0.29905  0.50434  1.0000
  S   S20       1.0  0.34828  0.30617  0.99515  1.0000
  Fe  Fe11      1.0  0.15909  0.83926  0.33724  1.0000
  S   S21       1.0  0.21354  0.82537  0.35993  1.0000
  S   S22       1.0  0.11722  0.79473  0.33486  1.0000
  Fe  Fe12      1.0  0.18491  0.91307  0.31966  1.0000
  S   S23       1.0  0.24127  0.90461  0.34013  1.0000
  S   S24       1.0  0.16394  0.96402  0.29887  1.0000
  Fe  Fe13      1.0  0.23527  0.85031  0.30705  1.0000
  S   S25       1.0  0.28001  0.82155  0.27175  1.0000
  Fe  Fe14      1.0  0.21427  0.88033  0.39072  1.0000
  S   S26       1.0  0.22817  0.90236  0.45272  1.0000
  S   S27       1.0  0.18068  0.86101  0.28297  1.0000
  S   S28       1.0  0.15809  0.89215  0.37173  1.0000
  H   H103      1.0  0.33530  0.84015  0.02016  1.0000
  S   S29       1.0  0.28654  0.76056  0.09299  1.0000
  C   C90       1.0  0.20917  0.74243  0.30043  1.0000
  H   H104      1.0  0.29253  0.68897  0.15287  1.0000
  C   C91       1.0  0.16323  0.71266  0.26030  1.0000
  H   H105      1.0  0.22970  0.69839  0.13354  1.0000
  H   H106      1.0  0.31144  0.70167  0.22140  1.0000
  H   H107      1.0  0.14327  0.72219  0.28285  1.0000
  C   C92       1.0  0.28342  0.70459  0.21341  1.0000
  H   H108      1.0  0.24124  0.97725  0.30608  1.0000
  C   C93       1.0  0.28690  0.77973  0.14201  1.0000
  C   C94       1.0  0.31561  0.77575  0.16756  1.0000
  C   C95       1.0  0.31326  0.78929  0.20690  1.0000
  C   C96       1.0  0.28251  0.80739  0.22112  1.0000
  C   C97       1.0  0.25451  0.81272  0.19507  1.0000
  C   C98       1.0  0.25652  0.79856  0.15599  1.0000
  C   C99       1.0  0.18988  0.00292  0.31041  1.0000
  H   H109      1.0  0.23904  0.97921  0.47660  1.0000
  H   H110      1.0  0.23120  0.82759  0.20499  1.0000
  H   H111      1.0  0.23426  0.80209  0.13648  1.0000
  H   H112      1.0  0.29941  0.78762  0.02177  1.0000
  H   H113      1.0  0.23185  0.76245  0.30286  1.0000
  Fe  Fe15      1.0  0.32988  0.73310  0.05413  1.0000
  H   H114      1.0  0.17138  0.68542  0.26659  1.0000
  H   H115      1.0  0.23320  0.82681  0.46818  1.0000
  C   C100      1.0  0.05520  0.83606  0.33903  1.0000
  C   C101      1.0  0.07029  0.80202  0.33733  1.0000
  C   C102      1.0  0.04747  0.77198  0.33727  1.0000
  H   H116      1.0  0.07266  0.85945  0.33901  1.0000
  H   H117      1.0  0.05884  0.74568  0.33609  1.0000
  H   H118      1.0  0.26452  0.88010  0.03544  1.0000
  H   H119      1.0  0.18809  0.75290  0.32114  1.0000
  C   C103      1.0  0.01724  0.83968  0.34057  1.0000
  H   H120      1.0  0.14835  0.71052  0.23223  1.0000
  H   H121      1.0  0.19433  0.00178  0.43198  1.0000
  C   C104      1.0  0.21218  0.71515  0.19174  1.0000
  H   H122      1.0  0.20598  0.79175  0.25038  1.0000
  H   H123      1.0  0.23888  0.83986  0.04160  1.0000
  H   H124      1.0  0.26913  0.72392  0.27036  1.0000
  H   H125      1.0  0.28340  0.84439  0.06036  1.0000
  C   C105      1.0  0.18303  0.77225  0.24900  1.0000
  H   H126      1.0  0.17162  0.77109  0.21916  1.0000
  H   H127      1.0  0.16181  0.78337  0.26897  1.0000
  H   H128      1.0  0.18520  0.71963  0.18167  1.0000
  C   C106      1.0  0.25861  0.71742  0.24141  1.0000
  C   C107      1.0  0.23734  0.70274  0.16395  1.0000
  C   C108      1.0  0.23295  0.84288  0.49564  1.0000
  C   C109      1.0  0.26619  0.85062  0.03530  1.0000
  C   C110      1.0  0.26109  0.98943  0.45834  1.0000
  C   C111      1.0  0.22202  0.72291  0.23140  1.0000
  C   C112      1.0  0.27285  0.69739  0.17478  1.0000
  H   H129      1.0  0.21857  0.71703  0.31090  1.0000
  N   N8        1.0  0.19508  0.73718  0.25997  1.0000
  H   H130      1.0  0.26848  0.96648  0.43759  1.0000
  H   H131      1.0  0.33527  0.78528  0.22659  1.0000
  H   H132      1.0  0.33922  0.76147  0.15733  1.0000
  C   C113      1.0  0.23052  0.87998  0.49597  1.0000
  H   H133      1.0  0.28524  0.99606  0.47691  1.0000
  H   H134      1.0  0.22333  0.98449  0.39377  1.0000
  C   C114      1.0  0.22757  0.00227  0.31147  1.0000
  H   H135      1.0  0.07706  0.83453  0.49137  1.0000
  H   H136      1.0  0.34458  0.59275  0.06139  1.0000
  C   C115      1.0  0.34380  0.56750  0.04397  1.0000
  C   C116      1.0  0.34775  0.53536  0.06178  1.0000
  H   H137      1.0  0.25404  0.78403  0.00528  1.0000
  H   H138      1.0  0.28723  0.00677  0.39149  1.0000
  C   C117      1.0  0.33908  0.56688  0.00368  1.0000
  Fe  Fe16      1.0  0.22160  0.85540  0.66767  1.0000
  S   S30       1.0  0.19020  0.90547  0.67000  1.0000
  S   S31       1.0  0.23967  0.82611  0.61093  1.0000
  Fe  Fe17      1.0  0.21334  0.84788  0.75612  1.0000
  S   S32       1.0  0.17984  0.89748  0.76459  1.0000
  S   S33       1.0  0.22097  0.81007  0.80447  1.0000
  Fe  Fe18      1.0  0.15196  0.87800  0.70865  1.0000
  S   S34       1.0  0.09459  0.87758  0.68693  1.0000
  Fe  Fe19      1.0  0.22064  0.92083  0.72512  1.0000
  S   S35       1.0  0.24533  0.97582  0.73627  1.0000
  S   S36       1.0  0.18150  0.82657  0.70308  1.0000
  S   S37       1.0  0.25604  0.87276  0.72006  1.0000
  C   C118      1.0  0.25775  0.84409  0.96508  1.0000
  H   H139      1.0  0.12515  0.80172  0.57793  1.0000
  S   S38       1.0  0.30799  0.70916  0.99616  1.0000
  H   H140      1.0  0.16482  0.85814  0.53268  1.0000
  C   C119      1.0  0.22060  0.83400  0.96378  1.0000
  C   C120      1.0  0.31281  0.80097  0.69720  1.0000
  C   C121      1.0  0.23595  0.82665  0.53099  1.0000
  H   H141      1.0  0.20848  0.81977  0.98659  1.0000
  H   H142      1.0  0.24889  0.78750  0.72914  1.0000
  C   C122      1.0  0.30410  0.74171  0.66599  1.0000
  H   H143      1.0  0.32090  0.87690  0.99461  1.0000
  C   C123      1.0  0.25741  0.80062  0.83565  1.0000
  C   C124      1.0  0.25133  0.77657  0.86430  1.0000
  C   C125      1.0  0.27927  0.76769  0.88941  1.0000
  C   C126      1.0  0.31383  0.78291  0.88638  1.0000
  C   C127      1.0  0.31990  0.80703  0.85776  1.0000
  C   C128      1.0  0.29196  0.81583  0.83252  1.0000
  H   H144      1.0  0.22477  0.76456  0.86697  1.0000
  C   C129      1.0  0.33778  0.53374  0.98160  1.0000
  H   H145      1.0  0.19613  0.86285  0.87672  1.0000
  H   H146      1.0  0.29718  0.83429  0.81066  1.0000
  C   C130      1.0  0.23279  0.88422  0.56717  1.0000
  C   C131      1.0  0.23581  0.84723  0.56693  1.0000
  H   H147      1.0  0.07096  0.99795  0.71807  1.0000
  H   H148      1.0  0.23307  0.90046  0.59450  1.0000
  H   H149      1.0  0.26069  0.74016  0.76684  1.0000
  H   H150      1.0  0.22885  0.92917  0.53256  1.0000
  C   C132      1.0  0.05740  0.88789  0.71706  1.0000
  C   C133      1.0  0.06141  0.89993  0.75631  1.0000
  H   H151      1.0  0.28817  0.71664  0.82259  1.0000
  H   H152      1.0  0.08806  0.90298  0.76908  1.0000
  H   H153      1.0  0.24192  0.74360  0.70460  1.0000
  C   C134      1.0  0.12892  0.83006  0.58932  1.0000
  C   C135      1.0  0.27140  0.86194  0.93320  1.0000
  H   H154      1.0  0.27410  0.74866  0.91070  1.0000
  H   H155      1.0  0.29945  0.86967  0.93081  1.0000
  N   N9        1.0  0.11381  0.85452  0.56209  1.0000
  H   H156      1.0  0.05927  0.85429  0.61590  1.0000
  H   H157      1.0  0.31034  0.81838  0.72473  1.0000
  H   H158      1.0  0.29244  0.71445  0.66823  1.0000
  H   H159      1.0  0.14700  0.89931  0.58481  1.0000
  H   H160      1.0  0.16893  0.97788  0.71782  1.0000
  H   H161      1.0  0.33353  0.73905  0.66083  1.0000
  C   C136      1.0  0.07505  0.84583  0.55498  1.0000
  C   C137      1.0  0.05033  0.84709  0.58645  1.0000
  C   C138      1.0  0.13602  0.85148  0.52621  1.0000
  H   H162      1.0  0.29970  0.81465  0.67351  1.0000
  C   C139      1.0  0.19863  0.84104  0.93243  1.0000
  H   H163      1.0  0.33218  0.83479  0.96857  1.0000
  C   C140      1.0  0.30522  0.72474  0.79922  1.0000
  H   H164      1.0  0.19391  0.00589  0.81608  1.0000
  C   C141      1.0  0.21287  0.85848  0.90165  1.0000
  H   H165      1.0  0.12737  0.87032  0.50490  1.0000
  H   H166      1.0  0.34189  0.79981  0.68972  1.0000
  C   C142      1.0  0.28974  0.73827  0.76664  1.0000
  H   H167      1.0  0.29026  0.78263  0.97073  1.0000
  C   C143      1.0  0.02277  0.88410  0.70071  1.0000
  H   H168      1.0  0.11618  0.83314  0.61853  1.0000
  H   H169      1.0  0.26017  0.88175  0.87754  1.0000
  C   C144      1.0  0.23053  0.90048  0.53192  1.0000
  C   C145      1.0  0.11805  0.89167  0.57973  1.0000
  H   H170      1.0  0.29248  0.75233  0.63947  1.0000
  H   H171      1.0  0.23837  0.79802  0.53045  1.0000
  C   C146      1.0  0.24906  0.86914  0.90219  1.0000
  H   H172      1.0  0.24597  0.78163  0.67727  1.0000
  H   H173      1.0  0.15837  0.83515  0.59440  1.0000
  C   C147      1.0  0.25657  0.76957  0.70335  1.0000
  H   H174      1.0  0.33393  0.53294  0.95044  1.0000
  H   H175      1.0  0.17058  0.83226  0.93149  1.0000
  H   H176      1.0  0.10473  0.89556  0.60857  1.0000
  H   H177      1.0  0.13529  0.82384  0.51202  1.0000
  N   N10       1.0  0.29627  0.76522  0.70141  1.0000
  C   C148      1.0  0.31151  0.74996  0.73600  1.0000
  S   S39       1.0  0.33601  0.60653  0.97927  1.0000
  C   C149      1.0  0.06060  0.83612  0.51723  1.0000
  C   C150      1.0  0.18080  0.00412  0.71549  1.0000
  C   C151      1.0  0.03067  0.90787  0.77908  1.0000
  H   H178      1.0  0.01943  0.87490  0.67041  1.0000
  H   H179      1.0  0.10623  0.91092  0.56071  1.0000
  N   N11       1.0  0.28072  0.83488  0.99783  1.0000
  C   C152      1.0  0.28095  0.79566  0.99886  1.0000
  H   H180      1.0  0.03369  0.91711  0.80945  1.0000
  C   C153      1.0  0.31885  0.84742  0.99502  1.0000
  H   H181      1.0  0.34651  0.81887  0.85495  1.0000
  Fe  Fe20      1.0  0.34674  0.66452  0.00220  1.0000
  C   C154      1.0  0.02382  0.82801  0.51176  1.0000
  C   C155      1.0  0.34251  0.72295  0.80271  1.0000
  H   H182      1.0  0.46380  0.34001  0.09298  1.0000
  H   H183      1.0  0.50390  0.39100  0.11496  1.0000
  N   N12       1.0  0.60745  0.32070  0.10375  1.0000
  H   H184      1.0  0.55398  0.27180  0.08006  1.0000
  C   C156      1.0  0.62818  0.35172  0.12245  1.0000
  S   S40       1.0  0.37389  0.36252  0.06836  1.0000
  H   H185      1.0  0.61724  0.33733  0.04653  1.0000
  Fe  Fe21      1.0  0.39728  0.34106  0.01110  1.0000
  H   H186      1.0  0.61881  0.35865  0.15269  1.0000
  H   H187      1.0  0.62606  0.37557  0.10557  1.0000
  H   H188      1.0  0.60542  0.26394  0.11090  1.0000
  C   C157      1.0  0.54410  0.29788  0.08937  1.0000
  C   C158      1.0  0.49252  0.33617  0.09636  1.0000
  C   C159      1.0  0.51522  0.36486  0.10855  1.0000
  H   H189      1.0  0.60316  0.29236  0.15534  1.0000
  H   H190      1.0  0.64507  0.28618  0.12950  1.0000
  H   H191      1.0  0.60719  0.29064  0.04758  1.0000
  C   C160      1.0  0.62111  0.31381  0.06360  1.0000
  C   C161      1.0  0.61541  0.28949  0.12585  1.0000
  H   H192      1.0  0.56841  0.38385  0.12026  1.0000
  C   C162      1.0  0.56805  0.32639  0.10224  1.0000
  C   C163      1.0  0.50693  0.30278  0.08676  1.0000
  C   C164      1.0  0.55245  0.36027  0.11145  1.0000
  H   H193      1.0  0.48918  0.28096  0.07573  1.0000
  H   H194      1.0  0.65040  0.30798  0.06341  1.0000
  H   H195      1.0  0.65759  0.34619  0.12398  1.0000
  C   C165      1.0  0.49719  0.37474  0.00411  1.0000
  Fe  Fe22      1.0  0.35188  0.40608  0.03401  1.0000
  S   S41       1.0  0.35296  0.46268  0.06341  1.0000
  H   H196      1.0  0.53355  0.42043  0.00534  1.0000
  H   H197      1.0  0.42639  0.48182  0.02446  1.0000
  H   H198      1.0  0.47331  0.39038  0.00953  1.0000
  C   C166      1.0  0.48382  0.49145  0.02455  1.0000
  C   C167      1.0  0.44805  0.50113  0.02067  1.0000
  H   H199      1.0  0.49002  0.46461  0.03122  1.0000
  S   S42       1.0  0.37900  0.38667  0.97836  1.0000
  H   H200      1.0  0.41812  0.31353  0.92726  1.0000
  C   C168      1.0  0.38468  0.32948  0.83876  1.0000
  C   C169      1.0  0.39516  0.39824  0.87995  1.0000
  C   C170      1.0  0.40245  0.43327  0.89519  1.0000
  H   H201      1.0  0.43910  0.46864  0.92876  1.0000
  H   H202      1.0  0.38088  0.30140  0.82632  1.0000
  C   C171      1.0  0.45061  0.37959  0.90864  1.0000
  H   H203      1.0  0.39234  0.34604  0.81467  1.0000
  H   H204      1.0  0.48182  0.42108  0.94079  1.0000
  C   C172      1.0  0.43382  0.44156  0.91659  1.0000
  H   H205      1.0  0.38316  0.45393  0.89113  1.0000
  C   C173      1.0  0.41954  0.37036  0.88547  1.0000
  C   C174      1.0  0.45783  0.41476  0.92334  1.0000
  C   C175      1.0  0.52544  0.31759  0.99234  1.0000
  H   H206      1.0  0.37309  0.32458  0.91491  1.0000
  C   C176      1.0  0.39841  0.31289  0.90285  1.0000
  H   H207      1.0  0.46502  0.31085  0.87819  1.0000
  N   N13       1.0  0.41205  0.33287  0.87051  1.0000
  H   H208      1.0  0.45902  0.33240  0.83386  1.0000
  S   S43       1.0  0.60465  0.39487  0.99210  1.0000
  H   H209      1.0  0.46916  0.35964  0.91666  1.0000
  C   C177      1.0  0.44538  0.31571  0.85491  1.0000
  H   H210      1.0  0.43957  0.28894  0.83974  1.0000
  H   H211      1.0  0.39233  0.28443  0.89335  1.0000
  C   C178      1.0  0.55959  0.33454  0.99041  1.0000
  H   H212      1.0  0.36968  0.39352  0.86501  1.0000
  H   H213      1.0  0.58334  0.31890  0.98430  1.0000
  H   H214      1.0  0.35745  0.33735  0.84931  1.0000
  H   H215      1.0  0.52325  0.28882  0.98844  1.0000
  C   C179      1.0  0.49411  0.33757  0.99928  1.0000
  Fe  Fe23      1.0  0.66318  0.37814  0.99789  1.0000
  C   C180      1.0  0.56269  0.37173  0.99535  1.0000
  S   S44       1.0  0.45189  0.31488  0.00199  1.0000
  C   C181      1.0  0.53131  0.39167  0.00190  1.0000
  S   S45       1.0  0.36465  0.68565  0.06201  1.0000
  H   H216      1.0  0.44953  0.61693  0.05959  1.0000
  H   H217      1.0  0.59748  0.70686  0.05644  1.0000
  Fe  Fe24      1.0  0.40808  0.71529  0.03058  1.0000
  C   C182      1.0  0.43489  0.61482  0.03127  1.0000
  C   C183      1.0  0.43989  0.53580  0.01242  1.0000
  C   C184      1.0  0.57395  0.71904  0.04505  1.0000
  C   C185      1.0  0.53909  0.70609  0.05348  1.0000
  H   H218      1.0  0.40939  0.59962  0.03493  1.0000
  C   C186      1.0  0.50810  0.72189  0.03947  1.0000
  C   C187      1.0  0.54723  0.76396  0.00857  1.0000
  H   H219      1.0  0.53614  0.68399  0.07147  1.0000
  S   S46       1.0  0.46495  0.70511  0.05250  1.0000
  S   S47       1.0  0.37455  0.76441  0.02721  1.0000
  C   C188      1.0  0.51153  0.51643  0.02023  1.0000
  Fe  Fe25      1.0  0.67605  0.74267  0.02490  1.0000
  H   H220      1.0  0.42677  0.64215  0.02550  1.0000
  H   H221      1.0  0.53938  0.50875  0.02332  1.0000
  S   S48       1.0  0.62147  0.76717  0.01351  1.0000
  C   C189      1.0  0.57822  0.74836  0.02292  1.0000
  C   C190      1.0  0.51235  0.75066  0.01652  1.0000
  H   H222      1.0  0.52631  0.56942  0.00969  1.0000
  H   H223      1.0  0.41178  0.54201  0.00976  1.0000
  C   C191      1.0  0.50359  0.55134  0.01226  1.0000
  H   H224      1.0  0.50508  0.62699  0.02291  1.0000
  H   H225      1.0  0.35171  0.53618  0.09292  1.0000
  C   C192      1.0  0.46731  0.56207  0.00809  1.0000
  H   H226      1.0  0.48879  0.76318  0.00567  1.0000
  H   H227      1.0  0.62247  0.83058  0.95202  1.0000
  H   H228      1.0  0.43004  0.62413  0.95439  1.0000
  Fe  Fe26      1.0  0.35367  0.73872  0.96965  1.0000
  S   S49       1.0  0.39110  0.69234  0.97112  1.0000
  H   H229      1.0  0.66463  0.82500  0.85084  1.0000
  C   C193      1.0  0.48919  0.62298  0.99541  1.0000
  N   N14       1.0  0.67691  0.83000  0.92976  1.0000
  H   H230      1.0  0.39363  0.73214  0.77586  1.0000
  C   C194      1.0  0.63887  0.84140  0.92832  1.0000
  H   H231      1.0  0.36764  0.75445  0.71758  1.0000
  H   H232      1.0  0.50717  0.61316  0.97127  1.0000
  H   H233      1.0  0.67334  0.82680  0.99196  1.0000
  H   H234      1.0  0.66710  0.78094  0.89357  1.0000
  H   H235      1.0  0.63725  0.87098  0.93159  1.0000
  H   H236      1.0  0.62519  0.83170  0.90070  1.0000
  C   C195      1.0  0.43675  0.59703  0.96259  1.0000
  H   H237      1.0  0.41039  0.58265  0.96462  1.0000
  H   H238      1.0  0.66087  0.77738  0.94432  1.0000
  H   H239      1.0  0.45212  0.58348  0.93820  1.0000
  H   H240      1.0  0.35426  0.71374  0.82884  1.0000
  C   C196      1.0  0.36459  0.73359  0.77296  1.0000
  N   N15       1.0  0.45758  0.59860  0.99948  1.0000
  H   H241      1.0  0.48073  0.65016  0.98894  1.0000
  H   H242      1.0  0.55018  0.78670  0.99151  1.0000
  C   C197      1.0  0.67762  0.79068  0.92273  1.0000
  S   S50       1.0  0.35038  0.77265  0.91713  1.0000
  C   C198      1.0  0.34941  0.74657  0.73988  1.0000
  Fe  Fe27      1.0  0.85390  0.17763  0.29803  1.0000
  S   S51       1.0  0.81475  0.21660  0.32653  1.0000
  S   S52       1.0  0.83235  0.12102  0.28715  1.0000
  Fe  Fe28      1.0  0.91295  0.23287  0.29238  1.0000
  S   S53       1.0  0.87825  0.27559  0.31988  1.0000
  S   S54       1.0  0.96784  0.25682  0.28125  1.0000
  Fe  Fe29      1.0  0.86253  0.23650  0.36260  1.0000
  S   S55       1.0  0.86373  0.26167  0.42453  1.0000
  Fe  Fe30      1.0  0.83333  0.25293  0.28141  1.0000
  S   S56       1.0  0.79748  0.29593  0.25954  1.0000
  S   S57       1.0  0.90041  0.19491  0.33784  1.0000
  S   S58       1.0  0.86930  0.21266  0.25008  1.0000
  H   H243      1.0  0.78399  0.30427  0.45805  1.0000
  C   C199      1.0  0.86966  0.01205  0.46159  1.0000
  H   H244      1.0  0.93417  0.24574  0.45783  1.0000
  C   C200      1.0  0.83411  0.34973  0.13937  1.0000
  Fe  Fe31      1.0  0.71694  0.34314  0.05001  1.0000
  S   S59       1.0  0.72180  0.30079  0.09361  1.0000
  H   H245      1.0  0.75781  0.27118  0.32748  1.0000
  H   H246      1.0  0.72785  0.18752  0.41346  1.0000
  H   H247      1.0  0.81303  0.32266  0.40362  1.0000
  H   H248      1.0  0.97907  0.21857  0.49871  1.0000
  H   H249      1.0  0.97757  0.18085  0.26099  1.0000
  C   C201      1.0  0.88772  0.08346  0.49138  1.0000
  C   C202      1.0  0.77832  0.29722  0.21241  1.0000
  C   C203      1.0  0.78008  0.26843  0.18420  1.0000
  C   C204      1.0  0.76358  0.27036  0.14755  1.0000
  C   C205      1.0  0.74560  0.30118  0.13844  1.0000
  C   C206      1.0  0.74370  0.32987  0.16673  1.0000
  C   C207      1.0  0.76010  0.32794  0.20340  1.0000
  H   H250      1.0  0.79372  0.24450  0.19078  1.0000
  H   H251      1.0  0.76446  0.24764  0.12626  1.0000
  H   H252      1.0  0.72842  0.35297  0.16093  1.0000
  H   H253      1.0  0.75828  0.35021  0.22513  1.0000
  C   C208      1.0  0.85622  0.23722  0.46536  1.0000
  C   C209      1.0  0.91636  0.02103  0.41542  1.0000
  H   H254      1.0  0.83482  0.18998  0.43332  1.0000
  H   H255      1.0  0.83030  0.05061  0.41537  1.0000
  H   H256      1.0  0.92710  0.05906  0.21812  1.0000
  C   C210      1.0  0.89624  0.08971  0.30535  1.0000
  C   C211      1.0  0.85934  0.08507  0.29756  1.0000
  C   C212      1.0  0.84353  0.05082  0.29689  1.0000
  H   H257      1.0  0.90870  0.11595  0.30548  1.0000
  H   H258      1.0  0.81504  0.04710  0.29064  1.0000
  C   C213      1.0  0.84981  0.32628  0.16355  1.0000
  C   C214      1.0  0.95959  0.23686  0.44542  1.0000
  H   H259      1.0  0.87674  0.32066  0.21787  1.0000
  C   C215      1.0  0.89225  0.07326  0.45109  1.0000
  H   H260      1.0  0.86235  0.41302  0.08554  1.0000
  C   C216      1.0  0.76744  0.25293  0.47331  1.0000
  H   H261      1.0  0.84882  0.29780  0.15557  1.0000
  H   H262      1.0  0.74335  0.35746  0.37955  1.0000
  H   H263      1.0  0.82115  0.33815  0.11307  1.0000
  C   C217      1.0  0.96696  0.24103  0.40650  1.0000
  H   H264      1.0  0.81394  0.28777  0.36574  1.0000
  C   C218      1.0  0.85546  0.03874  0.40302  1.0000
  C   C219      1.0  0.86451  0.02129  0.30362  1.0000
  C   C220      1.0  0.83418  0.38709  0.14949  1.0000
  C   C221      1.0  0.86616  0.37560  0.20956  1.0000
  H   H265      1.0  0.84840  0.01186  0.38873  1.0000
  H   H266      1.0  0.74679  0.31634  0.32415  1.0000
  N   N16       1.0  0.88351  0.03689  0.43346  1.0000
  H   H267      1.0  0.82043  0.42523  0.06430  1.0000
  C   C222      1.0  0.83421  0.18480  0.49536  1.0000
  C   C223      1.0  0.84143  0.20264  0.46180  1.0000
  C   C224      1.0  0.87171  0.04504  0.20480  1.0000
  H   H268      1.0  0.77248  0.37424  0.10785  1.0000
  C   C225      1.0  0.77035  0.27969  0.44760  1.0000
  N   N17       1.0  0.81660  0.41121  0.12369  1.0000
  C   C226      1.0  0.83283  0.40704  0.08432  1.0000
  C   C227      1.0  0.77759  0.40194  0.12069  1.0000
  C   C228      1.0  0.81989  0.44958  0.13754  1.0000
  H   H269      1.0  0.73184  0.23319  0.36807  1.0000
  H   H270      1.0  0.87830  0.38530  0.23712  1.0000
  C   C229      1.0  0.84582  0.01747  0.19988  1.0000
  C   C230      1.0  0.74169  0.24022  0.39720  1.0000
  H   H271      1.0  0.90951  0.09430  0.39663  1.0000
  H   H272      1.0  0.76309  0.41973  0.10198  1.0000
  H   H273      1.0  0.76465  0.40446  0.14981  1.0000
  H   H274      1.0  0.84863  0.45866  0.13991  1.0000
  H   H275      1.0  0.82901  0.37966  0.07018  1.0000
  H   H276      1.0  0.80640  0.45527  0.16609  1.0000
  H   H277      1.0  0.82234  0.15822  0.49250  1.0000
  C   C231      1.0  0.91728  0.06009  0.31184  1.0000
  S   S60       1.0  0.76396  0.36816  0.02126  1.0000
  H   H278      1.0  0.94594  0.06370  0.31721  1.0000
  H   H279      1.0  0.84403  0.02142  0.47521  1.0000
  C   C232      1.0  0.90890  0.14368  0.48291  1.0000
  C   C233      1.0  0.79923  0.31199  0.37637  1.0000
  C   C234      1.0  0.74409  0.29401  0.34335  1.0000
  S   S61       1.0  0.75787  0.47137  0.04789  1.0000
  H   H280      1.0  0.71380  0.32971  0.40621  1.0000
  H   H281      1.0  0.86379  0.07257  0.20388  1.0000
  H   H282      1.0  0.71481  0.28743  0.34546  1.0000
  H   H283      1.0  0.85208  0.42724  0.19578  1.0000
  N   N18       1.0  0.76055  0.30328  0.38228  1.0000
  C   C235      1.0  0.74257  0.33566  0.39956  1.0000
  H   H284      1.0  0.80328  0.33189  0.35447  1.0000
  H   H285      1.0  0.75575  0.34674  0.42700  1.0000
  C   C236      1.0  0.75723  0.27434  0.40882  1.0000
  Fe  Fe32      1.0  0.73216  0.41857  0.02336  1.0000
  H   H286      1.0  0.94710  0.25308  0.38874  1.0000
  C   C237      1.0  0.00379  0.19385  0.26478  1.0000
  C   C238      1.0  0.85083  0.39942  0.18542  1.0000
  C   C239      1.0  0.90146  0.02583  0.31096  1.0000
  C   C240      1.0  0.86554  0.33913  0.19870  1.0000
  H   H287      1.0  0.80663  0.46678  0.11701  1.0000
  C   C241      1.0  0.00632  0.23063  0.27441  1.0000
  H   H288      1.0  0.86429  0.05526  0.37942  1.0000
  C   C242      1.0  0.90558  0.09994  0.42759  1.0000
  C   C243      1.0  0.91364  0.13461  0.44335  1.0000
  H   H289      1.0  0.93846  0.01988  0.43710  1.0000
  C   C244      1.0  0.99980  0.22996  0.39031  1.0000
  H   H290      1.0  0.92297  0.15473  0.42465  1.0000
  C   C245      1.0  0.75193  0.21991  0.46108  1.0000
  C   C246      1.0  0.90738  0.03751  0.21301  1.0000
  C   C247      1.0  0.98500  0.22155  0.46836  1.0000
  H   H291      1.0  0.81830  0.02497  0.19525  1.0000
  C   C248      1.0  0.73922  0.21353  0.42310  1.0000
  H   H292      1.0  0.00407  0.23388  0.35990  1.0000
  S   S62       1.0  0.68712  0.39451  0.05680  1.0000
  H   H293      1.0  0.92693  0.03624  0.39144  1.0000
  H   H294      1.0  0.88983  0.00814  0.48466  1.0000
  H   H295      1.0  0.91432  0.17081  0.49490  1.0000
  H   H296      1.0  0.75064  0.19898  0.48088  1.0000
  Fe  Fe33      1.0  0.88289  0.17329  0.70714  1.0000
  S   S63       1.0  0.82639  0.17846  0.68555  1.0000
  S   S64       1.0  0.90381  0.12596  0.73565  1.0000
  Fe  Fe34      1.0  0.90571  0.24589  0.68395  1.0000
  S   S65       1.0  0.85076  0.25672  0.66012  1.0000
  S   S66       1.0  0.94658  0.29088  0.68476  1.0000
  Fe  Fe35      1.0  0.82984  0.23414  0.71448  1.0000
  S   S67       1.0  0.78154  0.25767  0.74750  1.0000
  Fe  Fe36      1.0  0.85266  0.20039  0.63356  1.0000
  S   S68       1.0  0.83416  0.17749  0.57382  1.0000
  S   S69       1.0  0.88466  0.22740  0.73998  1.0000
  S   S70       1.0  0.90927  0.19125  0.65338  1.0000
  Fe  Fe37      1.0  0.73586  0.35226  0.96438  1.0000
  S   S71       1.0  0.77716  0.32448  0.92365  1.0000
  H   H297      1.0  0.80365  0.10445  0.56249  1.0000
  H   H298      1.0  0.72943  0.20076  0.80641  1.0000
  H   H299      1.0  0.89122  0.12591  0.53741  1.0000
  C   C249      1.0  0.75322  0.22368  0.89956  1.0000
  H   H300      1.0  0.99330  0.22802  0.68517  1.0000
  H   H301      1.0  0.76391  0.18090  0.75523  1.0000
  C   C250      1.0  0.78099  0.27674  0.79635  1.0000
  C   C251      1.0  0.81002  0.27356  0.82167  1.0000
  C   C252      1.0  0.80814  0.28827  0.86046  1.0000
  C   C253      1.0  0.77739  0.30645  0.87444  1.0000
  C   C254      1.0  0.74843  0.30984  0.84909  1.0000
  C   C255      1.0  0.75023  0.29493  0.81027  1.0000
  H   H302      1.0  0.83378  0.25952  0.81161  1.0000
  H   H303      1.0  0.83064  0.28550  0.87990  1.0000
  H   H304      1.0  0.72467  0.32384  0.85940  1.0000
  H   H305      1.0  0.72761  0.29751  0.79092  1.0000
  H   H306      1.0  0.96005  0.06924  0.72600  1.0000
  C   C256      1.0  0.85812  0.23531  0.53591  1.0000
  C   C257      1.0  0.84278  0.20098  0.53248  1.0000
  H   H307      1.0  0.97778  0.12186  0.76002  1.0000
  C   C258      1.0  0.81846  0.08184  0.57124  1.0000
  H   H308      1.0  0.86474  0.24803  0.56436  1.0000
  H   H309      1.0  0.84923  0.11334  0.61466  1.0000
  C   C259      1.0  0.79151  0.11714  0.81193  1.0000
  H   H310      1.0  0.82390  0.19584  0.78331  1.0000
  C   C260      1.0  0.88724  0.05744  0.75146  1.0000
  C   C261      1.0  0.87661  0.08694  0.73226  1.0000
  C   C262      1.0  0.84462  0.08486  0.71062  1.0000
  H   H311      1.0  0.91150  0.05898  0.76901  1.0000
  H   H312      1.0  0.83645  0.10702  0.69510  1.0000
  H   H313      1.0  0.83562  0.15153  0.76474  1.0000
  C   C263      1.0  0.83407  0.02403  0.72733  1.0000
  C   C264      1.0  0.82317  0.05363  0.70857  1.0000
  H   H314      1.0  0.79838  0.05215  0.69184  1.0000
  N   N19       1.0  0.88112  0.34685  0.77140  1.0000
  C   C265      1.0  0.89798  0.37594  0.75073  1.0000
  C   C266      1.0  0.91061  0.32600  0.78719  1.0000
  C   C267      1.0  0.86091  0.32254  0.74270  1.0000
  C   C268      1.0  0.85626  0.36215  0.80163  1.0000
  C   C269      1.0  0.86234  0.36009  0.84212  1.0000
  C   C270      1.0  0.82491  0.38015  0.79093  1.0000
  C   C271      1.0  0.83795  0.37436  0.86978  1.0000
  C   C272      1.0  0.80055  0.39399  0.81886  1.0000
  C   C273      1.0  0.80698  0.39092  0.85819  1.0000
  H   H315      1.0  0.91299  0.39522  0.77134  1.0000
  H   H316      1.0  0.91741  0.36531  0.72816  1.0000
  H   H317      1.0  0.87767  0.39110  0.73549  1.0000
  H   H318      1.0  0.89961  0.30346  0.80290  1.0000
  H   H319      1.0  0.92872  0.34303  0.80699  1.0000
  H   H320      1.0  0.92823  0.31404  0.76365  1.0000
  H   H321      1.0  0.87916  0.30969  0.72046  1.0000
  H   H322      1.0  0.84663  0.30109  0.75723  1.0000
  H   H323      1.0  0.84040  0.33627  0.72624  1.0000
  H   H324      1.0  0.88523  0.34692  0.85331  1.0000
  H   H325      1.0  0.81870  0.38327  0.76082  1.0000
  H   H326      1.0  0.84222  0.37133  0.90046  1.0000
  H   H327      1.0  0.78757  0.40069  0.87982  1.0000
  H   H328      1.0  0.77554  0.13585  0.74208  1.0000
  H   H329      1.0  0.79089  0.04397  0.53107  1.0000
  C   C274      1.0  0.86321  0.05784  0.61259  1.0000
  H   H330      1.0  0.87582  0.28028  0.50540  1.0000
  H   H331      1.0  0.00220  0.34235  0.69799  1.0000
  H   H332      1.0  0.71112  0.23920  0.86218  1.0000
  N   N20       1.0  0.78872  0.15450  0.80150  1.0000
  H   H333      1.0  0.81187  0.11424  0.83503  1.0000
  H   H334      1.0  0.80002  0.09888  0.78664  1.0000
  C   C275      1.0  0.73393  0.22197  0.86479  1.0000
  H   H335      1.0  0.77622  0.40666  0.81000  1.0000
  C   C276      1.0  0.84427  0.08681  0.60065  1.0000
  C   C277      1.0  0.82494  0.16758  0.79050  1.0000
  C   C278      1.0  0.99328  0.28551  0.69112  1.0000
  H   H336      1.0  0.84522  0.16614  0.81402  1.0000
  H   H337      1.0  0.88214  0.06360  0.63619  1.0000
  H   H338      1.0  0.96827  0.11556  0.68928  1.0000
  C   C279      1.0  0.76520  0.15401  0.76651  1.0000
  H   H339      1.0  0.76513  0.10692  0.82230  1.0000
  H   H340      1.0  0.73733  0.14456  0.77275  1.0000
  C   C280      1.0  0.77544  0.17759  0.83509  1.0000
  C   C281      1.0  0.74484  0.19954  0.83283  1.0000
  C   C282      1.0  0.98244  0.01777  0.72693  1.0000
  C   C283      1.0  0.78331  0.20260  0.90275  1.0000
  S   S72       1.0  0.70739  0.40491  0.96449  1.0000
  H   H341      1.0  0.81822  0.16452  0.87483  1.0000
  H   H342      1.0  0.79855  0.20453  0.92972  1.0000
  C   C284      1.0  0.79430  0.17981  0.87112  1.0000
  C   C285      1.0  0.81147  0.04782  0.55348  1.0000
  H   H343      1.0  0.72064  0.49085  0.97806  1.0000
  S   S73       1.0  0.68977  0.32458  0.99308  1.0000
  H   H344      1.0  0.87760  0.06523  0.51152  1.0000
  C   C286      1.0  0.86632  0.02582  0.74849  1.0000
  C   C287      1.0  0.98478  0.05460  0.72396  1.0000
  H   H345      1.0  0.74540  0.24218  0.92373  1.0000
  C   C288      1.0  0.01458  0.31652  0.69715  1.0000
  H   H346      1.0  0.99887  0.15138  0.68239  1.0000
  C   C289      1.0  0.99730  0.12210  0.68516  1.0000
  C   C290      1.0  0.83044  0.01868  0.56494  1.0000
  C   C291      1.0  0.85687  0.02277  0.59494  1.0000
  C   C292      1.0  0.00646  0.12910  0.75468  1.0000
  H   H347      1.0  0.00784  0.15872  0.75498  1.0000
  C   C293      1.0  0.00967  0.25209  0.69001  1.0000
  H   H348      1.0  0.89082  0.01142  0.66557  1.0000
  H   H349      1.0  0.77851  0.25733  0.50249  1.0000
  H   H350      1.0  0.00585  0.10835  0.65699  1.0000
  H   H351      1.0  0.92433  0.01907  0.62863  1.0000
  C   C294      1.0  0.89586  0.11825  0.50682  1.0000
  C   C295      1.0  0.86446  0.25347  0.50248  1.0000
  Fe  Fe38      1.0  0.91341  0.86008  0.34370  1.0000
  S   S74       1.0  0.85521  0.85004  0.35922  1.0000
  S   S75       1.0  0.94704  0.81075  0.34216  1.0000
  Fe  Fe39      1.0  0.90102  0.93748  0.33223  1.0000
  S   S76       1.0  0.84243  0.93338  0.34685  1.0000
  C   C296      1.0  0.80603  0.95588  0.16122  1.0000
  Fe  Fe40      1.0  0.86052  0.90200  0.39595  1.0000
  S   S77       1.0  0.83465  0.91431  0.45528  1.0000
  Fe  Fe41      1.0  0.84245  0.88178  0.30867  1.0000
  S   S78       1.0  0.79529  0.87053  0.26633  1.0000
  S   S79       1.0  0.91949  0.90977  0.38399  1.0000
  S   S80       1.0  0.90020  0.88824  0.29055  1.0000
  C   C297      1.0  0.89160  0.97465  0.21176  1.0000
  Fe  Fe42      1.0  0.74483  0.73837  0.07431  1.0000
  S   S81       1.0  0.78136  0.74751  0.12811  1.0000
  H   H352      1.0  0.78669  0.93300  0.15519  1.0000
  H   H353      1.0  0.77142  0.70711  0.20660  1.0000
  S   S82       1.0  0.92852  0.98931  0.31933  1.0000
  H   H354      1.0  0.85222  0.99501  0.30239  1.0000
  H   H355      1.0  0.85462  0.90976  0.22248  1.0000
  C   C298      1.0  0.73262  0.58043  0.00270  1.0000
  C   C299      1.0  0.75733  0.54496  0.05211  1.0000
  C   C300      1.0  0.74679  0.51307  0.03050  1.0000
  C   C301      1.0  0.88844  0.88855  0.50064  1.0000
  S   S83       1.0  0.72299  0.78083  0.03927  1.0000
  N   N21       1.0  0.82713  0.95258  0.19736  1.0000
  C   C302      1.0  0.84223  0.91618  0.19456  1.0000
  H   H356      1.0  0.00558  0.86584  0.34179  1.0000
  C   C303      1.0  0.79270  0.83836  0.22563  1.0000
  C   C304      1.0  0.82246  0.81837  0.21320  1.0000
  C   C305      1.0  0.81886  0.79158  0.18231  1.0000
  C   C306      1.0  0.78572  0.78509  0.16273  1.0000
  C   C307      1.0  0.75643  0.80644  0.17382  1.0000
  C   C308      1.0  0.75991  0.83282  0.20522  1.0000
  H   H357      1.0  0.84799  0.82319  0.22792  1.0000
  H   H358      1.0  0.84167  0.77528  0.17392  1.0000
  H   H359      1.0  0.73071  0.80161  0.15930  1.0000
  H   H360      1.0  0.73675  0.84834  0.21436  1.0000
  H   H361      1.0  0.81682  0.95176  0.25860  1.0000
  H   H362      1.0  0.75837  0.60277  0.05533  1.0000
  H   H363      1.0  0.78027  0.93485  0.22807  1.0000
  H   H364      1.0  0.90548  0.88847  0.47521  1.0000
  H   H365      1.0  0.82420  0.95677  0.13561  1.0000
  N   N22       1.0  0.87511  0.74210  0.27997  1.0000
  C   C309      1.0  0.89339  0.77392  0.26584  1.0000
  C   C310      1.0  0.88084  0.74248  0.32268  1.0000
  C   C311      1.0  0.89302  0.71002  0.26166  1.0000
  C   C312      1.0  0.83610  0.74311  0.27072  1.0000
  C   C313      1.0  0.81383  0.76881  0.29059  1.0000
  C   C314      1.0  0.81963  0.72055  0.24029  1.0000
  C   C315      1.0  0.77732  0.77132  0.28123  1.0000
  C   C316      1.0  0.78311  0.72346  0.23100  1.0000
  C   C317      1.0  0.76202  0.74874  0.25143  1.0000
  H   H366      1.0  0.88332  0.79910  0.28079  1.0000
  H   H367      1.0  0.92304  0.77395  0.27120  1.0000
  H   H368      1.0  0.88915  0.77514  0.23405  1.0000
  H   H369      1.0  0.86467  0.72101  0.33523  1.0000
  H   H370      1.0  0.87380  0.76833  0.33845  1.0000
  H   H371      1.0  0.90976  0.73908  0.33017  1.0000
  H   H372      1.0  0.89367  0.71002  0.22940  1.0000
  H   H373      1.0  0.92176  0.70897  0.27097  1.0000
  H   H374      1.0  0.87924  0.68512  0.26972  1.0000
  H   H375      1.0  0.82465  0.78817  0.31253  1.0000
  H   H376      1.0  0.83446  0.70120  0.22231  1.0000
  H   H377      1.0  0.76125  0.79204  0.29596  1.0000
  H   H378      1.0  0.82089  0.89524  0.18819  1.0000
  H   H379      1.0  0.73411  0.75174  0.24312  1.0000
  H   H380      1.0  0.99288  0.75195  0.33901  1.0000
  C   C318      1.0  0.80227  0.95556  0.23102  1.0000
  H   H381      1.0  0.86261  0.91280  0.17097  1.0000
  C   C319      1.0  0.99464  0.80924  0.34050  1.0000
  S   S84       1.0  0.77533  0.71239  0.02343  1.0000
  S   S85       1.0  0.69562  0.70162  0.06411  1.0000
  C   C320      1.0  0.75000  0.57849  0.03850  1.0000
  C   C321      1.0  0.85252  0.89881  0.49835  1.0000
  H   H382      1.0  0.94468  0.99692  0.22501  1.0000
  H   H383      1.0  0.77128  0.54379  0.07950  1.0000
  C   C322      1.0  0.91725  0.00245  0.21668  1.0000
  H   H384      1.0  0.78936  0.98200  0.23466  1.0000
  C   C323      1.0  0.85510  0.98129  0.20244  1.0000
  Fe  Fe43      1.0  0.72540  0.67854  0.01112  1.0000
  H   H385      1.0  0.90096  0.94835  0.21638  1.0000
  H   H386      1.0  0.86347  0.98502  0.44704  1.0000
  H   H387      1.0  0.91104  0.99336  0.40230  1.0000
  H   H388      1.0  0.78929  0.98006  0.16285  1.0000
  C   C324      1.0  0.01003  0.77555  0.33890  1.0000
  H   H389      1.0  0.01335  0.82063  0.48275  1.0000
  Fe  Fe44      1.0  0.87755  0.88018  0.67513  1.0000
  S   S86       1.0  0.89510  0.93248  0.70598  1.0000
  S   S87       1.0  0.90101  0.86937  0.61417  1.0000
  Fe  Fe45      1.0  0.83652  0.85798  0.74797  1.0000
  S   S88       1.0  0.85098  0.90919  0.78315  1.0000
  S   S89       1.0  0.79962  0.81519  0.77122  1.0000
  Fe  Fe46      1.0  0.83869  0.93520  0.72853  1.0000
  S   S90       1.0  0.80711  0.98511  0.72386  1.0000
  Fe  Fe47      1.0  0.90619  0.90152  0.75705  1.0000
  S   S91       1.0  0.95758  0.91381  0.79091  1.0000
  S   S92       1.0  0.81990  0.88483  0.69451  1.0000
  S   S93       1.0  0.89289  0.84841  0.72529  1.0000
  C   C325      1.0  0.90336  0.00009  0.63805  1.0000
  C   C326      1.0  0.86154  0.74697  0.84411  1.0000
  H   H390      1.0  0.82371  0.99269  0.55067  1.0000
  C   C327      1.0  0.01362  0.83904  0.58065  1.0000
  S   S94       1.0  0.78607  0.78700  0.95085  1.0000
  C   C328      1.0  0.72217  0.54852  0.98114  1.0000
  C   C329      1.0  0.85222  0.72927  0.87690  1.0000
  H   H391      1.0  0.80293  0.90658  0.53020  1.0000
  H   H392      1.0  0.91785  0.97590  0.64550  1.0000
  C   C330      1.0  0.77790  0.68467  0.91566  1.0000
  H   H393      1.0  0.71823  0.82967  0.97390  1.0000
  C   C331      1.0  0.84910  0.96618  0.62255  1.0000
  C   C332      1.0  0.82202  0.70748  0.80440  1.0000
  H   H394      1.0  0.96564  0.88839  0.71048  1.0000
  C   C333      1.0  0.75070  0.88129  0.87854  1.0000
  H   H395      1.0  0.76088  0.67388  0.89075  1.0000
  C   C334      1.0  0.00043  0.82933  0.54341  1.0000
  H   H396      1.0  0.80965  0.69990  0.77637  1.0000
  H   H397      1.0  0.79305  0.66781  0.83278  1.0000
  H   H398      1.0  0.87541  0.96176  0.55058  1.0000
  C   C335      1.0  0.79576  0.80792  0.82127  1.0000
  C   C336      1.0  0.81783  0.82616  0.84950  1.0000
  C   C337      1.0  0.81434  0.81929  0.88888  1.0000
  C   C338      1.0  0.78878  0.79421  0.90060  1.0000
  C   C339      1.0  0.76677  0.77581  0.87232  1.0000
  C   C340      1.0  0.77023  0.78274  0.83291  1.0000
  H   H399      1.0  0.83772  0.84545  0.84096  1.0000
  H   H400      1.0  0.83162  0.83357  0.91042  1.0000
  H   H401      1.0  0.74733  0.75606  0.88046  1.0000
  H   H402      1.0  0.75324  0.76835  0.81121  1.0000
  C   C341      1.0  0.90261  0.87905  0.53618  1.0000
  C   C342      1.0  0.88104  0.87936  0.56969  1.0000
  C   C343      1.0  0.84488  0.88882  0.56717  1.0000
  H   H403      1.0  0.93062  0.87197  0.53786  1.0000
  H   H404      1.0  0.82778  0.88844  0.59253  1.0000
  H   H405      1.0  0.75649  0.88508  0.81693  1.0000
  C   C344      1.0  0.89448  0.97294  0.57348  1.0000
  H   H406      1.0  0.80720  0.62888  0.87641  1.0000
  C   C345      1.0  0.73058  0.86698  0.90805  1.0000
  H   H407      1.0  0.82869  0.67720  0.96932  1.0000
  H   H408      1.0  0.82824  0.95682  0.60076  1.0000
  C   C346      1.0  0.83083  0.89891  0.53177  1.0000
  H   H409      1.0  0.91001  0.94976  0.58219  1.0000
  H   H410      1.0  0.95653  0.00477  0.73152  1.0000
  H   H411      1.0  0.85274  0.75092  0.78300  1.0000
  C   C347      1.0  0.73993  0.87523  0.83985  1.0000
  H   H412      1.0  0.76885  0.67059  0.94123  1.0000
  H   H413      1.0  0.70563  0.78109  0.92509  1.0000
  S   S95       1.0  0.72526  0.62163  0.98231  1.0000
  C   C348      1.0  0.81268  0.68940  0.83692  1.0000
  C   C349      1.0  0.84646  0.73615  0.80799  1.0000
  N   N23       1.0  0.81697  0.68022  0.90826  1.0000
  C   C350      1.0  0.82398  0.64160  0.90059  1.0000
  H   H414      1.0  0.77569  0.89594  0.88547  1.0000
  H   H415      1.0  0.86626  0.69055  0.94101  1.0000
  S   S96       1.0  0.70273  0.71737  0.97143  1.0000
  C   C351      1.0  0.69849  0.84640  0.89950  1.0000
  H   H416      1.0  0.83462  0.97884  0.64810  1.0000
  H   H417      1.0  0.81734  0.62661  0.92636  1.0000
  H   H418      1.0  0.99522  0.84030  0.60520  1.0000
  H   H419      1.0  0.85282  0.63712  0.89313  1.0000
  H   H420      1.0  0.91376  0.99129  0.56004  1.0000
  H   H421      1.0  0.86388  0.74010  0.90414  1.0000
  N   N24       1.0  0.87581  0.99129  0.60722  1.0000
  Fe  Fe48      1.0  0.75044  0.75284  0.98780  1.0000
  C   C352      1.0  0.82765  0.69959  0.87421  1.0000
  H   H422      1.0  0.83032  0.72122  0.95382  1.0000
  H   H423      1.0  0.86209  0.94181  0.63173  1.0000
  H   H424      1.0  0.77155  0.71331  0.92165  1.0000
  H   H425      1.0  0.74141  0.87154  0.93712  1.0000
  C   C353      1.0  0.68819  0.84098  0.85973  1.0000
  C   C354      1.0  0.99600  0.90355  0.76268  1.0000
  C   C355      1.0  0.83656  0.69292  0.94455  1.0000
  C   C356      1.0  0.99219  0.89174  0.72342  1.0000
  H   H426      1.0  0.87954  0.77015  0.84691  1.0000
  H   H427      1.0  0.87469  0.00308  0.76333  1.0000
  H   H428      1.0  0.97199  0.82281  0.53915  1.0000
  H   H429      1.0  0.70879  0.54967  0.95340  1.0000
  C   C357      1.0  0.70877  0.85510  0.83045  1.0000
  C   C358      1.0  0.72884  0.51507  0.99509  1.0000
  H   H430      1.0  0.70119  0.84965  0.80014  1.0000
  H   H431      1.0  0.01166  0.96901  0.72744  1.0000
  C   C359      1.0  0.01348  0.99753  0.72481  1.0000
  C   C360      1.0  0.69037  0.83940  0.96997  1.0000
  H   H432      1.0  0.69020  0.86867  0.97757  1.0000
