data_image0
_chemical_formula_structural       C2FeS2C2HFeCFeHSFeS2FeS2FeSFeS3HC5H4C2HCH7CHNH3CSH2C6H4CH2CNC9H16CHCH3CNCHSC2H9SCHC4H2C2NHCH4CHC2SC3HCH3NC4SCH4FeHCHCHCFeSC3H2CSHNHCH4FeS2FeS2FeS2FeSFeS3FeHSH3CH2C2H2C2H2C2H4CHC3HCHCHC8H6CH2NHCH2FeHC2HCNH3C2H3CHNC9H14CHSCHCH2NC3H3CHCHC4HC2HC2HC2HC3H5CHCNH2C3FeS2FeS2FeSFeSCSFeS2FeSHFeSFeS3C6H5CHCH3C3H3CHCHC3H2CH6CH2CH2CHSH3CH7CNH2CH6NC9H2CH4SHC3H3C4H2CH2CH2NHFeS2FeSHFeSFeS3FeSHFeS2FeHFeS3C2H2CHC3H2C3H2C6H4CHC2HCH3C2SCH5C2HC2HCHCSCHCNC4H4NH8SC2H3CHCHC2HCH2C3H2C2H2C2H3CHSH2CH3CFeS2C3HCH2CFeCSFeS2FeS2FeSFeS3HC5HCHNH2C2HCHC3H3CHSCH3CHC10H3CNCH3SH2CHCH7CHNC9H12CHNC5H3CFeH2SH2SH2CHC2HS2HCH5SH2C2H4CHFeNH2C2H2CHC3H2CH2C2HCHFeCHCHFeS2HCH3CSFeS2FeS2FeSFeS3C3H2CH3C2H4C3NCH4C2H4C2H2C7H4NCHC3HC3H4C2H5NCH3C3HC3FeCNC9H11C3H2SNHCH2C5SHC2H8SCHC2H4SCHC2H2FeHCFeS2FeHSFeS2FeS2FeSFeS3CH3C2H2C2H2SHC2HCH2CNHC2H2C10H4SH3C2SC2HCNC3H4CH3CNCHC2H4CH6CH3C2H5C2H2CNC9H12CHCH7NHC2HCHFeC3SCH2C2HFeSCH2C2SHFe2S2FeS2FeS2FeSFeS3HCH3CFeHSH3C2H3C2H2C3H3C5HCH5SC7H4CHSCHC2HCHNC9H14C3HCH2FeCSHCH4CH3CNHCNC3HC2H3CHC2H3C3SHC2HC3H6C2FeS2FeSHFeSFeS3FeS2FeSCFeSFeHS2C6H4CH5CHC6H3C2HCSHCH3C3H2CH2CHCH3CH2CHCH3SNC2H3CH4CHCH4C2HCHC2HCNH2C2HSHCHCH3C2FeS2FeS2FeHFeS3FeSCFeS2FeSFeHS2CHC2HC2H3C3H3C6H5C3HCH6CHCHCSCHCHC2HC3H9CH2N2H3CH2C2NHC3H3C2HCH5C3HCSC2NC2H3CH2C2HCH2C3HC3SHCH4CFeSHFeS2FeS2FeS2FeSFeS3CHCHNC3HCH4C2H2CHC6H4SHCH4CH2C2HC2H2CNC7FeCH13NC2HNC9H6C2H4CH2C4HSH3C6H3CH3C3H3CH2FeHCH2C2H3CHC3HC2HCH2CH4FeSHC3H2CH5FeS2FeS2FeS2FeSFeS3C3HCSHCFeHC6H3C8H5CH3CHCH3CH5CHSC3HCHCH2C2H7NC7H3CH2SNSCSH2CSC3H2NHC2H2SCHCFeH3CHC3HSH2NC
_chemical_formula_sum              "C720 Fe96 S192 H864 N48"
_cell_length_a       56.8367
_cell_length_b       56.6102
_cell_length_c       36.3203
_cell_angle_alpha    90.3096
_cell_angle_beta     89.8277
_cell_angle_gamma    87.7822

_space_group_name_H-M_alt    "P 1"
_space_group_IT_number       1

loop_
  _space_group_symop_operation_xyz
  'x, y, z'

loop_
  _atom_site_type_symbol
  _atom_site_label
  _atom_site_symmetry_multiplicity
  _atom_site_fract_x
  _atom_site_fract_y
  _atom_site_fract_z
  _atom_site_occupancy
  C   C1        1.0  0.48208  0.18805  0.31603  1.0000
  C   C2        1.0  0.23323  0.30456  0.14173  1.0000
  Fe  Fe1       1.0  0.28848  0.12362  0.05034  1.0000
  S   S1        1.0  0.29297  0.14279  0.10587  1.0000
  S   S2        1.0  0.25841  0.09899  0.04520  1.0000
  C   C3        1.0  0.46745  0.19095  0.21525  1.0000
  C   C4        1.0  0.14778  0.30921  0.14896  1.0000
  H   H1        1.0  0.30449  0.02699  0.09421  1.0000
  Fe  Fe2       1.0  0.28118  0.07730  0.00528  1.0000
  C   C5        1.0  0.29676  0.09106  0.17518  1.0000
  Fe  Fe3       1.0  0.11386  0.30457  0.04830  1.0000
  H   H2        1.0  0.30375  0.09188  0.09972  1.0000
  S   S3        1.0  0.10546  0.26605  0.04855  1.0000
  Fe  Fe4       1.0  0.36207  0.17894  0.28939  1.0000
  S   S4        1.0  0.36521  0.21667  0.27234  1.0000
  S   S5        1.0  0.36253  0.15038  0.24396  1.0000
  Fe  Fe5       1.0  0.36425  0.19295  0.37316  1.0000
  S   S6        1.0  0.36713  0.23146  0.36020  1.0000
  S   S7        1.0  0.36446  0.17862  0.43216  1.0000
  Fe  Fe6       1.0  0.33925  0.22524  0.31761  1.0000
  S   S8        1.0  0.30356  0.24318  0.30760  1.0000
  Fe  Fe7       1.0  0.39303  0.21858  0.31640  1.0000
  S   S9        1.0  0.42750  0.23648  0.30492  1.0000
  S   S10       1.0  0.33475  0.18722  0.33303  1.0000
  S   S11       1.0  0.39152  0.18034  0.33122  1.0000
  H   H3        1.0  0.30857  0.06632  0.07121  1.0000
  C   C6        1.0  0.30577  0.06827  0.16460  1.0000
  C   C7        1.0  0.31286  0.29029  0.32038  1.0000
  C   C8        1.0  0.29598  0.27329  0.31494  1.0000
  C   C9        1.0  0.27207  0.28026  0.31475  1.0000
  C   C10       1.0  0.40674  0.17717  0.17849  1.0000
  H   H4        1.0  0.35587  0.22868  0.45205  1.0000
  H   H5        1.0  0.33138  0.28507  0.32055  1.0000
  H   H6        1.0  0.25893  0.26714  0.31097  1.0000
  H   H7        1.0  0.05420  0.28426  0.07312  1.0000
  C   C11       1.0  0.45942  0.19898  0.31784  1.0000
  C   C12       1.0  0.45607  0.22286  0.30878  1.0000
  H   H8        1.0  0.32492  0.23086  0.40943  1.0000
  C   C13       1.0  0.47586  0.23596  0.30006  1.0000
  H   H9        1.0  0.44446  0.18873  0.32513  1.0000
  H   H10       1.0  0.26317  0.21609  0.40809  1.0000
  H   H11       1.0  0.40061  0.18140  0.24908  1.0000
  H   H12       1.0  0.32910  0.03252  0.12259  1.0000
  H   H13       1.0  0.47350  0.25446  0.29310  1.0000
  H   H14       1.0  0.22084  0.29570  0.08737  1.0000
  H   H15       1.0  0.29264  0.20797  0.39442  1.0000
  C   C14       1.0  0.35974  0.19381  0.47486  1.0000
  H   H16       1.0  0.27510  0.22393  0.47161  1.0000
  N   N1        1.0  0.04030  0.31314  0.10666  1.0000
  H   H17       1.0  0.21472  0.22009  0.00601  1.0000
  H   H18       1.0  0.26561  0.04880  0.14350  1.0000
  H   H19       1.0  0.27015  0.05079  0.09453  1.0000
  C   C15       1.0  0.27842  0.28495  0.41266  1.0000
  S   S12       1.0  0.04063  0.26254  0.00315  1.0000
  H   H20       1.0  0.28574  0.10162  0.15689  1.0000
  H   H21       1.0  0.30480  0.21552  0.46080  1.0000
  C   C16       1.0  0.31372  0.14561  0.14239  1.0000
  C   C17       1.0  0.33448  0.13155  0.14478  1.0000
  C   C18       1.0  0.34932  0.13339  0.17580  1.0000
  C   C19       1.0  0.34387  0.14957  0.20452  1.0000
  C   C20       1.0  0.32346  0.16406  0.20160  1.0000
  C   C21       1.0  0.30845  0.16195  0.17092  1.0000
  H   H22       1.0  0.33888  0.11894  0.12316  1.0000
  H   H23       1.0  0.36498  0.12201  0.17775  1.0000
  H   H24       1.0  0.31896  0.17657  0.22338  1.0000
  H   H25       1.0  0.29248  0.17293  0.16952  1.0000
  C   C22       1.0  0.23753  0.29452  0.22411  1.0000
  H   H26       1.0  0.42968  0.18740  0.26262  1.0000
  H   H27       1.0  0.27653  0.23098  0.37043  1.0000
  C   C23       1.0  0.31305  0.24696  0.41065  1.0000
  N   N2        1.0  0.18237  0.22221  0.11394  1.0000
  C   C24       1.0  0.15812  0.21963  0.09962  1.0000
  C   C25       1.0  0.18042  0.22687  0.15409  1.0000
  C   C26       1.0  0.19227  0.24313  0.09593  1.0000
  C   C27       1.0  0.19815  0.20113  0.10725  1.0000
  C   C28       1.0  0.22210  0.20113  0.11837  1.0000
  C   C29       1.0  0.19051  0.18026  0.08963  1.0000
  C   C30       1.0  0.23747  0.18164  0.11183  1.0000
  C   C31       1.0  0.20601  0.16080  0.08358  1.0000
  C   C32       1.0  0.22943  0.16156  0.09439  1.0000
  H   H28       1.0  0.14917  0.20484  0.11318  1.0000
  H   H29       1.0  0.14681  0.23589  0.10429  1.0000
  H   H30       1.0  0.15822  0.21647  0.06936  1.0000
  H   H31       1.0  0.17358  0.21128  0.16872  1.0000
  H   H32       1.0  0.16829  0.24236  0.16020  1.0000
  H   H33       1.0  0.19763  0.23078  0.16670  1.0000
  H   H34       1.0  0.19610  0.23941  0.06634  1.0000
  H   H35       1.0  0.17987  0.25886  0.09707  1.0000
  H   H36       1.0  0.20894  0.24849  0.10880  1.0000
  H   H37       1.0  0.22923  0.21628  0.13194  1.0000
  H   H38       1.0  0.17282  0.17857  0.07948  1.0000
  H   H39       1.0  0.25581  0.18202  0.12003  1.0000
  H   H40       1.0  0.19998  0.14521  0.06941  1.0000
  H   H41       1.0  0.24147  0.14661  0.08893  1.0000
  H   H42       1.0  0.31270  0.25409  0.38222  1.0000
  H   H43       1.0  0.21470  0.27638  0.44729  1.0000
  C   C33       1.0  0.28102  0.00648  0.00834  1.0000
  H   H44       1.0  0.38825  0.18197  0.18690  1.0000
  C   C34       1.0  0.31129  0.07346  0.09941  1.0000
  H   H45       1.0  0.44284  0.15896  0.14603  1.0000
  H   H46       1.0  0.30223  0.02170  0.14258  1.0000
  H   H47       1.0  0.24653  0.30910  0.31871  1.0000
  C   C35       1.0  0.29178  0.23080  0.46085  1.0000
  N   N3        1.0  0.42408  0.18757  0.20385  1.0000
  C   C36       1.0  0.41970  0.21360  0.20399  1.0000
  H   H48       1.0  0.33061  0.07449  0.10369  1.0000
  S   S13       1.0  0.31208  0.10147  0.01262  1.0000
  C   C37       1.0  0.44895  0.18182  0.19390  1.0000
  C   C38       1.0  0.26182  0.30388  0.41283  1.0000
  H   H49       1.0  0.46377  0.20243  0.23856  1.0000
  H   H50       1.0  0.30628  0.99253  0.04758  1.0000
  H   H51       1.0  0.42987  0.22263  0.22572  1.0000
  H   H52       1.0  0.32891  0.03902  0.18435  1.0000
  H   H53       1.0  0.40089  0.21854  0.20972  1.0000
  H   H54       1.0  0.40892  0.18354  0.14981  1.0000
  H   H55       1.0  0.05376  0.27842  0.12209  1.0000
  H   H56       1.0  0.26653  0.07701  0.12119  1.0000
  H   H57       1.0  0.29619  0.11903  0.21572  1.0000
  S   S14       1.0  0.14223  0.30011  0.00556  1.0000
  C   C39       1.0  0.27244  0.26210  0.42498  1.0000
  H   H58       1.0  0.07530  0.29695  0.10291  1.0000
  C   C40       1.0  0.27460  0.05883  0.12166  1.0000
  C   C41       1.0  0.30275  0.10129  0.20881  1.0000
  C   C42       1.0  0.32103  0.05631  0.18998  1.0000
  C   C43       1.0  0.30953  0.03386  0.12185  1.0000
  H   H59       1.0  0.32143  0.25992  0.42911  1.0000
  H   H60       1.0  0.27475  0.29564  0.18001  1.0000
  C   C44       1.0  0.23893  0.30071  0.42510  1.0000
  C   C45       1.0  0.35524  0.21827  0.47682  1.0000
  N   N4        1.0  0.28912  0.24132  0.42365  1.0000
  H   H61       1.0  0.23935  0.27859  0.20623  1.0000
  C   C46       1.0  0.24901  0.25962  0.43770  1.0000
  H   H62       1.0  0.24763  0.29059  0.24966  1.0000
  H   H63       1.0  0.17216  0.29455  0.18918  1.0000
  H   H64       1.0  0.32318  0.09771  0.25827  1.0000
  H   H65       1.0  0.29563  0.28864  0.40195  1.0000
  C   C47       1.0  0.32700  0.06681  0.22351  1.0000
  H   H66       1.0  0.42347  0.15911  0.24294  1.0000
  C   C48       1.0  0.27993  0.22330  0.39820  1.0000
  C   C49       1.0  0.31801  0.08931  0.23277  1.0000
  S   S15       1.0  0.27531  0.14672  0.00401  1.0000
  C   C50       1.0  0.00139  0.29500  0.00455  1.0000
  C   C51       1.0  0.23258  0.27868  0.43778  1.0000
  C   C52       1.0  0.05649  0.29220  0.10095  1.0000
  H   H67       1.0  0.42451  0.22138  0.17705  1.0000
  C   C53       1.0  0.41936  0.17846  0.24120  1.0000
  H   H68       1.0  0.33898  0.05764  0.24224  1.0000
  H   H69       1.0  0.40802  0.15748  0.17882  1.0000
  H   H70       1.0  0.29806  0.24401  0.48104  1.0000
  N   N5        1.0  0.30044  0.05857  0.12772  1.0000
  C   C54       1.0  0.26497  0.30409  0.31930  1.0000
  C   C55       1.0  0.16104  0.30972  0.18184  1.0000
  C   C56       1.0  0.99275  0.25368  0.00448  1.0000
  C   C57       1.0  0.47935  0.16140  0.15585  1.0000
  S   S16       1.0  0.28810  0.03695  0.01745  1.0000
  C   C58       1.0  0.45561  0.16681  0.16378  1.0000
  H   H71       1.0  0.22598  0.31528  0.42441  1.0000
  H   H72       1.0  0.24307  0.24278  0.44711  1.0000
  H   H73       1.0  0.01383  0.30892  0.00398  1.0000
  H   H74       1.0  0.21860  0.29686  0.23211  1.0000
  Fe  Fe8       1.0  0.07906  0.27547  0.00334  1.0000
  H   H75       1.0  0.01924  0.26950  0.09232  1.0000
  C   C59       1.0  0.01506  0.30761  0.10453  1.0000
  H   H76       1.0  0.04096  0.31092  0.16575  1.0000
  C   C60       1.0  0.21921  0.30791  0.11042  1.0000
  H   H77       1.0  0.14865  0.29373  0.13141  1.0000
  C   C61       1.0  0.00966  0.27131  0.00416  1.0000
  Fe  Fe9       1.0  0.13277  0.26176  0.00312  1.0000
  S   S17       1.0  0.08643  0.31404  0.00534  1.0000
  C   C62       1.0  0.00725  0.28447  0.09717  1.0000
  C   C63       1.0  0.30570  0.31427  0.32479  1.0000
  C   C64       1.0  0.29297  0.98810  0.02781  1.0000
  H   H78       1.0  0.24520  0.28929  0.14212  1.0000
  H   H79       1.0  0.99865  0.23528  0.00411  1.0000
  C   C65       1.0  0.20301  0.20579  0.00108  1.0000
  S   S18       1.0  0.16803  0.24059  0.00279  1.0000
  H   H80       1.0  0.23114  0.17896  0.00163  1.0000
  N   N6        1.0  0.24586  0.31595  0.20568  1.0000
  H   H81       1.0  0.28238  0.31037  0.22113  1.0000
  C   C66       1.0  0.27116  0.31213  0.19603  1.0000
  H   H82       1.0  0.39820  0.22312  0.59556  1.0000
  H   H83       1.0  0.38272  0.14561  0.83250  1.0000
  H   H84       1.0  0.35484  0.18147  0.56697  1.0000
  H   H85       1.0  0.41997  0.24510  0.59544  1.0000
  Fe  Fe10      1.0  0.29653  0.12297  0.96542  1.0000
  S   S19       1.0  0.31852  0.14407  0.92461  1.0000
  S   S20       1.0  0.26723  0.09782  0.95558  1.0000
  Fe  Fe11      1.0  0.34001  0.19519  0.72042  1.0000
  S   S21       1.0  0.36814  0.21534  0.74817  1.0000
  S   S22       1.0  0.32014  0.16684  0.75161  1.0000
  Fe  Fe12      1.0  0.34831  0.22007  0.64516  1.0000
  S   S23       1.0  0.37667  0.24185  0.66954  1.0000
  S   S24       1.0  0.34046  0.23061  0.58541  1.0000
  Fe  Fe13      1.0  0.38971  0.20845  0.69689  1.0000
  S   S25       1.0  0.42627  0.19066  0.69249  1.0000
  Fe  Fe14      1.0  0.35217  0.24665  0.71791  1.0000
  S   S26       1.0  0.34835  0.28154  0.74809  1.0000
  S   S27       1.0  0.36243  0.18620  0.67023  1.0000
  S   S28       1.0  0.32281  0.22709  0.69249  1.0000
  Fe  Fe15      1.0  0.11447  0.30586  0.96245  1.0000
  H   H86       1.0  0.43563  0.20256  0.51930  1.0000
  S   S29       1.0  0.10598  0.26750  0.95778  1.0000
  H   H87       1.0  0.25379  0.31100  0.63120  1.0000
  H   H88       1.0  0.44754  0.17626  0.76963  1.0000
  H   H89       1.0  0.25899  0.28126  0.61661  1.0000
  C   C67       1.0  0.34948  0.21613  0.54374  1.0000
  H   H90       1.0  0.05790  0.28138  0.88675  1.0000
  H   H91       1.0  0.29651  0.26637  0.59567  1.0000
  C   C68       1.0  0.30495  0.28054  0.61174  1.0000
  C   C69       1.0  0.40494  0.21317  0.83254  1.0000
  H   H92       1.0  0.45799  0.21513  0.78980  1.0000
  H   H93       1.0  0.42922  0.14747  0.73977  1.0000
  C   C70       1.0  0.17866  0.21076  0.99778  1.0000
  C   C71       1.0  0.14858  0.30459  0.82052  1.0000
  H   H94       1.0  0.41858  0.12082  0.75803  1.0000
  H   H95       1.0  0.19094  0.27018  0.93514  1.0000
  C   C72       1.0  0.30308  0.29962  0.73064  1.0000
  C   C73       1.0  0.32446  0.30252  0.74919  1.0000
  H   H96       1.0  0.42007  0.22262  0.63070  1.0000
  H   H97       1.0  0.47355  0.17315  0.67985  1.0000
  H   H98       1.0  0.40832  0.18256  0.58424  1.0000
  H   H99       1.0  0.30046  0.28356  0.71520  1.0000
  C   C74       1.0  0.06043  0.29572  0.90728  1.0000
  H   H100      1.0  0.34573  0.24809  0.51191  1.0000
  C   C75       1.0  0.46672  0.23014  0.61045  1.0000
  C   C76       1.0  0.45364  0.20427  0.69809  1.0000
  C   C77       1.0  0.45515  0.22745  0.71111  1.0000
  H   H101      1.0  0.38159  0.18483  0.83040  1.0000
  C   C78       1.0  0.16379  0.19205  0.99155  1.0000
  H   H102      1.0  0.43924  0.23777  0.71762  1.0000
  C   C79       1.0  0.23027  0.31348  0.79663  1.0000
  H   H103      1.0  0.47049  0.18822  0.54237  1.0000
  C   C80       1.0  0.01127  0.28776  0.91191  1.0000
  C   C81       1.0  0.13818  0.30637  0.85588  1.0000
  C   C82       1.0  0.31836  0.15004  0.87638  1.0000
  C   C83       1.0  0.30710  0.13577  0.85081  1.0000
  C   C84       1.0  0.30778  0.14119  0.81284  1.0000
  C   C85       1.0  0.31966  0.16092  0.79987  1.0000
  C   C86       1.0  0.33074  0.17527  0.82549  1.0000
  C   C87       1.0  0.33026  0.16974  0.86337  1.0000
  H   H104      1.0  0.29818  0.12037  0.86020  1.0000
  H   H105      1.0  0.29916  0.12992  0.79333  1.0000
  H   H106      1.0  0.33952  0.19076  0.81615  1.0000
  H   H107      1.0  0.33897  0.18097  0.88284  1.0000
  H   H108      1.0  0.15207  0.28734  0.80831  1.0000
  H   H109      1.0  0.27754  0.29671  0.55877  1.0000
  C   C88       1.0  0.45828  0.21409  0.58368  1.0000
  H   H110      1.0  0.39487  0.11988  0.81068  1.0000
  H   H111      1.0  0.39303  0.22412  0.84935  1.0000
  N   N7        1.0  0.40591  0.15251  0.78648  1.0000
  H   H112      1.0  0.43295  0.18123  0.61517  1.0000
  C   C89       1.0  0.43522  0.18557  0.78774  1.0000
  H   H113      1.0  0.24056  0.29642  0.79621  1.0000
  H   H114      1.0  0.24552  0.28118  0.85643  1.0000
  Fe  Fe16      1.0  0.24689  0.12107  0.99660  1.0000
  H   H115      1.0  0.37884  0.13835  0.75193  1.0000
  C   C90       1.0  0.17326  0.16867  0.98858  1.0000
  C   C91       1.0  0.47449  0.19108  0.69001  1.0000
  H   H116      1.0  0.26980  0.29075  0.66058  1.0000
  C   C92       1.0  0.38536  0.15557  0.76174  1.0000
  N   N8        1.0  0.28976  0.30248  0.61422  1.0000
  H   H117      1.0  0.13379  0.29056  0.87056  1.0000
  H   H118      1.0  0.38990  0.16604  0.73703  1.0000
  H   H119      1.0  0.22759  0.25653  0.90311  1.0000
  C   C93       1.0  0.42659  0.21517  0.53867  1.0000
  C   C94       1.0  0.42752  0.18568  0.58649  1.0000
  H   H120      1.0  0.43674  0.17277  0.56782  1.0000
  H   H121      1.0  0.36359  0.16188  0.50671  1.0000
  H   H122      1.0  0.40734  0.21356  0.53371  1.0000
  C   C95       1.0  0.39896  0.13828  0.81872  1.0000
  H   H123      1.0  0.43128  0.23335  0.53058  1.0000
  N   N9        1.0  0.23490  0.16970  0.88532  1.0000
  C   C96       1.0  0.20999  0.17069  0.89802  1.0000
  C   C97       1.0  0.23895  0.14699  0.86523  1.0000
  C   C98       1.0  0.25010  0.16950  0.91845  1.0000
  C   C99       1.0  0.24090  0.18968  0.86128  1.0000
  C   C100      1.0  0.22448  0.20836  0.85212  1.0000
  C   C101      1.0  0.26383  0.19078  0.84596  1.0000
  C   C102      1.0  0.23066  0.22650  0.82832  1.0000
  C   C103      1.0  0.26980  0.20889  0.82209  1.0000
  C   C104      1.0  0.25323  0.22669  0.81317  1.0000
  H   H124      1.0  0.19752  0.17056  0.87448  1.0000
  H   H125      1.0  0.20593  0.15510  0.91519  1.0000
  H   H126      1.0  0.20597  0.18655  0.91557  1.0000
  H   H127      1.0  0.22859  0.14671  0.83928  1.0000
  H   H128      1.0  0.23394  0.13161  0.88224  1.0000
  H   H129      1.0  0.25775  0.14362  0.85777  1.0000
  H   H130      1.0  0.26908  0.16630  0.91167  1.0000
  H   H131      1.0  0.24836  0.18658  0.93372  1.0000
  H   H132      1.0  0.24536  0.15523  0.93781  1.0000
  H   H133      1.0  0.20670  0.20928  0.86273  1.0000
  H   H134      1.0  0.27734  0.17747  0.85211  1.0000
  H   H135      1.0  0.21777  0.24037  0.82124  1.0000
  H   H136      1.0  0.28734  0.20891  0.81011  1.0000
  H   H137      1.0  0.25790  0.24054  0.79431  1.0000
  C   C105      1.0  0.21948  0.27362  0.89648  1.0000
  H   H138      1.0  0.30150  0.31653  0.56274  1.0000
  S   S30       1.0  0.20871  0.13398  0.98774  1.0000
  C   C106      1.0  0.35515  0.19188  0.54208  1.0000
  H   H139      1.0  0.41325  0.13733  0.83963  1.0000
  C   C107      1.0  0.26716  0.29612  0.63142  1.0000
  H   H140      1.0  0.21184  0.30988  0.78852  1.0000
  H   H141      1.0  0.25452  0.01361  0.96731  1.0000
  N   N10       1.0  0.43285  0.21048  0.57769  1.0000
  C   C108      1.0  0.44146  0.20813  0.79902  1.0000
  C   C109      1.0  0.26401  0.99999  0.98264  1.0000
  C   C110      1.0  0.42634  0.22194  0.82123  1.0000
  H   H142      1.0  0.07921  0.30054  0.90499  1.0000
  H   H143      1.0  0.37021  0.16495  0.77553  1.0000
  H   H144      1.0  0.30878  0.27302  0.63946  1.0000
  C   C111      1.0  0.42450  0.13864  0.76602  1.0000
  H   H145      1.0  0.32198  0.28366  0.59765  1.0000
  C   C112      1.0  0.19888  0.28126  0.91458  1.0000
  H   H146      1.0  0.44071  0.13604  0.78289  1.0000
  C   C113      1.0  0.41348  0.17605  0.79874  1.0000
  C   C114      1.0  0.41719  0.22608  0.60087  1.0000
  C   C115      1.0  0.19835  0.31759  0.87953  1.0000
  C   C116      1.0  0.47738  0.23713  0.71662  1.0000
  H   H147      1.0  0.02335  0.27297  0.91721  1.0000
  C   C117      1.0  0.22966  0.28792  0.86994  1.0000
  C   C118      1.0  0.19761  0.16370  0.99216  1.0000
  H   H148      1.0  0.43110  0.23959  0.82928  1.0000
  C   C119      1.0  0.39858  0.19058  0.82159  1.0000
  C   C120      1.0  0.47553  0.20091  0.56289  1.0000
  H   H149      1.0  0.45514  0.24061  0.62825  1.0000
  C   C121      1.0  0.18836  0.30317  0.90608  1.0000
  C   C122      1.0  0.98733  0.28335  0.91550  1.0000
  H   H150      1.0  0.04513  0.31263  0.84172  1.0000
  C   C123      1.0  0.21956  0.31050  0.86093  1.0000
  C   C124      1.0  0.36004  0.18079  0.50781  1.0000
  C   C125      1.0  0.34977  0.22927  0.51094  1.0000
  H   H151      1.0  0.17215  0.30899  0.91988  1.0000
  H   H152      1.0  0.14502  0.19554  0.98895  1.0000
  H   H153      1.0  0.26691  0.31244  0.84164  1.0000
  H   H154      1.0  0.33413  0.30330  0.64948  1.0000
  H   H155      1.0  0.16161  0.15431  0.98362  1.0000
  C   C126      1.0  0.01893  0.31072  0.90319  1.0000
  H   H156      1.0  0.05805  0.28846  0.93544  1.0000
  C   C127      1.0  0.28506  0.31077  0.57617  1.0000
  N   N11       1.0  0.04413  0.31639  0.90068  1.0000
  H   H157      1.0  0.26909  0.31604  0.71670  1.0000
  H   H158      1.0  0.47843  0.25499  0.72712  1.0000
  C   C128      1.0  0.28536  0.31796  0.73149  1.0000
  C   C129      1.0  0.21243  0.18245  0.99846  1.0000
  C   C130      1.0  0.28171  0.32126  0.32405  1.0000
  Fe  Fe17      1.0  0.17931  0.61263  0.29298  1.0000
  S   S31       1.0  0.21358  0.60416  0.26434  1.0000
  S   S32       1.0  0.14703  0.61538  0.25507  1.0000
  Fe  Fe18      1.0  0.20291  0.61119  0.37056  1.0000
  S   S33       1.0  0.23836  0.60272  0.34481  1.0000
  S   S34       1.0  0.21058  0.61685  0.43183  1.0000
  Fe  Fe19      1.0  0.22872  0.63054  0.30332  1.0000
  S   S35       1.0  0.19406  0.64034  0.33022  1.0000
  Fe  Fe20      1.0  0.21937  0.57704  0.30915  1.0000
  S   S36       1.0  0.23469  0.53986  0.29715  1.0000
  C   C131      1.0  0.19956  0.52791  0.47108  1.0000
  S   S37       1.0  0.18436  0.58402  0.33647  1.0000
  Fe  Fe21      1.0  0.19044  0.36222  0.37805  1.0000
  S   S38       1.0  0.21948  0.38760  0.37338  1.0000
  S   S39       1.0  0.17337  0.35519  0.43361  1.0000
  Fe  Fe22      1.0  0.18747  0.35526  0.29234  1.0000
  S   S40       1.0  0.21584  0.38153  0.28325  1.0000
  H   H159      1.0  0.31879  0.32746  0.32847  1.0000
  Fe  Fe23      1.0  0.23435  0.36259  0.33008  1.0000
  S   S41       1.0  0.27314  0.35151  0.32833  1.0000
  Fe  Fe24      1.0  0.19801  0.40403  0.32766  1.0000
  S   S42       1.0  0.18548  0.44284  0.33254  1.0000
  S   S43       1.0  0.20679  0.33594  0.33821  1.0000
  S   S44       1.0  0.16812  0.37906  0.33347  1.0000
  C   C132      1.0  0.22144  0.51302  0.30954  1.0000
  C   C133      1.0  0.23359  0.49131  0.30252  1.0000
  C   C134      1.0  0.22320  0.46961  0.31028  1.0000
  C   C135      1.0  0.20037  0.46944  0.32478  1.0000
  C   C136      1.0  0.18839  0.49114  0.33238  1.0000
  C   C137      1.0  0.19889  0.51279  0.32509  1.0000
  H   H160      1.0  0.25107  0.49127  0.29063  1.0000
  H   H161      1.0  0.23265  0.45308  0.30430  1.0000
  H   H162      1.0  0.17074  0.49121  0.34359  1.0000
  H   H163      1.0  0.18938  0.52925  0.33113  1.0000
  H   H164      1.0  0.20817  0.54395  0.17545  1.0000
  C   C138      1.0  0.13311  0.32863  0.13930  1.0000
  H   H165      1.0  0.25629  0.33272  0.25654  1.0000
  C   C139      1.0  0.07463  0.64454  0.22794  1.0000
  H   H166      1.0  0.06469  0.32695  0.14610  1.0000
  H   H167      1.0  0.20924  0.42842  0.44793  1.0000
  H   H168      1.0  0.12095  0.36370  0.15565  1.0000
  C   C140      1.0  0.18444  0.54232  0.49239  1.0000
  C   C141      1.0  0.18812  0.35411  0.47666  1.0000
  C   C142      1.0  0.21270  0.35314  0.47909  1.0000
  H   H169      1.0  0.14806  0.47147  0.25305  1.0000
  H   H170      1.0  0.19171  0.32929  0.08477  1.0000
  H   H171      1.0  0.31284  0.64845  0.37637  1.0000
  C   C143      1.0  0.12715  0.64049  0.15380  1.0000
  H   H172      1.0  0.14480  0.36470  0.21289  1.0000
  C   C144      1.0  0.20069  0.34267  0.13816  1.0000
  H   H173      1.0  0.16116  0.61174  0.45298  1.0000
  C   C145      1.0  0.14589  0.63222  0.21358  1.0000
  C   C146      1.0  0.15210  0.41608  0.46276  1.0000
  C   C147      1.0  0.19667  0.60829  0.47312  1.0000
  H   H174      1.0  0.06043  0.64525  0.12050  1.0000
  H   H175      1.0  0.24908  0.35276  0.22017  1.0000
  C   C148      1.0  0.16013  0.32970  0.20527  1.0000
  H   H176      1.0  0.18532  0.44850  0.24346  1.0000
  H   H177      1.0  0.21934  0.51014  0.20830  1.0000
  H   H178      1.0  0.18718  0.42220  0.41455  1.0000
  H   H179      1.0  0.11482  0.63570  0.13275  1.0000
  H   H180      1.0  0.17356  0.57392  0.24759  1.0000
  H   H181      1.0  0.16527  0.53873  0.16169  1.0000
  C   C149      1.0  0.19225  0.41964  0.44397  1.0000
  H   H182      1.0  0.31324  0.62686  0.41214  1.0000
  H   H183      1.0  0.14538  0.51380  0.24004  1.0000
  C   C150      1.0  0.30148  0.63712  0.39309  1.0000
  H   H184      1.0  0.18459  0.46516  0.46655  1.0000
  H   H185      1.0  0.19523  0.40024  0.44732  1.0000
  C   C151      1.0  0.12995  0.62636  0.18563  1.0000
  H   H186      1.0  0.27760  0.32724  0.17982  1.0000
  S   S45       1.0  0.17733  0.32913  0.24641  1.0000
  H   H187      1.0  0.28947  0.63454  0.30030  1.0000
  H   H188      1.0  0.18718  0.54985  0.27237  1.0000
  H   H189      1.0  0.16041  0.56751  0.18253  1.0000
  C   C152      1.0  0.16919  0.45444  0.45966  1.0000
  H   H190      1.0  0.33121  0.64540  0.30859  1.0000
  H   H191      1.0  0.29366  0.62440  0.37348  1.0000
  H   H192      1.0  0.22052  0.46818  0.22065  1.0000
  H   H193      1.0  0.20142  0.53126  0.44183  1.0000
  H   H194      1.0  0.22634  0.33775  0.24491  1.0000
  H   H195      1.0  0.14729  0.41597  0.43302  1.0000
  H   H196      1.0  0.13669  0.42360  0.47831  1.0000
  C   C153      1.0  0.14575  0.34922  0.19528  1.0000
  N   N12       1.0  0.17374  0.42924  0.46952  1.0000
  H   H197      1.0  0.11939  0.61103  0.18888  1.0000
  H   H198      1.0  0.20059  0.57155  0.19748  1.0000
  C   C154      1.0  0.21252  0.50945  0.48751  1.0000
  H   H199      1.0  0.22324  0.35365  0.45429  1.0000
  H   H200      1.0  0.15460  0.39726  0.47123  1.0000
  H   H201      1.0  0.16577  0.45656  0.42956  1.0000
  H   H202      1.0  0.14387  0.54342  0.19780  1.0000
  H   H203      1.0  0.21697  0.54958  0.22256  1.0000
  H   H204      1.0  0.15349  0.46245  0.47388  1.0000
  N   N13       1.0  0.18023  0.54225  0.21568  1.0000
  C   C155      1.0  0.17402  0.55443  0.25076  1.0000
  C   C156      1.0  0.20250  0.55212  0.20212  1.0000
  C   C157      1.0  0.16165  0.54814  0.18822  1.0000
  C   C158      1.0  0.18185  0.51639  0.22188  1.0000
  C   C159      1.0  0.20305  0.50255  0.21667  1.0000
  C   C160      1.0  0.16194  0.50439  0.23470  1.0000
  C   C161      1.0  0.20402  0.47826  0.22370  1.0000
  C   C162      1.0  0.16321  0.48016  0.24204  1.0000
  C   C163      1.0  0.18420  0.46712  0.23652  1.0000
  H   H205      1.0  0.15643  0.54993  0.26139  1.0000
  H   H206      1.0  0.03584  0.34035  0.14856  1.0000
  C   C164      1.0  0.20291  0.32690  0.10871  1.0000
  H   H207      1.0  0.06928  0.62839  0.24089  1.0000
  H   H208      1.0  0.26003  0.62153  0.41270  1.0000
  H   H209      1.0  0.22450  0.49848  0.47082  1.0000
  H   H210      1.0  0.00191  0.34384  0.11469  1.0000
  S   S46       1.0  0.11478  0.32863  0.09937  1.0000
  H   H211      1.0  0.21132  0.35199  0.19178  1.0000
  C   C165      1.0  0.04583  0.33069  0.07803  1.0000
  C   C166      1.0  0.04560  0.32328  0.14335  1.0000
  C   C167      1.0  0.23153  0.32041  0.17221  1.0000
  H   H212      1.0  0.03601  0.34785  0.08209  1.0000
  H   H213      1.0  0.18750  0.35705  0.13719  1.0000
  H   H214      1.0  0.26660  0.32105  0.40258  1.0000
  C   C168      1.0  0.17218  0.60814  0.47669  1.0000
  C   C169      1.0  0.21466  0.33955  0.16953  1.0000
  C   C170      1.0  0.26804  0.63391  0.43259  1.0000
  C   C171      1.0  0.99737  0.32582  0.10913  1.0000
  H   H215      1.0  0.27829  0.62266  0.45232  1.0000
  H   H216      1.0  0.25300  0.64296  0.44731  1.0000
  C   C172      1.0  0.24427  0.33572  0.23276  1.0000
  H   H217      1.0  0.17457  0.55685  0.47962  1.0000
  H   H218      1.0  0.04995  0.64197  0.18444  1.0000
  C   C173      1.0  0.13222  0.34858  0.16271  1.0000
  H   H219      1.0  0.04144  0.32395  0.05013  1.0000
  H   H220      1.0  0.06488  0.33477  0.07806  1.0000
  N   N14       1.0  0.28305  0.65103  0.41368  1.0000
  H   H221      1.0  0.10222  0.65007  0.26718  1.0000
  Fe  Fe25      1.0  0.20602  0.57077  0.70140  1.0000
  S   S47       1.0  0.16740  0.57477  0.68878  1.0000
  S   S48       1.0  0.22527  0.53502  0.70841  1.0000
  Fe  Fe26      1.0  0.21400  0.62358  0.69356  1.0000
  S   S49       1.0  0.17596  0.63042  0.67937  1.0000
  H   H222      1.0  0.28668  0.37774  0.66783  1.0000
  Fe  Fe27      1.0  0.16787  0.60668  0.72668  1.0000
  S   S50       1.0  0.13786  0.62187  0.76295  1.0000
  Fe  Fe28      1.0  0.17918  0.59839  0.64309  1.0000
  S   S51       1.0  0.16212  0.59729  0.58626  1.0000
  S   S52       1.0  0.20587  0.60113  0.74259  1.0000
  S   S53       1.0  0.21778  0.59303  0.65365  1.0000
  Fe  Fe29      1.0  0.23515  0.36629  0.71933  1.0000
  S   S54       1.0  0.21944  0.33436  0.69522  1.0000
  H   H223      1.0  0.16530  0.61411  0.89188  1.0000
  Fe  Fe30      1.0  0.19456  0.39916  0.69369  1.0000
  S   S55       1.0  0.17550  0.36861  0.66858  1.0000
  S   S56       1.0  0.17708  0.43591  0.68761  1.0000
  Fe  Fe31      1.0  0.18560  0.34886  0.72086  1.0000
  H   H224      1.0  0.14900  0.44666  0.52970  1.0000
  Fe  Fe32      1.0  0.21116  0.35722  0.64594  1.0000
  S   S57       1.0  0.22499  0.34620  0.58897  1.0000
  S   S58       1.0  0.20192  0.38015  0.74703  1.0000
  S   S59       1.0  0.22958  0.38852  0.66881  1.0000
  C   C174      1.0  0.21030  0.35054  0.54634  1.0000
  C   C175      1.0  0.18575  0.35254  0.54400  1.0000
  H   H225      1.0  0.22091  0.54030  0.60044  1.0000
  H   H226      1.0  0.17522  0.35219  0.56885  1.0000
  C   C176      1.0  0.11786  0.64070  0.82644  1.0000
  H   H227      1.0  0.00559  0.34655  0.89122  1.0000
  C   C177      1.0  0.20574  0.41169  0.55860  1.0000
  C   C178      1.0  0.32763  0.32328  0.76928  1.0000
  C   C179      1.0  0.14960  0.34711  0.81684  1.0000
  H   H228      1.0  0.13494  0.36620  0.86375  1.0000
  H   H229      1.0  0.15368  0.36294  0.80190  1.0000
  C   C180      1.0  0.17594  0.60058  0.54284  1.0000
  C   C181      1.0  0.20043  0.59973  0.53894  1.0000
  C   C182      1.0  0.21071  0.60396  0.50439  1.0000
  H   H230      1.0  0.21145  0.59602  0.56259  1.0000
  H   H231      1.0  0.27026  0.34660  0.63038  1.0000
  C   C183      1.0  0.21141  0.50749  0.70549  1.0000
  C   C184      1.0  0.22537  0.48641  0.70515  1.0000
  C   C185      1.0  0.21511  0.46428  0.70061  1.0000
  C   C186      1.0  0.19073  0.46303  0.69630  1.0000
  C   C187      1.0  0.17676  0.48408  0.69706  1.0000
  C   C188      1.0  0.18699  0.50618  0.70179  1.0000
  H   H232      1.0  0.24426  0.48722  0.70811  1.0000
  H   H233      1.0  0.22608  0.44823  0.70010  1.0000
  H   H234      1.0  0.15787  0.48328  0.69408  1.0000
  H   H235      1.0  0.17598  0.52218  0.70248  1.0000
  C   C189      1.0  0.18022  0.42711  0.50893  1.0000
  H   H236      1.0  0.31315  0.35739  0.78546  1.0000
  C   C190      1.0  0.31012  0.34130  0.77025  1.0000
  C   C191      1.0  0.13671  0.62685  0.81150  1.0000
  H   H237      1.0  0.21265  0.40494  0.50229  1.0000
  C   C192      1.0  0.13888  0.34890  0.85194  1.0000
  H   H238      1.0  0.16828  0.60647  0.82448  1.0000
  H   H239      1.0  0.15880  0.44229  0.59510  1.0000
  H   H240      1.0  0.14290  0.60485  0.51415  1.0000
  C   C193      1.0  0.13331  0.63571  0.88861  1.0000
  C   C194      1.0  0.28772  0.34347  0.64153  1.0000
  S   S60       1.0  0.11880  0.33205  0.91533  1.0000
  C   C195      1.0  0.22370  0.35095  0.51372  1.0000
  H   H241      1.0  0.20232  0.63288  0.59949  1.0000
  H   H242      1.0  0.03966  0.34246  0.85751  1.0000
  H   H243      1.0  0.26429  0.34151  0.82409  1.0000
  H   H244      1.0  0.19458  0.41973  0.61409  1.0000
  H   H245      1.0  0.24270  0.34952  0.51522  1.0000
  C   C196      1.0  0.21919  0.34918  0.82902  1.0000
  C   C197      1.0  0.04952  0.32561  0.86355  1.0000
  H   H246      1.0  0.27463  0.63412  0.71351  1.0000
  C   C198      1.0  0.21049  0.50535  0.52537  1.0000
  C   C199      1.0  0.19079  0.42206  0.58503  1.0000
  H   H247      1.0  0.20095  0.34802  0.81816  1.0000
  C   C200      1.0  0.15380  0.61733  0.83542  1.0000
  H   H248      1.0  0.20104  0.53581  0.63797  1.0000
  C   C201      1.0  0.30039  0.32163  0.63576  1.0000
  S   S61       1.0  0.26855  0.36328  0.75256  1.0000
  C   C202      1.0  0.29706  0.36158  0.66257  1.0000
  H   H249      1.0  0.22695  0.64747  0.61734  1.0000
  C   C203      1.0  0.15205  0.62170  0.87369  1.0000
  N   N15       1.0  0.19315  0.51661  0.58828  1.0000
  C   C204      1.0  0.16809  0.51417  0.59879  1.0000
  C   C205      1.0  0.20655  0.49540  0.60207  1.0000
  C   C206      1.0  0.20214  0.53760  0.60749  1.0000
  C   C207      1.0  0.19525  0.51985  0.54796  1.0000
  H   H250      1.0  0.21862  0.35909  0.85556  1.0000
  H   H251      1.0  0.18891  0.33410  0.87386  1.0000
  H   H252      1.0  0.22875  0.36028  0.80909  1.0000
  H   H253      1.0  0.22103  0.40109  0.56735  1.0000
  N   N16       1.0  0.23087  0.32540  0.83305  1.0000
  H   H254      1.0  0.16011  0.49953  0.58324  1.0000
  H   H255      1.0  0.16614  0.51036  0.62870  1.0000
  H   H256      1.0  0.15723  0.53064  0.59402  1.0000
  H   H257      1.0  0.20062  0.47888  0.58888  1.0000
  H   H258      1.0  0.20411  0.49309  0.63216  1.0000
  H   H259      1.0  0.22586  0.49685  0.59803  1.0000
  H   H260      1.0  0.19195  0.55413  0.60051  1.0000
  H   H261      1.0  0.06848  0.33864  0.92877  1.0000
  S   S62       1.0  0.13216  0.64056  0.93724  1.0000
  C   C208      1.0  0.13311  0.32859  0.87172  1.0000
  C   C209      1.0  0.21616  0.64547  0.59216  1.0000
  H   H262      1.0  0.17069  0.55044  0.54564  1.0000
  H   H263      1.0  0.34399  0.32565  0.78378  1.0000
  H   H264      1.0  0.10439  0.64792  0.80828  1.0000
  C   C210      1.0  0.25580  0.32899  0.84314  1.0000
  H   H265      1.0  0.03979  0.35180  0.92330  1.0000
  C   C211      1.0  0.16528  0.43730  0.53669  1.0000
  H   H266      1.0  0.25711  0.33642  0.87146  1.0000
  C   C212      1.0  0.28910  0.33901  0.75096  1.0000
  C   C213      1.0  0.17061  0.43484  0.57414  1.0000
  H   H267      1.0  0.22968  0.60396  0.50187  1.0000
  C   C214      1.0  0.20063  0.41407  0.52109  1.0000
  H   H268      1.0  0.32612  0.37239  0.69552  1.0000
  H   H269      1.0  0.22776  0.63701  0.57075  1.0000
  C   C215      1.0  0.31931  0.35862  0.67817  1.0000
  C   C216      1.0  0.18230  0.53844  0.53022  1.0000
  C   C217      1.0  0.16189  0.60436  0.51145  1.0000
  H   H270      1.0  0.22128  0.49095  0.53633  1.0000
  H   H271      1.0  0.15572  0.35479  0.50777  1.0000
  C   C218      1.0  0.04940  0.33470  0.92853  1.0000
  C   C219      1.0  0.15432  0.32492  0.80070  1.0000
  H   H272      1.0  0.27211  0.32602  0.57548  1.0000
  H   H273      1.0  0.23778  0.32462  0.77465  1.0000
  C   C220      1.0  0.11614  0.64512  0.86468  1.0000
  C   C221      1.0  0.00114  0.32869  0.89789  1.0000
  H   H274      1.0  0.06859  0.32937  0.86061  1.0000
  H   H275      1.0  0.31521  0.64874  0.72103  1.0000
  H   H276      1.0  0.43924  0.64939  0.72321  1.0000
  C   C222      1.0  0.17474  0.35401  0.50930  1.0000
  H   H277      1.0  0.47877  0.64248  0.74695  1.0000
  S   S63       1.0  0.16668  0.32161  0.75566  1.0000
  H   H278      1.0  0.04454  0.32883  0.95666  1.0000
  H   H279      1.0  0.20667  0.64423  0.83117  1.0000
  C   C223      1.0  0.33239  0.33758  0.67260  1.0000
  H   H280      1.0  0.18859  0.64982  0.76992  1.0000
  H   H281      1.0  0.34941  0.33507  0.68577  1.0000
  H   H282      1.0  0.17567  0.65090  0.55638  1.0000
  C   C224      1.0  0.32322  0.31930  0.65168  1.0000
  Fe  Fe33      1.0  0.29094  0.84358  0.04374  1.0000
  S   S64       1.0  0.25718  0.86546  0.05016  1.0000
  S   S65       1.0  0.31586  0.82470  0.08459  1.0000
  C   C225      1.0  0.10069  0.67708  0.22577  1.0000
  C   C226      1.0  0.27676  0.67045  0.29255  1.0000
  C   C227      1.0  0.27604  0.75944  0.33288  1.0000
  H   H283      1.0  0.41835  0.80452  0.11373  1.0000
  C   C228      1.0  0.37420  0.84282  0.08902  1.0000
  H   H284      1.0  0.41024  0.77475  0.20693  1.0000
  H   H285      1.0  0.34292  0.79089  0.12644  1.0000
  C   C229      1.0  0.36495  0.84861  0.12357  1.0000
  Fe  Fe34      1.0  0.11645  0.68355  0.05670  1.0000
  C   C230      1.0  0.08984  0.68525  0.19350  1.0000
  S   S66       1.0  0.09385  0.71642  0.04570  1.0000
  Fe  Fe35      1.0  0.36987  0.76922  0.36246  1.0000
  S   S67       1.0  0.39417  0.74004  0.34152  1.0000
  S   S68       1.0  0.37605  0.78364  0.41984  1.0000
  Fe  Fe36      1.0  0.34824  0.77823  0.28514  1.0000
  S   S69       1.0  0.37132  0.74975  0.25875  1.0000
  S   S70       1.0  0.32120  0.80316  0.25717  1.0000
  Fe  Fe37      1.0  0.36259  0.72865  0.30936  1.0000
  S   S71       1.0  0.35344  0.69012  0.31023  1.0000
  Fe  Fe38      1.0  0.40071  0.76360  0.29359  1.0000
  S   S72       1.0  0.43603  0.77638  0.27416  1.0000
  S   S73       1.0  0.33782  0.75625  0.33395  1.0000
  S   S74       1.0  0.37809  0.79367  0.31625  1.0000
  H   H286      1.0  0.41515  0.77718  0.15885  1.0000
  C   C231      1.0  0.39351  0.82703  0.08598  1.0000
  C   C232      1.0  0.28403  0.78197  0.34069  1.0000
  C   C233      1.0  0.32394  0.68283  0.30258  1.0000
  C   C234      1.0  0.30652  0.70036  0.29584  1.0000
  C   C235      1.0  0.28307  0.69415  0.29056  1.0000
  H   H287      1.0  0.43792  0.80884  0.21459  1.0000
  C   C236      1.0  0.30944  0.68501  0.42511  1.0000
  H   H288      1.0  0.31115  0.71865  0.29425  1.0000
  N   N17       1.0  0.05948  0.68084  0.14261  1.0000
  H   H289      1.0  0.44896  0.80649  0.39022  1.0000
  H   H290      1.0  0.28845  0.77619  0.43426  1.0000
  C   C237      1.0  0.46395  0.76243  0.28203  1.0000
  C   C238      1.0  0.46646  0.73915  0.29454  1.0000
  H   H291      1.0  0.36589  0.84297  0.18090  1.0000
  C   C239      1.0  0.06683  0.70433  0.12980  1.0000
  H   H292      1.0  0.45099  0.72909  0.29968  1.0000
  C   C240      1.0  0.29414  0.65287  0.29927  1.0000
  C   C241      1.0  0.36031  0.77579  0.45975  1.0000
  C   C242      1.0  0.32195  0.81418  0.36788  1.0000
  H   H293      1.0  0.33208  0.75964  0.43100  1.0000
  H   H294      1.0  0.32975  0.83166  0.37279  1.0000
  H   H295      1.0  0.43097  0.83627  0.19162  1.0000
  C   C243      1.0  0.33887  0.76458  0.45760  1.0000
  H   H296      1.0  0.38560  0.77863  0.17643  1.0000
  S   S75       1.0  0.20984  0.82043  0.03063  1.0000
  C   C244      1.0  0.28516  0.77243  0.40561  1.0000
  H   H297      1.0  0.44059  0.81047  0.16589  1.0000
  H   H298      1.0  0.14516  0.76544  0.04152  1.0000
  H   H299      1.0  0.40051  0.82246  0.05896  1.0000
  C   C245      1.0  0.27280  0.74337  0.36116  1.0000
  H   H300      1.0  0.44888  0.76521  0.47085  1.0000
  C   C246      1.0  0.31772  0.65906  0.30390  1.0000
  C   C247      1.0  0.07075  0.67330  0.17759  1.0000
  C   C248      1.0  0.18919  0.80069  0.01180  1.0000
  C   C249      1.0  0.29427  0.66777  0.43907  1.0000
  C   C250      1.0  0.31563  0.81816  0.13244  1.0000
  C   C251      1.0  0.30089  0.83037  0.15761  1.0000
  C   C252      1.0  0.30257  0.82539  0.19563  1.0000
  C   C253      1.0  0.31880  0.80804  0.20888  1.0000
  C   C254      1.0  0.33292  0.79530  0.18355  1.0000
  C   C255      1.0  0.33149  0.80049  0.14568  1.0000
  H   H301      1.0  0.28864  0.84405  0.14791  1.0000
  H   H302      1.0  0.29145  0.83529  0.21492  1.0000
  H   H303      1.0  0.34500  0.78151  0.19321  1.0000
  C   C256      1.0  0.13988  0.66106  0.14992  1.0000
  N   N18       1.0  0.45484  0.77175  0.41305  1.0000
  C   C257      1.0  0.17367  0.78954  0.03587  1.0000
  H   H304      1.0  0.33282  0.71312  0.43736  1.0000
  H   H305      1.0  0.02584  0.66472  0.15082  1.0000
  H   H306      1.0  0.17446  0.79321  0.06509  1.0000
  S   S76       1.0  0.24687  0.66402  0.28723  1.0000
  H   H307      1.0  0.05742  0.70988  0.10415  1.0000
  H   H308      1.0  0.05736  0.66802  0.08683  1.0000
  C   C258      1.0  0.26796  0.66433  0.38704  1.0000
  H   H309      1.0  0.02478  0.68933  0.12100  1.0000
  C   C259      1.0  0.30046  0.81849  0.42450  1.0000
  H   H310      1.0  0.28326  0.81758  0.43905  1.0000
  H   H311      1.0  0.42484  0.78717  0.38412  1.0000
  H   H312      1.0  0.32169  0.81138  0.33753  1.0000
  H   H313      1.0  0.27816  0.67633  0.36956  1.0000
  H   H314      1.0  0.98656  0.69616  0.07511  1.0000
  H   H315      1.0  0.26694  0.72580  0.35480  1.0000
  H   H316      1.0  0.08595  0.70407  0.12282  1.0000
  C   C260      1.0  0.09312  0.65680  0.24295  1.0000
  H   H317      1.0  0.28810  0.84955  0.37520  1.0000
  N   N19       1.0  0.25079  0.77332  0.11225  1.0000
  C   C261      1.0  0.26283  0.77459  0.07598  1.0000
  C   C262      1.0  0.23878  0.79653  0.12000  1.0000
  C   C263      1.0  0.26931  0.76935  0.14060  1.0000
  C   C264      1.0  0.23312  0.75472  0.11155  1.0000
  C   C265      1.0  0.21561  0.75476  0.08377  1.0000
  C   C266      1.0  0.23223  0.73660  0.13854  1.0000
  C   C267      1.0  0.19841  0.73773  0.08284  1.0000
  C   C268      1.0  0.21490  0.71967  0.13737  1.0000
  C   C269      1.0  0.19801  0.72025  0.10962  1.0000
  H   H318      1.0  0.25083  0.78114  0.05381  1.0000
  H   H319      1.0  0.27750  0.78714  0.07653  1.0000
  H   H320      1.0  0.27036  0.75697  0.06738  1.0000
  H   H321      1.0  0.22534  0.80130  0.09882  1.0000
  H   H322      1.0  0.25144  0.81111  0.12026  1.0000
  H   H323      1.0  0.22952  0.79652  0.14703  1.0000
  H   H324      1.0  0.27897  0.75205  0.13640  1.0000
  H   H325      1.0  0.28269  0.78317  0.13959  1.0000
  H   H326      1.0  0.26188  0.77016  0.16898  1.0000
  H   H327      1.0  0.21494  0.76816  0.06269  1.0000
  H   H328      1.0  0.24464  0.73509  0.16090  1.0000
  H   H329      1.0  0.18518  0.73817  0.06134  1.0000
  C   C270      1.0  0.15703  0.77369  0.02259  1.0000
  H   H330      1.0  0.18450  0.70717  0.10892  1.0000
  N   N20       1.0  0.40465  0.81020  0.18594  1.0000
  C   C271      1.0  0.39240  0.81684  0.22093  1.0000
  C   C272      1.0  0.40386  0.78413  0.18177  1.0000
  C   C273      1.0  0.42957  0.81675  0.18957  1.0000
  C   C274      1.0  0.39415  0.82186  0.15315  1.0000
  C   C275      1.0  0.40347  0.81676  0.11752  1.0000
  H   H331      1.0  0.37369  0.81166  0.22073  1.0000
  H   H332      1.0  0.40076  0.80783  0.24496  1.0000
  H   H333      1.0  0.39302  0.83613  0.22662  1.0000
  C   C276      1.0  0.37460  0.83829  0.15528  1.0000
  Fe  Fe39      1.0  0.06965  0.69248  0.01421  1.0000
  H   H334      1.0  0.11575  0.68596  0.23671  1.0000
  H   H335      1.0  0.45055  0.78322  0.35643  1.0000
  S   S77       1.0  0.27559  0.81745  0.00491  1.0000
  H   H336      1.0  0.36594  0.85016  0.06451  1.0000
  H   H337      1.0  0.26970  0.70776  0.28496  1.0000
  S   S78       1.0  0.03021  0.69453  0.03358  1.0000
  H   H338      1.0  0.34944  0.86036  0.12555  1.0000
  H   H339      1.0  0.17157  0.65708  0.23017  1.0000
  C   C277      1.0  0.06588  0.66332  0.11352  1.0000
  H   H340      1.0  0.06308  0.71829  0.15090  1.0000
  C   C278      1.0  0.28249  0.83146  0.36809  1.0000
  C   C279      1.0  0.44274  0.77736  0.44857  1.0000
  H   H341      1.0  0.02792  0.69403  0.16984  1.0000
  S   S79       1.0  0.09216  0.65940  0.02694  1.0000
  S   S80       1.0  0.13846  0.68890  0.00618  1.0000
  H   H342      1.0  0.31356  0.80635  0.43824  1.0000
  C   C280      1.0  0.48070  0.77421  0.41448  1.0000
  H   H343      1.0  0.09736  0.70047  0.18090  1.0000
  H   H344      1.0  0.08527  0.66236  0.10888  1.0000
  H   H345      1.0  0.27502  0.73722  0.41936  1.0000
  H   H346      1.0  0.26401  0.82986  0.37777  1.0000
  H   H347      1.0  0.45809  0.73427  0.42241  1.0000
  S   S81       1.0  0.13544  0.68127  0.11265  1.0000
  H   H348      1.0  0.16608  0.68243  0.17502  1.0000
  H   H349      1.0  0.33432  0.80052  0.37968  1.0000
  C   C281      1.0  0.28799  0.96394  0.02199  1.0000
  C   C282      1.0  0.44955  0.74708  0.40298  1.0000
  H   H350      1.0  0.28710  0.79341  0.31753  1.0000
  H   H351      1.0  0.38563  0.79077  0.49638  1.0000
  H   H352      1.0  0.28244  0.83059  0.33747  1.0000
  H   H353      1.0  0.27291  0.75421  0.30457  1.0000
  C   C283      1.0  0.36909  0.78200  0.49444  1.0000
  H   H354      1.0  0.29741  0.95030  0.03740  1.0000
  Fe  Fe40      1.0  0.24216  0.83956  0.00948  1.0000
  N   N21       1.0  0.29823  0.81287  0.38465  1.0000
  H   H355      1.0  0.45577  0.74225  0.37476  1.0000
  H   H356      1.0  0.42333  0.77543  0.44654  1.0000
  C   C284      1.0  0.27735  0.74985  0.39743  1.0000
  C   C285      1.0  0.28892  0.78919  0.37731  1.0000
  H   H357      1.0  0.30692  0.83659  0.42911  1.0000
  H   H358      1.0  0.31289  0.68646  0.39586  1.0000
  C   C286      1.0  0.44443  0.78784  0.38478  1.0000
  H   H359      1.0  0.21446  0.70600  0.15818  1.0000
  C   C287      1.0  0.15609  0.66663  0.17760  1.0000
  C   C288      1.0  0.99969  0.69344  0.01942  1.0000
  C   C289      1.0  0.29091  0.66734  0.47792  1.0000
  H   H360      1.0  0.43025  0.74426  0.40341  1.0000
  H   H361      1.0  0.25393  0.67515  0.40134  1.0000
  C   C290      1.0  0.32094  0.70043  0.44863  1.0000
  H   H362      1.0  0.48244  0.79320  0.26543  1.0000
  H   H363      1.0  0.44533  0.79596  0.45728  1.0000
  C   C291      1.0  0.03343  0.68226  0.14648  1.0000
  C   C292      1.0  0.32595  0.76037  0.48994  1.0000
  H   H364      1.0  0.30906  0.75227  0.48813  1.0000
  C   C293      1.0  0.31761  0.69923  0.48658  1.0000
  H   H365      1.0  0.27959  0.65505  0.49116  1.0000
  Fe  Fe41      1.0  0.26891  0.88658  0.00062  1.0000
  C   C294      1.0  0.06363  0.65255  0.19568  1.0000
  H   H366      1.0  0.25899  0.65227  0.36765  1.0000
  C   C295      1.0  0.15929  0.65222  0.20896  1.0000
  H   H367      1.0  0.24749  0.71617  0.49811  1.0000
  Fe  Fe42      1.0  0.28602  0.84122  0.95883  1.0000
  S   S82       1.0  0.25125  0.86192  0.96023  1.0000
  S   S83       1.0  0.30930  0.82528  0.91234  1.0000
  H   H368      1.0  0.31171  0.93726  0.87630  1.0000
  C   C296      1.0  0.26101  0.71590  0.55322  1.0000
  H   H369      1.0  0.33068  0.87180  0.86853  1.0000
  H   H370      1.0  0.27490  0.83653  0.85359  1.0000
  H   H371      1.0  0.29030  0.89662  0.75359  1.0000
  C   C297      1.0  0.32164  0.87844  0.84437  1.0000
  S   S84       1.0  0.08890  0.69895  0.96030  1.0000
  Fe  Fe43      1.0  0.33499  0.78442  0.70104  1.0000
  S   S85       1.0  0.36259  0.75761  0.72036  1.0000
  S   S86       1.0  0.31284  0.81001  0.73762  1.0000
  Fe  Fe44      1.0  0.33515  0.76364  0.62138  1.0000
  S   S87       1.0  0.36183  0.73538  0.63667  1.0000
  S   S88       1.0  0.31807  0.76100  0.56473  1.0000
  Fe  Fe45      1.0  0.34134  0.73151  0.68880  1.0000
  S   S89       1.0  0.33447  0.69507  0.71136  1.0000
  Fe  Fe46      1.0  0.38072  0.76417  0.66598  1.0000
  S   S90       1.0  0.41899  0.76372  0.64664  1.0000
  S   S91       1.0  0.31317  0.75786  0.67179  1.0000
  S   S92       1.0  0.35454  0.79301  0.64838  1.0000
  C   C298      1.0  0.33483  0.76644  0.52471  1.0000
  C   C299      1.0  0.19331  0.65818  0.82725  1.0000
  C   C300      1.0  0.35658  0.77706  0.52682  1.0000
  H   H372      1.0  0.21614  0.74039  0.75824  1.0000
  H   H373      1.0  0.36357  0.78188  0.55340  1.0000
  C   C301      1.0  0.30573  0.68457  0.70542  1.0000
  H   H374      1.0  0.40456  0.70106  0.63818  1.0000
  H   H375      1.0  0.26098  0.90463  0.91352  1.0000
  H   H376      1.0  0.47257  0.77153  0.75268  1.0000
  C   C302      1.0  0.26441  0.69178  0.69096  1.0000
  C   C303      1.0  0.28724  0.69990  0.69455  1.0000
  H   H377      1.0  0.34362  0.85558  0.80990  1.0000
  H   H378      1.0  0.25022  0.70411  0.68350  1.0000
  H   H379      1.0  0.29028  0.71818  0.68946  1.0000
  H   H380      1.0  0.25644  0.90549  0.86507  1.0000
  C   C304      1.0  0.26837  0.89815  0.88665  1.0000
  C   C305      1.0  0.44662  0.76554  0.66883  1.0000
  C   C306      1.0  0.44866  0.76901  0.70683  1.0000
  N   N22       1.0  0.20565  0.66827  0.57911  1.0000
  C   C307      1.0  0.29355  0.93129  0.88135  1.0000
  H   H381      1.0  0.43299  0.77162  0.72355  1.0000
  H   H382      1.0  0.29938  0.90468  0.94021  1.0000
  H   H383      1.0  0.30587  0.87721  0.91733  1.0000
  H   H384      1.0  0.18976  0.70195  0.91831  1.0000
  C   C308      1.0  0.25971  0.66804  0.69740  1.0000
  C   C309      1.0  0.31801  0.87533  0.77811  1.0000
  H   H385      1.0  0.27659  0.91418  0.81184  1.0000
  H   H386      1.0  0.28739  0.93907  0.90821  1.0000
  H   H387      1.0  0.20083  0.68090  0.63521  1.0000
  H   H388      1.0  0.26721  0.87855  0.88597  1.0000
  C   C310      1.0  0.47113  0.76896  0.72325  1.0000
  C   C311      1.0  0.40442  0.67121  0.69304  1.0000
  H   H389      1.0  0.19917  0.80463  0.95509  1.0000
  H   H390      1.0  0.43125  0.68294  0.63431  1.0000
  C   C312      1.0  0.18545  0.67208  0.85716  1.0000
  C   C313      1.0  0.30885  0.81984  0.86398  1.0000
  C   C314      1.0  0.32851  0.80805  0.84754  1.0000
  C   C315      1.0  0.32969  0.80419  0.80914  1.0000
  C   C316      1.0  0.31127  0.81235  0.78651  1.0000
  C   C317      1.0  0.29143  0.82382  0.80297  1.0000
  C   C318      1.0  0.29012  0.82742  0.84148  1.0000
  H   H391      1.0  0.34315  0.80220  0.86463  1.0000
  H   H392      1.0  0.34520  0.79562  0.79695  1.0000
  H   H393      1.0  0.27715  0.83037  0.78574  1.0000
  H   H394      1.0  0.40927  0.70808  0.74058  1.0000
  N   N23       1.0  0.15897  0.70546  0.88367  1.0000
  C   C319      1.0  0.13323  0.70364  0.88918  1.0000
  H   H395      1.0  0.00606  0.69058  0.96114  1.0000
  C   C320      1.0  0.16387  0.73032  0.87470  1.0000
  C   C321      1.0  0.16724  0.68983  0.85301  1.0000
  C   C322      1.0  0.15747  0.69260  0.81725  1.0000
  H   H396      1.0  0.21629  0.68917  0.51077  1.0000
  C   C323      1.0  0.19088  0.67892  0.60912  1.0000
  C   C324      1.0  0.27811  0.65244  0.70812  1.0000
  C   C325      1.0  0.24094  0.69131  0.59655  1.0000
  H   H397      1.0  0.12891  0.68558  0.89797  1.0000
  H   H398      1.0  0.12649  0.71598  0.91105  1.0000
  H   H399      1.0  0.12281  0.70785  0.86416  1.0000
  H   H400      1.0  0.17579  0.66771  0.61606  1.0000
  C   C326      1.0  0.18976  0.66299  0.54793  1.0000
  C   C327      1.0  0.99276  0.69153  0.98250  1.0000
  H   H401      1.0  0.15401  0.73666  0.85008  1.0000
  H   H402      1.0  0.15848  0.74252  0.89766  1.0000
  H   H403      1.0  0.18297  0.73243  0.86949  1.0000
  H   H404      1.0  0.39118  0.71524  0.70140  1.0000
  H   H405      1.0  0.46582  0.75946  0.61813  1.0000
  N   N24       1.0  0.42060  0.69113  0.69001  1.0000
  C   C328      1.0  0.46721  0.76221  0.64754  1.0000
  H   H406      1.0  0.16888  0.77799  0.93131  1.0000
  H   H407      1.0  0.32535  0.90159  0.91259  1.0000
  H   H408      1.0  0.41910  0.72805  0.70609  1.0000
  C   C329      1.0  0.30234  0.89522  0.84632  1.0000
  C   C330      1.0  0.22764  0.69360  0.53337  1.0000
  C   C331      1.0  0.22465  0.68437  0.56939  1.0000
  H   H409      1.0  0.43216  0.71370  0.64596  1.0000
  C   C332      1.0  0.25879  0.70683  0.58855  1.0000
  C   C333      1.0  0.44448  0.68575  0.70475  1.0000
  C   C334      1.0  0.29148  0.90173  0.81250  1.0000
  Fe  Fe47      1.0  0.11256  0.66750  0.97498  1.0000
  C   C335      1.0  0.30660  0.89673  0.91421  1.0000
  N   N25       1.0  0.29392  0.73770  0.79978  1.0000
  C   C336      1.0  0.31277  0.72091  0.81295  1.0000
  C   C337      1.0  0.30324  0.74984  0.76712  1.0000
  C   C338      1.0  0.28919  0.75547  0.82940  1.0000
  C   C339      1.0  0.27186  0.72615  0.78974  1.0000
  C   C340      1.0  0.26955  0.70120  0.79048  1.0000
  C   C341      1.0  0.25191  0.73997  0.77800  1.0000
  C   C342      1.0  0.24848  0.69097  0.78043  1.0000
  C   C343      1.0  0.23100  0.72951  0.76773  1.0000
  C   C344      1.0  0.46188  0.70306  0.70346  1.0000
  H   H410      1.0  0.31822  0.70790  0.79103  1.0000
  H   H411      1.0  0.32899  0.73019  0.82061  1.0000
  H   H412      1.0  0.30705  0.71119  0.83777  1.0000
  H   H413      1.0  0.30702  0.73700  0.74440  1.0000
  H   H414      1.0  0.31987  0.75878  0.77341  1.0000
  H   H415      1.0  0.29081  0.76379  0.75639  1.0000
  H   H416      1.0  0.28032  0.74746  0.85340  1.0000
  H   H417      1.0  0.30569  0.76323  0.83957  1.0000
  H   H418      1.0  0.27795  0.77076  0.81994  1.0000
  H   H419      1.0  0.28388  0.68909  0.79785  1.0000
  H   H420      1.0  0.25251  0.75900  0.77609  1.0000
  C   C345      1.0  0.15512  0.76934  0.98480  1.0000
  C   C346      1.0  0.16521  0.67833  0.78774  1.0000
  C   C347      1.0  0.32933  0.86885  0.81066  1.0000
  H   H421      1.0  0.19350  0.66811  0.88339  1.0000
  H   H422      1.0  0.24584  0.97133  0.95684  1.0000
  S   S93       1.0  0.23028  0.65957  0.69275  1.0000
  N   N26       1.0  0.29306  0.90510  0.88158  1.0000
  H   H423      1.0  0.18360  0.69672  0.60131  1.0000
  C   C348      1.0  0.18315  0.66125  0.79269  1.0000
  H   H424      1.0  0.23991  0.68475  0.62434  1.0000
  H   H425      1.0  0.21336  0.69687  0.75991  1.0000
  C   C349      1.0  0.42225  0.69740  0.65047  1.0000
  C   C350      1.0  0.25912  0.97581  0.97669  1.0000
  C   C351      1.0  0.47394  0.65942  0.73473  1.0000
  C   C352      1.0  0.40963  0.71148  0.71044  1.0000
  C   C353      1.0  0.17042  0.69980  0.91946  1.0000
  S   S94       1.0  0.13298  0.75116  0.96632  1.0000
  H   H426      1.0  0.27092  0.71195  0.60997  1.0000
  C   C354      1.0  0.17043  0.78074  0.96063  1.0000
  C   C355      1.0  0.29919  0.89182  0.77899  1.0000
  H   H427      1.0  0.14343  0.70551  0.81196  1.0000
  H   H428      1.0  0.24723  0.67188  0.78017  1.0000
  H   H429      1.0  0.18061  0.67929  0.53736  1.0000
  H   H430      1.0  0.45812  0.72020  0.69163  1.0000
  H   H431      1.0  0.28187  0.93934  0.86001  1.0000
  H   H432      1.0  0.16361  0.71173  0.94191  1.0000
  H   H433      1.0  0.38660  0.67598  0.68178  1.0000
  H   H434      1.0  0.41115  0.65542  0.67732  1.0000
  S   S95       1.0  0.30391  0.86621  0.99737  1.0000
  C   C356      1.0  0.24558  0.70916  0.52563  1.0000
  H   H435      1.0  0.32353  0.86708  0.75228  1.0000
  C   C357      1.0  0.18760  0.79602  0.97403  1.0000
  C   C358      1.0  0.22932  0.70505  0.76888  1.0000
  H   H436      1.0  0.16680  0.68143  0.92832  1.0000
  H   H437      1.0  0.30010  0.68198  0.53075  1.0000
  H   H438      1.0  0.15673  0.67989  0.76110  1.0000
  H   H439      1.0  0.27480  0.72812  0.54733  1.0000
  S   S96       1.0  0.26391  0.92698  0.98731  1.0000
  C   C359      1.0  0.30106  0.66078  0.71243  1.0000
  H   H440      1.0  0.32683  0.71095  0.50486  1.0000
  C   C360      1.0  0.45120  0.66366  0.72088  1.0000
  C   C361      1.0  0.27095  0.95745  0.99634  1.0000
  H   H441      1.0  0.40150  0.66625  0.72228  1.0000
  H   H442      1.0  0.10131  0.65546  0.87565  1.0000
  Fe  Fe48      1.0  0.11469  0.72009  0.99341  1.0000
  H   H443      1.0  0.19942  0.65384  0.52489  1.0000
  C   C362      1.0  0.30256  0.68283  0.50115  1.0000
  Fe  Fe49      1.0  0.66701  0.11794  0.03296  1.0000
  S   S97       1.0  0.64495  0.11730  0.08599  1.0000
  S   S98       1.0  0.70523  0.10608  0.02922  1.0000
  Fe  Fe50      1.0  0.84374  0.28926  0.05803  1.0000
  H   H444      1.0  0.51540  0.16626  0.17157  1.0000
  S   S99       1.0  0.86994  0.25871  0.04855  1.0000
  Fe  Fe51      1.0  0.60693  0.19238  0.35892  1.0000
  S   S100      1.0  0.57826  0.22044  0.35549  1.0000
  S   S101      1.0  0.62031  0.17879  0.41420  1.0000
  Fe  Fe52      1.0  0.61639  0.19300  0.27367  1.0000
  S   S102      1.0  0.58783  0.22123  0.26577  1.0000
  S   S103      1.0  0.64359  0.18533  0.22776  1.0000
  Fe  Fe53      1.0  0.60280  0.23826  0.31646  1.0000
  S   S104      1.0  0.61107  0.27714  0.32145  1.0000
  Fe  Fe54      1.0  0.56631  0.20034  0.30570  1.0000
  S   S105      1.0  0.52945  0.18576  0.30118  1.0000
  S   S106      1.0  0.63199  0.21115  0.32270  1.0000
  S   S107      1.0  0.59431  0.17094  0.31088  1.0000
  C   C363      1.0  0.50179  0.20103  0.30656  1.0000
  H   H445      1.0  0.83869  0.21778  0.09377  1.0000
  H   H446      1.0  0.63387  0.26579  0.24220  1.0000
  H   H447      1.0  0.51364  0.23536  0.29176  1.0000
  C   C364      1.0  0.64049  0.28591  0.32641  1.0000
  C   C365      1.0  0.65883  0.26924  0.33229  1.0000
  H   H448      1.0  0.80748  0.23611  0.05320  1.0000
  H   H449      1.0  0.66116  0.23221  0.40281  1.0000
  C   C366      1.0  0.68764  0.29999  0.32992  1.0000
  C   C367      1.0  0.79497  0.23739  0.07679  1.0000
  H   H450      1.0  0.65521  0.25090  0.33527  1.0000
  H   H451      1.0  0.64483  0.28682  0.20993  1.0000
  S   S108      1.0  0.86342  0.31372  0.02107  1.0000
  H   H452      1.0  0.77686  0.23511  0.06610  1.0000
  C   C368      1.0  0.70172  0.28160  0.22794  1.0000
  C   C369      1.0  0.61085  0.24748  0.49609  1.0000
  H   H453      1.0  0.73073  0.30459  0.23507  1.0000
  C   C370      1.0  0.80001  0.19576  0.08811  1.0000
  H   H454      1.0  0.55354  0.16147  0.35755  1.0000
  H   H455      1.0  0.78301  0.19328  0.07369  1.0000
  C   C371      1.0  0.51858  0.15324  0.47278  1.0000
  N   N27       1.0  0.80120  0.21964  0.10519  1.0000
  H   H456      1.0  0.78718  0.29632  0.16840  1.0000
  C   C372      1.0  0.60671  0.18539  0.45731  1.0000
  C   C373      1.0  0.58457  0.19695  0.45966  1.0000
  H   H457      1.0  0.51509  0.14766  0.36139  1.0000
  H   H458      1.0  0.57610  0.20341  0.43498  1.0000
  C   C374      1.0  0.61975  0.25006  0.41880  1.0000
  C   C375      1.0  0.63433  0.24968  0.48322  1.0000
  C   C376      1.0  0.61792  0.17788  0.48990  1.0000
  C   C377      1.0  0.77199  0.24664  0.19105  1.0000
  C   C378      1.0  0.64430  0.13724  0.12423  1.0000
  C   C379      1.0  0.66156  0.15388  0.12958  1.0000
  C   C380      1.0  0.66096  0.16846  0.16130  1.0000
  C   C381      1.0  0.64293  0.16690  0.18780  1.0000
  C   C382      1.0  0.62548  0.15050  0.18219  1.0000
  C   C383      1.0  0.62629  0.13566  0.15075  1.0000
  H   H459      1.0  0.67557  0.15526  0.10957  1.0000
  H   H460      1.0  0.67464  0.18094  0.16539  1.0000
  H   H461      1.0  0.61156  0.14899  0.20231  1.0000
  H   H462      1.0  0.61286  0.12286  0.14698  1.0000
  S   S109      1.0  0.82255  0.29255  0.11216  1.0000
  H   H463      1.0  0.56418  0.13812  0.38631  1.0000
  H   H464      1.0  0.77447  0.26142  0.20962  1.0000
  H   H465      1.0  0.81375  0.19278  0.06640  1.0000
  C   C384      1.0  0.68219  0.27623  0.33414  1.0000
  C   C385      1.0  0.78494  0.22328  0.13687  1.0000
  S   S110      1.0  0.71767  0.30676  0.32860  1.0000
  C   C386      1.0  0.78747  0.24260  0.16149  1.0000
  C   C387      1.0  0.57304  0.19943  0.49392  1.0000
  H   H466      1.0  0.80273  0.18159  0.10894  1.0000
  C   C388      1.0  0.68871  0.26730  0.20369  1.0000
  N   N28       1.0  0.66737  0.25570  0.21696  1.0000
  C   C389      1.0  0.67387  0.23898  0.24686  1.0000
  C   C390      1.0  0.65015  0.27383  0.23154  1.0000
  C   C391      1.0  0.65516  0.24213  0.18806  1.0000
  H   H467      1.0  0.68613  0.22456  0.23674  1.0000
  H   H468      1.0  0.68245  0.24776  0.27035  1.0000
  H   H469      1.0  0.65812  0.23042  0.25820  1.0000
  H   H470      1.0  0.65728  0.28403  0.25485  1.0000
  C   C392      1.0  0.49703  0.17059  0.17760  1.0000
  H   H471      1.0  0.53713  0.19554  0.42252  1.0000
  H   H472      1.0  0.63903  0.23400  0.19910  1.0000
  H   H473      1.0  0.64935  0.25363  0.16479  1.0000
  C   C393      1.0  0.65103  0.27479  0.43691  1.0000
  N   N29       1.0  0.53464  0.15867  0.40889  1.0000
  C   C394      1.0  0.52564  0.18362  0.40695  1.0000
  H   H474      1.0  0.68872  0.25426  0.14656  1.0000
  C   C395      1.0  0.96642  0.29845  0.09830  1.0000
  C   C396      1.0  0.53793  0.15185  0.44791  1.0000
  H   H475      1.0  0.66645  0.22711  0.17732  1.0000
  H   H476      1.0  0.63880  0.28969  0.44537  1.0000
  H   H477      1.0  0.71579  0.00874  0.06960  1.0000
  H   H478      1.0  0.82983  0.24141  0.12289  1.0000
  C   C397      1.0  0.56015  0.14435  0.46261  1.0000
  H   H479      1.0  0.59599  0.24691  0.47774  1.0000
  H   H480      1.0  0.94790  0.29506  0.09457  1.0000
  H   H481      1.0  0.52482  0.19012  0.37811  1.0000
  H   H482      1.0  0.60644  0.26467  0.42377  1.0000
  H   H483      1.0  0.69624  0.26304  0.33815  1.0000
  H   H484      1.0  0.57604  0.14306  0.44619  1.0000
  C   C398      1.0  0.55665  0.15655  0.38676  1.0000
  H   H485      1.0  0.52302  0.12438  0.39311  1.0000
  H   H486      1.0  0.63512  0.16905  0.48845  1.0000
  H   H487      1.0  0.72305  0.27518  0.12689  1.0000
  C   C399      1.0  0.49866  0.22517  0.29931  1.0000
  C   C400      1.0  0.71699  0.27692  0.15515  1.0000
  H   H488      1.0  0.76135  0.19441  0.12467  1.0000
  H   H489      1.0  0.79550  0.25574  0.08775  1.0000
  H   H490      1.0  0.62488  0.25138  0.38930  1.0000
  H   H491      1.0  0.65517  0.27728  0.40723  1.0000
  H   H492      1.0  0.74116  0.23531  0.21931  1.0000
  C   C401      1.0  0.74976  0.21325  0.17226  1.0000
  C   C402      1.0  0.82608  0.22271  0.11636  1.0000
  H   H493      1.0  0.49950  0.14547  0.40380  1.0000
  H   H494      1.0  0.97768  0.26247  0.08760  1.0000
  C   C403      1.0  0.65756  0.23242  0.43299  1.0000
  N   N30       1.0  0.68122  0.04350  0.09090  1.0000
  C   C404      1.0  0.70564  0.05156  0.08644  1.0000
  C   C405      1.0  0.66643  0.05563  0.06274  1.0000
  C   C406      1.0  0.67280  0.05137  0.12790  1.0000
  C   C407      1.0  0.67930  0.01759  0.08673  1.0000
  C   C408      1.0  0.65731  0.00699  0.09214  1.0000
  C   C409      1.0  0.69862  0.00232  0.07594  1.0000
  C   C410      1.0  0.51729  0.14336  0.39118  1.0000
  C   C411      1.0  0.66936  0.31693  0.32491  1.0000
  C   C412      1.0  0.75321  0.23196  0.19649  1.0000
  H   H495      1.0  0.71244  0.04811  0.05800  1.0000
  H   H496      1.0  0.70661  0.07098  0.09097  1.0000
  H   H497      1.0  0.71785  0.04282  0.10650  1.0000
  H   H498      1.0  0.67191  0.04999  0.03455  1.0000
  H   H499      1.0  0.66792  0.07511  0.06431  1.0000
  H   H500      1.0  0.64743  0.05218  0.06589  1.0000
  H   H501      1.0  0.68282  0.04196  0.15004  1.0000
  H   H502      1.0  0.67470  0.07077  0.13197  1.0000
  H   H503      1.0  0.65379  0.04842  0.13220  1.0000
  H   H504      1.0  0.64170  0.01753  0.09929  1.0000
  H   H505      1.0  0.50484  0.19233  0.22440  1.0000
  H   H506      1.0  0.73493  0.20202  0.17632  1.0000
  C   C413      1.0  0.76525  0.20895  0.14271  1.0000
  H   H507      1.0  0.57026  0.16846  0.39721  1.0000
  C   C414      1.0  0.64581  0.30988  0.32331  1.0000
  H   H508      1.0  0.61127  0.23278  0.42178  1.0000
  H   H509      1.0  0.50119  0.15878  0.46356  1.0000
  H   H510      1.0  0.66784  0.27663  0.45198  1.0000
  H   H511      1.0  0.50753  0.18612  0.41822  1.0000
  H   H512      1.0  0.67486  0.23398  0.44671  1.0000
  H   H513      1.0  0.69664  0.28403  0.25646  1.0000
  H   H514      1.0  0.80125  0.25502  0.15785  1.0000
  N   N31       1.0  0.64037  0.25169  0.44364  1.0000
  H   H515      1.0  0.83074  0.21172  0.14077  1.0000
  C   C415      1.0  0.69719  0.26499  0.16689  1.0000
  C   C416      1.0  0.72892  0.29129  0.17952  1.0000
  H   H516      1.0  0.65081  0.21480  0.44026  1.0000
  C   C417      1.0  0.95990  0.28313  0.00579  1.0000
  H   H517      1.0  0.48426  0.16933  0.32139  1.0000
  Fe  Fe55      1.0  0.84679  0.24909  0.00057  1.0000
  C   C418      1.0  0.81859  0.31277  0.14986  1.0000
  C   C419      1.0  0.72142  0.29345  0.21594  1.0000
  C   C420      1.0  0.97683  0.30079  0.00538  1.0000
  S   S111      1.0  0.82021  0.27818  0.01179  1.0000
  C   C421      1.0  0.79943  0.30996  0.17396  1.0000
  H   H518      1.0  0.74400  0.30082  0.17019  1.0000
  H   H519      1.0  0.55544  0.20737  0.49526  1.0000
  C   C422      1.0  0.49107  0.18532  0.20727  1.0000
  C   C423      1.0  0.96821  0.25947  0.00527  1.0000
  H   H520      1.0  0.95569  0.24556  0.00554  1.0000
  Fe  Fe56      1.0  0.88888  0.28250  0.00882  1.0000
  S   S112      1.0  0.92886  0.29162  0.00718  1.0000
  C   C424      1.0  0.98326  0.28009  0.09434  1.0000
  H   H521      1.0  0.48412  0.14993  0.13279  1.0000
  H   H522      1.0  0.62142  0.08723  0.90699  1.0000
  C   C425      1.0  0.65216  0.31427  0.71933  1.0000
  C   C426      1.0  0.74403  0.28213  0.82516  1.0000
  S   S113      1.0  0.70718  0.04317  0.97765  1.0000
  H   H523      1.0  0.61620  0.00631  0.95706  1.0000
  Fe  Fe57      1.0  0.69394  0.08270  0.98184  1.0000
  Fe  Fe58      1.0  0.66297  0.12318  0.94793  1.0000
  S   S114      1.0  0.63475  0.13621  0.90678  1.0000
  S   S115      1.0  0.70084  0.11116  0.93909  1.0000
  Fe  Fe59      1.0  0.60171  0.18471  0.70313  1.0000
  S   S116      1.0  0.59579  0.22173  0.72488  1.0000
  S   S117      1.0  0.62421  0.15681  0.73427  1.0000
  Fe  Fe60      1.0  0.58204  0.19851  0.62553  1.0000
  S   S118      1.0  0.57576  0.23625  0.64303  1.0000
  S   S119      1.0  0.56752  0.19192  0.56796  1.0000
  Fe  Fe61      1.0  0.61098  0.23333  0.67090  1.0000
  S   S120      1.0  0.64342  0.25432  0.65845  1.0000
  Fe  Fe62      1.0  0.56085  0.22087  0.69473  1.0000
  S   S121      1.0  0.52588  0.23684  0.71606  1.0000
  S   S122      1.0  0.61821  0.19634  0.64994  1.0000
  S   S123      1.0  0.56577  0.18304  0.67644  1.0000
  H   H524      1.0  0.83527  0.23407  0.88698  1.0000
  C   C427      1.0  0.65289  0.03910  0.84419  1.0000
  H   H525      1.0  0.82883  0.26141  0.86452  1.0000
  H   H526      1.0  0.66913  0.08228  0.84098  1.0000
  H   H527      1.0  0.98189  0.26589  0.92327  1.0000
  C   C428      1.0  0.62395  0.24542  0.55942  1.0000
  Fe  Fe63      1.0  0.84169  0.30009  0.97403  1.0000
  H   H528      1.0  0.80202  0.26785  0.81877  1.0000
  S   S124      1.0  0.86754  0.27027  0.95974  1.0000
  H   H529      1.0  0.75161  0.25255  0.90517  1.0000
  H   H530      1.0  0.66101  0.24778  0.56827  1.0000
  H   H531      1.0  0.50657  0.14959  0.52887  1.0000
  C   C429      1.0  0.67773  0.28581  0.66941  1.0000
  C   C430      1.0  0.75643  0.25975  0.87880  1.0000
  H   H532      1.0  0.82118  0.23384  0.84289  1.0000
  H   H533      1.0  0.59221  0.07904  0.95298  1.0000
  H   H534      1.0  0.68149  0.06189  0.91741  1.0000
  C   C431      1.0  0.58398  0.19136  0.52643  1.0000
  C   C432      1.0  0.61745  0.02389  0.94561  1.0000
  H   H535      1.0  0.52596  0.22115  0.60000  1.0000
  H   H536      1.0  0.61531  0.17473  0.54917  1.0000
  C   C433      1.0  0.83118  0.31150  0.86361  1.0000
  C   C434      1.0  0.49828  0.22391  0.70865  1.0000
  C   C435      1.0  0.49669  0.20087  0.69504  1.0000
  H   H537      1.0  0.51257  0.19051  0.68867  1.0000
  H   H538      1.0  0.65563  0.02018  0.85167  1.0000
  H   H539      1.0  0.77961  0.14610  0.98433  1.0000
  C   C436      1.0  0.76297  0.20423  0.99139  1.0000
  C   C437      1.0  0.77997  0.25754  0.86554  1.0000
  C   C438      1.0  0.65479  0.27983  0.67899  1.0000
  C   C439      1.0  0.64200  0.29407  0.70416  1.0000
  C   C440      1.0  0.63701  0.05104  0.90386  1.0000
  H   H540      1.0  0.77101  0.28858  0.78531  1.0000
  C   C441      1.0  0.76687  0.28017  0.81124  1.0000
  H   H541      1.0  0.62423  0.28974  0.71156  1.0000
  H   H542      1.0  0.49698  0.24478  0.63674  1.0000
  H   H543      1.0  0.78821  0.21076  0.87018  1.0000
  H   H544      1.0  0.68780  0.27480  0.65013  1.0000
  H   H545      1.0  0.54598  0.13823  0.55303  1.0000
  S   S125      1.0  0.65567  0.09357  0.98735  1.0000
  C   C442      1.0  0.97038  0.30149  0.91093  1.0000
  C   C443      1.0  0.63330  0.14352  0.85908  1.0000
  C   C444      1.0  0.65155  0.13771  0.83427  1.0000
  C   C445      1.0  0.64861  0.14220  0.79628  1.0000
  C   C446      1.0  0.62777  0.15325  0.78272  1.0000
  C   C447      1.0  0.61000  0.16004  0.80777  1.0000
  C   C448      1.0  0.61266  0.15493  0.84557  1.0000
  H   H546      1.0  0.66774  0.12942  0.84418  1.0000
  H   H547      1.0  0.66253  0.13698  0.77720  1.0000
  H   H548      1.0  0.59382  0.16843  0.79785  1.0000
  H   H549      1.0  0.59844  0.15961  0.86445  1.0000
  C   C449      1.0  0.62101  0.06923  0.91667  1.0000
  H   H550      1.0  0.63496  0.04140  0.83210  1.0000
  S   S126      1.0  0.67106  0.14810  0.99412  1.0000
  C   C450      1.0  0.63470  0.02822  0.91923  1.0000
  H   H551      1.0  0.68160  0.03177  0.90250  1.0000
  C   C451      1.0  0.54356  0.14134  0.52381  1.0000
  C   C452      1.0  0.64709  0.24786  0.54786  1.0000
  H   H552      1.0  0.81526  0.24962  0.94045  1.0000
  C   C453      1.0  0.73878  0.27185  0.85882  1.0000
  H   H553      1.0  0.80563  0.21075  0.91147  1.0000
  N   N32       1.0  0.66715  0.22663  0.76664  1.0000
  C   C454      1.0  0.68591  0.23741  0.74443  1.0000
  C   C455      1.0  0.65802  0.20681  0.74464  1.0000
  C   C456      1.0  0.64788  0.24475  0.77189  1.0000
  C   C457      1.0  0.67528  0.21795  0.80305  1.0000
  C   C458      1.0  0.69821  0.22187  0.81695  1.0000
  C   C459      1.0  0.65994  0.20535  0.82611  1.0000
  C   C460      1.0  0.70533  0.21315  0.85135  1.0000
  C   C461      1.0  0.66724  0.19678  0.86044  1.0000
  C   C462      1.0  0.68991  0.20055  0.87296  1.0000
  H   H554      1.0  0.70103  0.22468  0.73963  1.0000
  H   H555      1.0  0.67937  0.24279  0.71670  1.0000
  H   H556      1.0  0.69224  0.25380  0.75752  1.0000
  H   H557      1.0  0.67105  0.19164  0.74289  1.0000
  H   H558      1.0  0.65343  0.21222  0.71598  1.0000
  H   H559      1.0  0.64160  0.20005  0.75646  1.0000
  H   H560      1.0  0.65396  0.26022  0.78779  1.0000
  H   H561      1.0  0.64103  0.25137  0.74498  1.0000
  H   H562      1.0  0.63257  0.23768  0.78681  1.0000
  H   H563      1.0  0.71102  0.23151  0.80172  1.0000
  H   H564      1.0  0.64214  0.20189  0.81773  1.0000
  H   H565      1.0  0.72295  0.21605  0.86130  1.0000
  H   H566      1.0  0.65525  0.18700  0.87740  1.0000
  H   H567      1.0  0.69550  0.19365  0.89952  1.0000
  C   C463      1.0  0.65521  0.07975  0.86206  1.0000
  C   C464      1.0  0.76060  0.17959  0.98870  1.0000
  C   C465      1.0  0.78466  0.26812  0.83098  1.0000
  H   H568      1.0  0.69367  0.05359  0.87341  1.0000
  C   C466      1.0  0.69717  0.01323  0.97980  1.0000
  H   H569      1.0  0.73050  0.29199  0.81003  1.0000
  H   H570      1.0  0.78491  0.25902  0.93980  1.0000
  Fe  Fe64      1.0  0.70896  0.13525  0.98725  1.0000
  C   C467      1.0  0.50726  0.21940  0.59514  1.0000
  S   S127      1.0  0.73170  0.16827  0.98802  1.0000
  H   H571      1.0  0.66052  0.02210  0.98943  1.0000
  C   C468      1.0  0.60588  0.24536  0.53366  1.0000
  H   H572      1.0  0.80622  0.27670  0.91808  1.0000
  H   H573      1.0  0.65850  0.09269  0.88449  1.0000
  H   H574      1.0  0.64649  0.01357  0.91142  1.0000
  H   H575      1.0  0.62000  0.24338  0.58845  1.0000
  C   C469      1.0  0.60395  0.06474  0.94329  1.0000
  H   H576      1.0  0.77554  0.22024  0.91343  1.0000
  H   H577      1.0  0.72104  0.27369  0.86984  1.0000
  H   H578      1.0  0.63807  0.08477  0.84888  1.0000
  C   C470      1.0  0.68786  0.30585  0.68462  1.0000
  N   N33       1.0  0.65561  0.05515  0.87621  1.0000
  H   H579      1.0  0.66592  0.04253  0.82207  1.0000
  C   C471      1.0  0.67905  0.05033  0.89296  1.0000
  N   N34       1.0  0.79844  0.24524  0.88782  1.0000
  C   C472      1.0  0.80128  0.25815  0.92303  1.0000
  C   C473      1.0  0.79159  0.22076  0.89597  1.0000
  C   C474      1.0  0.82189  0.24359  0.86954  1.0000
  H   H580      1.0  0.58896  0.03879  0.97845  1.0000
  C   C475      1.0  0.60675  0.18113  0.52439  1.0000
  C   C476      1.0  0.67358  0.00790  0.98592  1.0000
  H   H581      1.0  0.95190  0.29808  0.91514  1.0000
  H   H582      1.0  0.84668  0.30248  0.87475  1.0000
  H   H583      1.0  0.58794  0.24309  0.54294  1.0000
  C   C477      1.0  0.52143  0.14803  0.51015  1.0000
  H   H584      1.0  0.51271  0.19331  0.55290  1.0000
  C   C478      1.0  0.60215  0.04213  0.95771  1.0000
  C   C479      1.0  0.78535  0.21422  0.99192  1.0000
  H   H585      1.0  0.71195  0.31597  0.57344  1.0000
  H   H586      1.0  0.74729  0.21567  0.99313  1.0000
  H   H587      1.0  0.58008  0.13460  0.51098  1.0000
  C   C480      1.0  0.65229  0.25001  0.51036  1.0000
  C   C481      1.0  0.49086  0.23274  0.61577  1.0000
  C   C482      1.0  0.78105  0.16506  0.98650  1.0000
  S   S128      1.0  0.83462  0.21133  0.99033  1.0000
  H   H588      1.0  0.68670  0.30751  0.54783  1.0000
  C   C483      1.0  0.80347  0.17509  0.98688  1.0000
  C   C484      1.0  0.82764  0.31231  0.82517  1.0000
  H   H589      1.0  0.84036  0.30358  0.80695  1.0000
  C   C485      1.0  0.80582  0.19971  0.98971  1.0000
  C   C486      1.0  0.49965  0.20360  0.56865  1.0000
  C   C487      1.0  0.71364  0.99410  0.97535  1.0000
  H   H590      1.0  0.73194  0.99770  0.97051  1.0000
  H   H591      1.0  0.70542  0.31026  0.67659  1.0000
  H   H592      1.0  0.81912  0.16362  0.98504  1.0000
  H   H593      1.0  0.68626  0.30633  0.59703  1.0000
  H   H594      1.0  0.67054  0.25166  0.50272  1.0000
  H   H595      1.0  0.78670  0.23316  0.99403  1.0000
  C   C488      1.0  0.69231  0.31677  0.57314  1.0000
  C   C489      1.0  0.56278  0.13928  0.50004  1.0000
  Fe  Fe65      1.0  0.75525  0.60676  0.37170  1.0000
  S   S129      1.0  0.72918  0.57953  0.35680  1.0000
  S   S130      1.0  0.75511  0.62300  0.42946  1.0000
  Fe  Fe66      1.0  0.76832  0.61503  0.28865  1.0000
  S   S131      1.0  0.74220  0.58889  0.26916  1.0000
  H   H596      1.0  0.78114  0.32220  0.22342  1.0000
  Fe  Fe67      1.0  0.71793  0.60514  0.31242  1.0000
  S   S132      1.0  0.67925  0.61593  0.30850  1.0000
  Fe  Fe68      1.0  0.75612  0.56582  0.31548  1.0000
  S   S133      1.0  0.77157  0.52849  0.30489  1.0000
  S   S134      1.0  0.74289  0.63287  0.32869  1.0000
  S   S135      1.0  0.78330  0.59154  0.33360  1.0000
  Fe  Fe69      1.0  0.76687  0.37059  0.37793  1.0000
  S   S136      1.0  0.72791  0.37286  0.36851  1.0000
  S   S137      1.0  0.78342  0.37917  0.43350  1.0000
  Fe  Fe70      1.0  0.77777  0.36346  0.29392  1.0000
  S   S138      1.0  0.73930  0.36590  0.27925  1.0000
  C   C490      1.0  0.71093  0.37968  0.48258  1.0000
  Fe  Fe71      1.0  0.73653  0.39617  0.32035  1.0000
  S   S139      1.0  0.71712  0.43195  0.31477  1.0000
  Fe  Fe72      1.0  0.73443  0.34259  0.32875  1.0000
  H   H597      1.0  0.71845  0.38868  0.45926  1.0000
  S   S140      1.0  0.77502  0.39531  0.33163  1.0000
  S   S141      1.0  0.77330  0.33874  0.34149  1.0000
  C   C491      1.0  0.75579  0.50202  0.30751  1.0000
  C   C492      1.0  0.76760  0.48042  0.29886  1.0000
  C   C493      1.0  0.75614  0.45887  0.30170  1.0000
  C   C494      1.0  0.73247  0.45870  0.31236  1.0000
  C   C495      1.0  0.72049  0.48037  0.32026  1.0000
  C   C496      1.0  0.73212  0.50192  0.31817  1.0000
  H   H598      1.0  0.78575  0.48029  0.28990  1.0000
  H   H599      1.0  0.76548  0.44243  0.29486  1.0000
  H   H600      1.0  0.70213  0.48046  0.32823  1.0000
  H   H601      1.0  0.72274  0.51841  0.32472  1.0000
  C   C497      1.0  0.83710  0.44692  0.33700  1.0000
  H   H602      1.0  0.87869  0.38923  0.36031  1.0000
  H   H603      1.0  0.69260  0.35528  0.44888  1.0000
  H   H604      1.0  0.81317  0.57705  0.01177  1.0000
  H   H605      1.0  0.85086  0.40730  0.29509  1.0000
  H   H606      1.0  0.81521  0.55804  0.28924  1.0000
  C   C498      1.0  0.79932  0.45272  0.38586  1.0000
  H   H607      1.0  0.82282  0.39595  0.30576  1.0000
  C   C499      1.0  0.84154  0.39592  0.31469  1.0000
  C   C500      1.0  0.63739  0.63731  0.22792  1.0000
  C   C501      1.0  0.67358  0.64647  0.30294  1.0000
  C   C502      1.0  0.76266  0.60931  0.47193  1.0000
  C   C503      1.0  0.77519  0.58759  0.47360  1.0000
  C   C504      1.0  0.79328  0.56733  0.22530  1.0000
  H   H608      1.0  0.78012  0.57838  0.44840  1.0000
  H   H609      1.0  0.85130  0.44544  0.31721  1.0000
  H   H610      1.0  0.63949  0.64629  0.32905  1.0000
  C   C505      1.0  0.78848  0.62485  0.17776  1.0000
  C   C506      1.0  0.79591  0.32469  0.20518  1.0000
  H   H611      1.0  0.77546  0.61251  0.18593  1.0000
  C   C507      1.0  0.76161  0.34759  0.47958  1.0000
  S   S142      1.0  0.80875  0.36081  0.25303  1.0000
  H   H612      1.0  0.83541  0.38971  0.40715  1.0000
  C   C508      1.0  0.80622  0.47175  0.36486  1.0000
  H   H613      1.0  0.86290  0.61320  0.12687  1.0000
  H   H614      1.0  0.81584  0.38130  0.37091  1.0000
  H   H615      1.0  0.67339  0.33532  0.32149  1.0000
  C   C509      1.0  0.81170  0.34240  0.21301  1.0000
  C   C510      1.0  0.56660  0.64801  0.26511  1.0000
  C   C511      1.0  0.83441  0.38505  0.37738  1.0000
  H   H616      1.0  0.60614  0.62613  0.25269  1.0000
  H   H617      1.0  0.84448  0.36795  0.37357  1.0000
  C   C512      1.0  0.85480  0.60262  0.14788  1.0000
  H   H618      1.0  0.83004  0.48368  0.32375  1.0000
  H   H619      1.0  0.71400  0.64678  0.45553  1.0000
  C   C513      1.0  0.82465  0.56905  0.26900  1.0000
  H   H620      1.0  0.82736  0.60491  0.01474  1.0000
  C   C514      1.0  0.85618  0.60921  0.18475  1.0000
  H   H621      1.0  0.70660  0.64136  0.39319  1.0000
  H   H622      1.0  0.78775  0.61452  0.12045  1.0000
  H   H623      1.0  0.96022  0.33549  0.10851  1.0000
  C   C515      1.0  0.82402  0.53684  0.22614  1.0000
  H   H624      1.0  0.81699  0.52964  0.20009  1.0000
  H   H625      1.0  0.84579  0.60317  0.23960  1.0000
  C   C516      1.0  0.82510  0.46888  0.34053  1.0000
  H   H626      1.0  0.81908  0.58771  0.27550  1.0000
  C   C517      1.0  0.84481  0.59636  0.21185  1.0000
  H   H627      1.0  0.87739  0.41890  0.34398  1.0000
  H   H628      1.0  0.87061  0.41314  0.39133  1.0000
  H   H629      1.0  0.78740  0.56309  0.19697  1.0000
  S   S143      1.0  0.79323  0.63635  0.25263  1.0000
  N   N35       1.0  0.81885  0.56264  0.23044  1.0000
  C   C518      1.0  0.79528  0.62626  0.14039  1.0000
  C   C519      1.0  0.83184  0.57616  0.20266  1.0000
  H   H630      1.0  0.84884  0.37755  0.31051  1.0000
  H   H631      1.0  0.82016  0.55572  0.15539  1.0000
  H   H632      1.0  0.75614  0.33860  0.45486  1.0000
  C   C520      1.0  0.86862  0.40646  0.36263  1.0000
  H   H633      1.0  0.80339  0.59970  0.04412  1.0000
  H   H634      1.0  0.80487  0.41685  0.39981  1.0000
  H   H635      1.0  0.84383  0.56660  0.27444  1.0000
  H   H636      1.0  0.78271  0.55672  0.24449  1.0000
  C   C521      1.0  0.81188  0.64251  0.12870  1.0000
  H   H637      1.0  0.84315  0.35892  0.19451  1.0000
  C   C522      1.0  0.83057  0.57012  0.16470  1.0000
  H   H638      1.0  0.79650  0.48862  0.36674  1.0000
  H   H639      1.0  0.84035  0.57864  0.10897  1.0000
  H   H640      1.0  0.86534  0.62498  0.19225  1.0000
  H   H641      1.0  0.78851  0.58626  0.23069  1.0000
  C   C523      1.0  0.61457  0.64134  0.24174  1.0000
  C   C524      1.0  0.77471  0.36790  0.47676  1.0000
  H   H642      1.0  0.84331  0.53273  0.22699  1.0000
  C   C525      1.0  0.84199  0.58315  0.13785  1.0000
  H   H643      1.0  0.84904  0.33310  0.13926  1.0000
  C   C526      1.0  0.79882  0.63916  0.20432  1.0000
  C   C527      1.0  0.81137  0.43078  0.38293  1.0000
  H   H644      1.0  0.81555  0.52657  0.24842  1.0000
  C   C528      1.0  0.83419  0.33070  0.15735  1.0000
  N   N36       1.0  0.84342  0.40398  0.35351  1.0000
  H   H645      1.0  0.97085  0.31916  0.00571  1.0000
  H   H646      1.0  0.78417  0.45481  0.40401  1.0000
  C   C529      1.0  0.83059  0.42713  0.35813  1.0000
  C   C530      1.0  0.83081  0.34531  0.18882  1.0000
  H   H647      1.0  0.56491  0.63758  0.23924  1.0000
  S   S144      1.0  0.82182  0.64145  0.08196  1.0000
  H   H648      1.0  0.63176  0.32299  0.31877  1.0000
  C   C531      1.0  0.69644  0.36075  0.47684  1.0000
  H   H649      1.0  0.64573  0.61974  0.22906  1.0000
  C   C532      1.0  0.81003  0.59643  0.01557  1.0000
  H   H650      1.0  0.76436  0.60240  0.02529  1.0000
  H   H651      1.0  0.78639  0.63829  0.01890  1.0000
  H   H652      1.0  0.57485  0.63650  0.28663  1.0000
  C   C533      1.0  0.97344  0.32125  0.10583  1.0000
  C   C534      1.0  0.69265  0.35505  0.54369  1.0000
  Fe  Fe73      1.0  0.78240  0.60334  0.72190  1.0000
  S   S145      1.0  0.74407  0.60245  0.73695  1.0000
  S   S146      1.0  0.81187  0.61366  0.76128  1.0000
  Fe  Fe74      1.0  0.77245  0.59027  0.63974  1.0000
  S   S147      1.0  0.73366  0.58928  0.64993  1.0000
  S   S148      1.0  0.78630  0.57813  0.58344  1.0000
  Fe  Fe75      1.0  0.73789  0.62217  0.68388  1.0000
  H   H653      1.0  0.84058  0.42237  0.77982  1.0000
  Fe  Fe76      1.0  0.74391  0.56930  0.70143  1.0000
  S   S149      1.0  0.72462  0.53538  0.71239  1.0000
  S   S150      1.0  0.77638  0.62446  0.67019  1.0000
  S   S151      1.0  0.78266  0.56890  0.68993  1.0000
  Fe  Fe77      1.0  0.77643  0.34586  0.72804  1.0000
  S   S152      1.0  0.75006  0.37265  0.75099  1.0000
  C   C535      1.0  0.82234  0.38346  0.89925  1.0000
  Fe  Fe78      1.0  0.75814  0.35358  0.64770  1.0000
  S   S153      1.0  0.73121  0.38138  0.66598  1.0000
  S   S154      1.0  0.75554  0.33767  0.59006  1.0000
  Fe  Fe79      1.0  0.75966  0.39513  0.70241  1.0000
  S   S155      1.0  0.77404  0.43215  0.70785  1.0000
  Fe  Fe80      1.0  0.72425  0.35611  0.71219  1.0000
  H   H654      1.0  0.77382  0.40021  0.81862  1.0000
  S   S156      1.0  0.78735  0.36879  0.68081  1.0000
  S   S157      1.0  0.75000  0.32790  0.69276  1.0000
  C   C536      1.0  0.76304  0.34998  0.54694  1.0000
  H   H655      1.0  0.77282  0.62574  0.81188  1.0000
  C   C537      1.0  0.76759  0.52411  0.61659  1.0000
  C   C538      1.0  0.67379  0.64939  0.69436  1.0000
  H   H656      1.0  0.83684  0.61315  0.95664  1.0000
  C   C539      1.0  0.84490  0.38635  0.83120  1.0000
  C   C540      1.0  0.81839  0.58758  0.87819  1.0000
  H   H657      1.0  0.78015  0.64051  0.97026  1.0000
  H   H658      1.0  0.77628  0.34508  0.82286  1.0000
  H   H659      1.0  0.78492  0.52363  0.60216  1.0000
  C   C541      1.0  0.84506  0.37377  0.89475  1.0000
  C   C542      1.0  0.77627  0.59016  0.54099  1.0000
  C   C543      1.0  0.76311  0.61153  0.53938  1.0000
  H   H660      1.0  0.75356  0.47745  0.63785  1.0000
  H   H661      1.0  0.75866  0.62099  0.56457  1.0000
  H   H662      1.0  0.68108  0.34163  0.63452  1.0000
  C   C544      1.0  0.73850  0.50671  0.71319  1.0000
  C   C545      1.0  0.72460  0.48666  0.71173  1.0000
  C   C546      1.0  0.73507  0.46364  0.71041  1.0000
  C   C547      1.0  0.75961  0.46047  0.71083  1.0000
  C   C548      1.0  0.77346  0.48048  0.71290  1.0000
  C   C549      1.0  0.76300  0.50345  0.71410  1.0000
  H   H663      1.0  0.70562  0.48898  0.71121  1.0000
  H   H664      1.0  0.72418  0.44842  0.70889  1.0000
  H   H665      1.0  0.79245  0.47825  0.71321  1.0000
  H   H666      1.0  0.77393  0.51863  0.71556  1.0000
  H   H667      1.0  0.72846  0.40069  0.52256  1.0000
  C   C550      1.0  0.77584  0.37051  0.54416  1.0000
  C   C551      1.0  0.78215  0.57821  0.50797  1.0000
  C   C552      1.0  0.81020  0.62814  0.80495  1.0000
  H   H668      1.0  0.76246  0.43631  0.62174  1.0000
  C   C553      1.0  0.72596  0.51783  0.61253  1.0000
  H   H669      1.0  0.71129  0.51126  0.59559  1.0000
  H   H670      1.0  0.72142  0.53645  0.62082  1.0000
  H   H671      1.0  0.72635  0.50766  0.63857  1.0000
  H   H672      1.0  0.76392  0.54263  0.62591  1.0000
  H   H673      1.0  0.76961  0.51345  0.64194  1.0000
  H   H674      1.0  0.81347  0.38156  0.92551  1.0000
  C   C554      1.0  0.80167  0.59949  0.95000  1.0000
  H   H675      1.0  0.75620  0.49551  0.52167  1.0000
  C   C555      1.0  0.76211  0.45952  0.53565  1.0000
  H   H676      1.0  0.80976  0.63990  0.98637  1.0000
  C   C556      1.0  0.83100  0.63590  0.82129  1.0000
  S   S158      1.0  0.80428  0.32490  0.76141  1.0000
  C   C557      1.0  0.85635  0.37527  0.86083  1.0000
  H   H677      1.0  0.77618  0.42281  0.78500  1.0000
  C   C558      1.0  0.81503  0.32297  0.88742  1.0000
  H   H678      1.0  0.71360  0.37993  0.57532  1.0000
  C   C559      1.0  0.79230  0.63230  0.99098  1.0000
  C   C560      1.0  0.65698  0.34188  0.57305  1.0000
  H   H679      1.0  0.79216  0.39488  0.50728  1.0000
  C   C561      1.0  0.78887  0.63200  0.82374  1.0000
  C   C562      1.0  0.97725  0.32409  0.90191  1.0000
  C   C563      1.0  0.76082  0.44940  0.60002  1.0000
  H   H680      1.0  0.82458  0.58366  0.85044  1.0000
  H   H681      1.0  0.78392  0.42919  0.83137  1.0000
  H   H682      1.0  0.68349  0.37014  0.61477  1.0000
  H   H683      1.0  0.79954  0.39662  0.74740  1.0000
  H   H684      1.0  0.82660  0.38323  0.76206  1.0000
  H   H685      1.0  0.78156  0.37929  0.56890  1.0000
  H   H686      1.0  0.85089  0.60224  0.89519  1.0000
  H   H687      1.0  0.78371  0.57558  0.86788  1.0000
  H   H688      1.0  0.74716  0.63809  0.50405  1.0000
  C   C564      1.0  0.74693  0.53226  0.56052  1.0000
  H   H689      1.0  0.79286  0.40097  0.87506  1.0000
  H   H690      1.0  0.85362  0.36453  0.91744  1.0000
  N   N37       1.0  0.79340  0.60621  0.98752  1.0000
  N   N38       1.0  0.68308  0.34163  0.57495  1.0000
  H   H691      1.0  0.75589  0.60602  0.97853  1.0000
  H   H692      1.0  0.63705  0.64339  0.70455  1.0000
  H   H693      1.0  0.71124  0.63876  0.56014  1.0000
  C   C565      1.0  0.75384  0.49084  0.58162  1.0000
  H   H694      1.0  0.67508  0.62401  0.53171  1.0000
  H   H695      1.0  0.67896  0.63079  0.69379  1.0000
  C   C566      1.0  0.81062  0.39442  0.86974  1.0000
  C   C567      1.0  0.82252  0.42746  0.78948  1.0000
  N   N39       1.0  0.74867  0.51582  0.59226  1.0000
  H   H696      1.0  0.74609  0.32270  0.51635  1.0000
  C   C568      1.0  0.75578  0.47309  0.60904  1.0000
  C   C569      1.0  0.82154  0.39601  0.83456  1.0000
  C   C570      1.0  0.79166  0.33582  0.83393  1.0000
  H   H697      1.0  0.76879  0.58528  0.92894  1.0000
  H   H698      1.0  0.85432  0.38688  0.80536  1.0000
  H   H699      1.0  0.74307  0.55085  0.56972  1.0000
  C   C571      1.0  0.78694  0.58892  0.92343  1.0000
  C   C572      1.0  0.82497  0.60412  0.93869  1.0000
  H   H700      1.0  0.82405  0.44080  0.81188  1.0000
  C   C573      1.0  0.83320  0.59802  0.90347  1.0000
  H   H701      1.0  0.73262  0.52758  0.54133  1.0000
  H   H702      1.0  0.84762  0.63294  0.80707  1.0000
  H   H703      1.0  0.78264  0.34400  0.89049  1.0000
  H   H704      1.0  0.64213  0.32541  0.73848  1.0000
  H   H705      1.0  0.76389  0.53268  0.54510  1.0000
  C   C574      1.0  0.79530  0.58312  0.88810  1.0000
  C   C575      1.0  0.68939  0.35127  0.61157  1.0000
  C   C576      1.0  0.80793  0.32455  0.81007  1.0000
  H   H706      1.0  0.87389  0.36737  0.85734  1.0000
  C   C577      1.0  0.68738  0.34858  0.50684  1.0000
  S   S159      1.0  0.68720  0.34620  0.72802  1.0000
  C   C578      1.0  0.79523  0.33503  0.87232  1.0000
  C   C579      1.0  0.75598  0.33859  0.51450  1.0000
  N   N40       1.0  0.80951  0.40681  0.80229  1.0000
  C   C580      1.0  0.80886  0.38927  0.77189  1.0000
  C   C581      1.0  0.78482  0.41508  0.80993  1.0000
  H   H707      1.0  0.81345  0.43636  0.76578  1.0000
  H   H708      1.0  0.79963  0.37331  0.78068  1.0000
  H   H709      1.0  0.63693  0.64437  0.54260  1.0000
  C   C582      1.0  0.70768  0.37435  0.54854  1.0000
  H   H710      1.0  0.64949  0.36036  0.57288  1.0000
  H   H711      1.0  0.76794  0.42423  0.55647  1.0000
  C   C583      1.0  0.75658  0.62116  0.50500  1.0000
  C   C584      1.0  0.78182  0.37929  0.50921  1.0000
  H   H712      1.0  0.70870  0.34954  0.61631  1.0000
  C   C585      1.0  0.75719  0.48334  0.54445  1.0000
  H   H713      1.0  0.79248  0.56177  0.50890  1.0000
  H   H714      1.0  0.76465  0.45412  0.50716  1.0000
  C   C586      1.0  0.67410  0.64011  0.54807  1.0000
  C   C587      1.0  0.76395  0.44261  0.56337  1.0000
  C   C588      1.0  0.69450  0.64836  0.56401  1.0000
  H   H715      1.0  0.96396  0.33817  0.89856  1.0000
  C   C589      1.0  0.78835  0.64375  0.85813  1.0000
  C   C590      1.0  0.83052  0.64752  0.85582  1.0000
  C   C591      1.0  0.71649  0.38648  0.51831  1.0000
  S   S160      1.0  0.81931  0.32390  0.93593  1.0000
  H   H716      1.0  0.77172  0.64682  0.87222  1.0000
  C   C592      1.0  0.67512  0.32031  0.70952  1.0000
  H   H717      1.0  0.64925  0.33271  0.59709  1.0000
  H   H718      1.0  0.65053  0.33276  0.54813  1.0000
  H   H719      1.0  0.67653  0.33381  0.50093  1.0000
  H   H720      1.0  0.76919  0.57812  0.99384  1.0000
  C   C593      1.0  0.76967  0.59770  0.99652  1.0000
  Fe  Fe81      1.0  0.83816  0.66952  0.04518  1.0000
  S   S161      1.0  0.86123  0.70080  0.05356  1.0000
  H   H721      1.0  0.86161  0.78819  0.02818  1.0000
  Fe  Fe82      1.0  0.67371  0.84898  0.03386  1.0000
  S   S162      1.0  0.67061  0.82855  0.08858  1.0000
  S   S163      1.0  0.70508  0.87168  0.02413  1.0000
  Fe  Fe83      1.0  0.62375  0.74457  0.29736  1.0000
  S   S164      1.0  0.62785  0.78311  0.30912  1.0000
  S   S165      1.0  0.65831  0.72537  0.28449  1.0000
  Fe  Fe84      1.0  0.57035  0.74958  0.30076  1.0000
  S   S166      1.0  0.57073  0.78858  0.31186  1.0000
  S   S167      1.0  0.53757  0.72784  0.29969  1.0000
  Fe  Fe85      1.0  0.59903  0.78912  0.26773  1.0000
  S   S168      1.0  0.59893  0.81838  0.22426  1.0000
  Fe  Fe86      1.0  0.59964  0.77895  0.35210  1.0000
  S   S169      1.0  0.60206  0.79772  0.40781  1.0000
  S   S170      1.0  0.59624  0.75066  0.25374  1.0000
  S   S171      1.0  0.59788  0.73982  0.34344  1.0000
  C   C594      1.0  0.50939  0.74149  0.29280  1.0000
  H   H722      1.0  0.52225  0.77487  0.27520  1.0000
  C   C595      1.0  0.50681  0.76485  0.28073  1.0000
  H   H723      1.0  0.82310  0.66701  0.21260  1.0000
  N   N41       1.0  0.70040  0.67503  0.42090  1.0000
  C   C596      1.0  0.64759  0.68143  0.31117  1.0000
  C   C597      1.0  0.66394  0.69516  0.29315  1.0000
  C   C598      1.0  0.68535  0.68467  0.28109  1.0000
  H   H724      1.0  0.49096  0.71058  0.30897  1.0000
  C   C599      1.0  0.53047  0.77785  0.41539  1.0000
  H   H725      1.0  0.63140  0.68964  0.32138  1.0000
  H   H726      1.0  0.69812  0.69526  0.26731  1.0000
  H   H727      1.0  0.57234  0.70358  0.23314  1.0000
  H   H728      1.0  0.63861  0.75013  0.41713  1.0000
  C   C600      1.0  0.59864  0.78479  0.45211  1.0000
  C   C601      1.0  0.59404  0.76085  0.45644  1.0000
  H   H729      1.0  0.71695  0.75024  0.00612  1.0000
  H   H730      1.0  0.59228  0.74970  0.43240  1.0000
  C   C602      1.0  0.56567  0.68541  0.23455  1.0000
  H   H731      1.0  0.83427  0.67008  0.14657  1.0000
  C   C603      1.0  0.64965  0.82554  0.12493  1.0000
  C   C604      1.0  0.62965  0.84058  0.12893  1.0000
  C   C605      1.0  0.61420  0.83795  0.15915  1.0000
  C   C606      1.0  0.61829  0.82009  0.18553  1.0000
  C   C607      1.0  0.63812  0.80486  0.18125  1.0000
  C   C608      1.0  0.65375  0.80773  0.15139  1.0000
  H   H732      1.0  0.62622  0.85440  0.10898  1.0000
  H   H733      1.0  0.59897  0.84987  0.16209  1.0000
  H   H734      1.0  0.64170  0.79119  0.20139  1.0000
  H   H735      1.0  0.66922  0.79609  0.14893  1.0000
  S   S172      1.0  0.81153  0.69037  0.01197  1.0000
  H   H736      1.0  0.65031  0.69348  0.20587  1.0000
  C   C609      1.0  0.59167  0.75127  0.49200  1.0000
  H   H737      1.0  0.56596  0.68544  0.30860  1.0000
  H   H738      1.0  0.60418  0.81751  0.48094  1.0000
  H   H739      1.0  0.69062  0.82713  0.21667  1.0000
  H   H740      1.0  0.63785  0.97496  0.09086  1.0000
  C   C610      1.0  0.77400  0.81207  0.01348  1.0000
  H   H741      1.0  0.69438  0.81113  0.27975  1.0000
  H   H742      1.0  0.73796  0.66928  0.41430  1.0000
  C   C611      1.0  0.68039  0.82404  0.27356  1.0000
  C   C612      1.0  0.49283  0.78061  0.44709  1.0000
  H   H743      1.0  0.72904  0.69732  0.43437  1.0000
  C   C613      1.0  0.95059  0.69188  0.00006  1.0000
  C   C614      1.0  0.61732  0.68307  0.22884  1.0000
  H   H744      1.0  0.56489  0.67822  0.20603  1.0000
  H   H745      1.0  0.54727  0.68804  0.24500  1.0000
  C   C615      1.0  0.82137  0.65760  0.15493  1.0000
  N   N42       1.0  0.62736  0.85517  0.32110  1.0000
  C   C616      1.0  0.63141  0.84445  0.35794  1.0000
  C   C617      1.0  0.62753  0.88121  0.32573  1.0000
  C   C618      1.0  0.60360  0.84865  0.30875  1.0000
  C   C619      1.0  0.64515  0.84747  0.29314  1.0000
  C   C620      1.0  0.64370  0.85629  0.25665  1.0000
  C   C621      1.0  0.66418  0.83118  0.30091  1.0000
  C   C622      1.0  0.66017  0.84927  0.22969  1.0000
  Fe  Fe87      1.0  0.83531  0.72069  0.01643  1.0000
  C   C623      1.0  0.58317  0.68148  0.29472  1.0000
  H   H746      1.0  0.64864  0.84928  0.36970  1.0000
  H   H747      1.0  0.61758  0.85024  0.37823  1.0000
  H   H748      1.0  0.63075  0.82484  0.35680  1.0000
  H   H749      1.0  0.64542  0.88690  0.33339  1.0000
  H   H750      1.0  0.61500  0.88756  0.34761  1.0000
  H   H751      1.0  0.62230  0.89070  0.30014  1.0000
  H   H752      1.0  0.58978  0.85315  0.32968  1.0000
  H   H753      1.0  0.59814  0.85752  0.28273  1.0000
  H   H754      1.0  0.60311  0.82935  0.30331  1.0000
  H   H755      1.0  0.62940  0.86816  0.24825  1.0000
  H   H756      1.0  0.66668  0.82325  0.32764  1.0000
  H   H757      1.0  0.61101  0.70127  0.23036  1.0000
  H   H758      1.0  0.74016  0.77074  0.00939  1.0000
  N   N43       1.0  0.58016  0.66956  0.25876  1.0000
  C   C624      1.0  0.67836  0.83305  0.23804  1.0000
  C   C625      1.0  0.48912  0.72868  0.29965  1.0000
  H   H759      1.0  0.78411  0.72905  0.09013  1.0000
  N   N44       1.0  0.71574  0.77160  0.05542  1.0000
  C   C626      1.0  0.68969  0.77162  0.05922  1.0000
  C   C627      1.0  0.72349  0.79515  0.06726  1.0000
  C   C628      1.0  0.72134  0.76824  0.01570  1.0000
  C   C629      1.0  0.72823  0.75309  0.07745  1.0000
  C   C630      1.0  0.71665  0.73897  0.10369  1.0000
  C   C631      1.0  0.75296  0.74913  0.07368  1.0000
  C   C632      1.0  0.72912  0.72166  0.12398  1.0000
  C   C633      1.0  0.76521  0.73173  0.09390  1.0000
  C   C634      1.0  0.75331  0.71796  0.11895  1.0000
  H   H760      1.0  0.68385  0.77621  0.08775  1.0000
  H   H761      1.0  0.68087  0.78531  0.04152  1.0000
  H   H762      1.0  0.68264  0.75430  0.05112  1.0000
  H   H763      1.0  0.71851  0.79893  0.09645  1.0000
  H   H764      1.0  0.71526  0.80960  0.05033  1.0000
  H   H765      1.0  0.74283  0.79667  0.06495  1.0000
  C   C635      1.0  0.69020  0.66041  0.28603  1.0000
  C   C636      1.0  0.67419  0.96821  0.07709  1.0000
  H   H766      1.0  0.89954  0.73702  0.99963  1.0000
  H   H767      1.0  0.69800  0.74103  0.10917  1.0000
  H   H768      1.0  0.76314  0.75957  0.05519  1.0000
  H   H769      1.0  0.71999  0.71108  0.14389  1.0000
  C   C637      1.0  0.79975  0.77622  0.01140  1.0000
  H   H770      1.0  0.76291  0.70451  0.13467  1.0000
  H   H771      1.0  0.76777  0.82791  0.02783  1.0000
  C   C638      1.0  0.66312  0.72771  0.38657  1.0000
  C   C639      1.0  0.65076  0.73487  0.41809  1.0000
  C   C640      1.0  0.51913  0.77148  0.38311  1.0000
  C   C641      1.0  0.51737  0.78237  0.44731  1.0000
  H   H772      1.0  0.65828  0.85571  0.20171  1.0000
  S   S173      1.0  0.82155  0.75777  0.03337  1.0000
  H   H773      1.0  0.67213  0.94947  0.07211  1.0000
  H   H774      1.0  0.72554  0.69199  0.38590  1.0000
  H   H775      1.0  0.59190  0.69860  0.29160  1.0000
  C   C642      1.0  0.67900  0.70824  0.38759  1.0000
  C   C643      1.0  0.81505  0.65574  0.19247  1.0000
  C   C644      1.0  0.49466  0.76974  0.38256  1.0000
  C   C645      1.0  0.95752  0.69380  0.03699  1.0000
  C   C646      1.0  0.64001  0.67880  0.21477  1.0000
  C   C647      1.0  0.87930  0.79305  0.01799  1.0000
  H   H776      1.0  0.52937  0.76773  0.35835  1.0000
  H   H777      1.0  0.66050  0.73741  0.36114  1.0000
  H   H778      1.0  0.54947  0.77924  0.41569  1.0000
  C   C648      1.0  0.72421  0.68384  0.41359  1.0000
  H   H779      1.0  0.79754  0.80072  0.05706  1.0000
  H   H780      1.0  0.70657  0.65241  0.27592  1.0000
  H   H781      1.0  0.94421  0.69464  0.05834  1.0000
  C   C649      1.0  0.70126  0.66224  0.45653  1.0000
  C   C650      1.0  0.69485  0.65759  0.39180  1.0000
  C   C651      1.0  0.68296  0.69519  0.42041  1.0000
  H   H782      1.0  0.59418  0.67032  0.31363  1.0000
  H   H783      1.0  0.68832  0.70361  0.36239  1.0000
  H   H784      1.0  0.48673  0.76472  0.35689  1.0000
  C   C652      1.0  0.67009  0.70300  0.45225  1.0000
  H   H785      1.0  0.68385  0.65513  0.46358  1.0000
  H   H786      1.0  0.64464  0.72844  0.47535  1.0000
  Fe  Fe88      1.0  0.88000  0.68951  0.00076  1.0000
  H   H787      1.0  0.71071  0.96674  0.06212  1.0000
  C   C653      1.0  0.79103  0.79668  0.02987  1.0000
  H   H788      1.0  0.69736  0.66463  0.36366  1.0000
  H   H789      1.0  0.88992  0.79609  0.04316  1.0000
  C   C654      1.0  0.65488  0.98266  0.08738  1.0000
  C   C655      1.0  0.65421  0.72255  0.45085  1.0000
  H   H790      1.0  0.70729  0.67367  0.47938  1.0000
  H   H791      1.0  0.48387  0.78429  0.47285  1.0000
  H   H792      1.0  0.66800  0.65286  0.20489  1.0000
  C   C656      1.0  0.60064  0.79897  0.48385  1.0000
  H   H793      1.0  0.67211  0.69447  0.47861  1.0000
  C   C657      1.0  0.69599  0.97801  0.07151  1.0000
  C   C658      1.0  0.65229  0.65702  0.31566  1.0000
  C   C659      1.0  0.60372  0.66443  0.24232  1.0000
  H   H794      1.0  0.54844  0.65250  0.27530  1.0000
  C   C660      1.0  0.48420  0.77519  0.27516  1.0000
  C   C661      1.0  0.98173  0.69464  0.04646  1.0000
  H   H795      1.0  0.58807  0.73275  0.49490  1.0000
  C   C662      1.0  0.65004  0.65597  0.21435  1.0000
  H   H796      1.0  0.52638  0.78717  0.47243  1.0000
  H   H797      1.0  0.92436  0.78544  0.01172  1.0000
  C   C663      1.0  0.89086  0.75190  0.01529  1.0000
  H   H798      1.0  0.87272  0.74662  0.02215  1.0000
  H   H799      1.0  0.90064  0.75355  0.04161  1.0000
  H   H800      1.0  0.67635  0.65197  0.39395  1.0000
  H   H801      1.0  0.87744  0.81015  0.00310  1.0000
  Fe  Fe89      1.0  0.83262  0.67894  0.96189  1.0000
  S   S174      1.0  0.85484  0.71103  0.96423  1.0000
  H   H802      1.0  0.53822  0.81231  0.84031  1.0000
  C   C664      1.0  0.79093  0.69412  0.80645  1.0000
  C   C665      1.0  0.62837  0.70670  0.60527  1.0000
  C   C666      1.0  0.78686  0.71798  0.86185  1.0000
  H   H803      1.0  0.55291  0.79953  0.73909  1.0000
  H   H804      1.0  0.81915  0.70047  0.84435  1.0000
  C   C667      1.0  0.55951  0.82999  0.87885  1.0000
  H   H805      1.0  0.54953  0.79290  0.78650  1.0000
  H   H806      1.0  0.84334  0.75906  0.86730  1.0000
  H   H807      1.0  0.57779  0.80049  0.76905  1.0000
  H   H808      1.0  0.58406  0.84892  0.91182  1.0000
  H   H809      1.0  0.60187  0.86844  0.85884  1.0000
  Fe  Fe90      1.0  0.66099  0.84903  0.94980  1.0000
  S   S175      1.0  0.63515  0.82998  0.91184  1.0000
  S   S176      1.0  0.69137  0.87176  0.93572  1.0000
  Fe  Fe91      1.0  0.58978  0.76055  0.62998  1.0000
  S   S177      1.0  0.56896  0.73225  0.65726  1.0000
  S   S178      1.0  0.59073  0.75196  0.56774  1.0000
  Fe  Fe92      1.0  0.60458  0.77984  0.70714  1.0000
  S   S179      1.0  0.58536  0.75194  0.73711  1.0000
  S   S180      1.0  0.62459  0.80822  0.73864  1.0000
  Fe  Fe93      1.0  0.60032  0.72694  0.69410  1.0000
  S   S181      1.0  0.61286  0.68896  0.70408  1.0000
  Fe  Fe94      1.0  0.55583  0.76008  0.69715  1.0000
  S   S182      1.0  0.51949  0.76511  0.72410  1.0000
  S   S183      1.0  0.62169  0.75410  0.66613  1.0000
  S   S184      1.0  0.57444  0.78915  0.66813  1.0000
  C   C668      1.0  0.59369  0.76543  0.52377  1.0000
  C   C669      1.0  0.59816  0.78939  0.51947  1.0000
  C   C670      1.0  0.67170  0.68075  0.59211  1.0000
  H   H810      1.0  0.59981  0.80053  0.54355  1.0000
  C   C671      1.0  0.49171  0.76551  0.70193  1.0000
  S   S185      1.0  0.68273  0.82484  0.98605  1.0000
  H   H811      1.0  0.50532  0.75945  0.64724  1.0000
  C   C672      1.0  0.65008  0.65657  0.70044  1.0000
  Fe  Fe95      1.0  0.71273  0.84812  0.97466  1.0000
  H   H812      1.0  0.51744  0.82298  0.78979  1.0000
  C   C673      1.0  0.70682  0.97025  0.97724  1.0000
  C   C674      1.0  0.64309  0.68066  0.70044  1.0000
  C   C675      1.0  0.66008  0.69756  0.69539  1.0000
  C   C676      1.0  0.68366  0.69040  0.68887  1.0000
  C   C677      1.0  0.77209  0.67304  0.74190  1.0000
  C   C678      1.0  0.79126  0.77137  0.97614  1.0000
  H   H813      1.0  0.65498  0.71615  0.69582  1.0000
  H   H814      1.0  0.69654  0.70361  0.68398  1.0000
  H   H815      1.0  0.61056  0.71485  0.61056  1.0000
  C   C679      1.0  0.69057  0.66633  0.68805  1.0000
  C   C680      1.0  0.68328  0.96489  0.98373  1.0000
  C   C681      1.0  0.63480  0.82266  0.86374  1.0000
  C   C682      1.0  0.62106  0.80391  0.85173  1.0000
  C   C683      1.0  0.61848  0.79865  0.81387  1.0000
  C   C684      1.0  0.62900  0.81258  0.78712  1.0000
  C   C685      1.0  0.64289  0.83123  0.79912  1.0000
  C   C686      1.0  0.64597  0.83611  0.83706  1.0000
  H   H816      1.0  0.61223  0.79341  0.87195  1.0000
  H   H817      1.0  0.60817  0.78391  0.80554  1.0000
  H   H818      1.0  0.65125  0.84210  0.77891  1.0000
  H   H819      1.0  0.65645  0.85070  0.84563  1.0000
  H   H820      1.0  0.55816  0.83876  0.71708  1.0000
  C   C687      1.0  0.61440  0.68971  0.54961  1.0000
  H   H821      1.0  0.52108  0.83108  0.74317  1.0000
  H   H822      1.0  0.58412  0.83984  0.74399  1.0000
  H   H823      1.0  0.52261  0.85332  0.77881  1.0000
  C   C688      1.0  0.57731  0.84584  0.88436  1.0000
  H   H824      1.0  0.75753  0.71908  0.73420  1.0000
  C   C689      1.0  0.66676  0.98405  0.98784  1.0000
  H   H825      1.0  0.49739  0.71238  0.71626  1.0000
  H   H826      1.0  0.72957  0.71573  0.75653  1.0000
  H   H827      1.0  0.58908  0.86053  0.79665  1.0000
  C   C690      1.0  0.73686  0.67119  0.77804  1.0000
  H   H828      1.0  0.56140  0.86301  0.74847  1.0000
  H   H829      1.0  0.71988  0.95597  0.97396  1.0000
  H   H830      1.0  0.84665  0.65348  0.86786  1.0000
  H   H831      1.0  0.79448  0.72503  0.88675  1.0000
  H   H832      1.0  0.82509  0.78493  0.91547  1.0000
  C   C691      1.0  0.87721  0.77058  0.95932  1.0000
  H   H833      1.0  0.88257  0.73973  0.87773  1.0000
  S   S186      1.0  0.72013  0.65850  0.67733  1.0000
  C   C692      1.0  0.84252  0.77691  0.91973  1.0000
  C   C693      1.0  0.96853  0.69085  0.97301  1.0000
  C   C694      1.0  0.65048  0.67273  0.57651  1.0000
  H   H834      1.0  0.79784  0.75577  0.96148  1.0000
  C   C695      1.0  0.48965  0.76216  0.66395  1.0000
  H   H835      1.0  0.92547  0.76595  0.97349  1.0000
  C   C696      1.0  0.61302  0.66793  0.60659  1.0000
  H   H836      1.0  0.67208  0.69597  0.61012  1.0000
  H   H837      1.0  0.75225  0.73282  0.87321  1.0000
  C   C697      1.0  0.85440  0.78094  0.95271  1.0000
  C   C698      1.0  0.49053  0.67690  0.73304  1.0000
  H   H838      1.0  0.84507  0.79189  0.97284  1.0000
  H   H839      1.0  0.90355  0.74586  0.93514  1.0000
  H   H840      1.0  0.74423  0.65749  0.79707  1.0000
  H   H841      1.0  0.62246  0.66279  0.63237  1.0000
  H   H842      1.0  0.55225  0.82097  0.90228  1.0000
  H   H843      1.0  0.78003  0.65757  0.75675  1.0000
  H   H844      1.0  0.62488  0.70127  0.53169  1.0000
  N   N45       1.0  0.55334  0.83008  0.77448  1.0000
  C   C699      1.0  0.52752  0.83465  0.77156  1.0000
  C   C700      1.0  0.56473  0.84365  0.74486  1.0000
  C   C701      1.0  0.55859  0.80468  0.76712  1.0000
  C   C702      1.0  0.56152  0.83608  0.81195  1.0000
  C   C703      1.0  0.55165  0.82516  0.84325  1.0000
  C   C704      1.0  0.57974  0.85210  0.81857  1.0000
  C   C705      1.0  0.58730  0.85693  0.85434  1.0000
  H   H845      1.0  0.76315  0.66567  0.71741  1.0000
  H   H846      1.0  0.64854  0.98035  0.99311  1.0000
  H   H847      1.0  0.59725  0.69944  0.55503  1.0000
  C   C706      1.0  0.75302  0.71224  0.82299  1.0000
  H   H848      1.0  0.96369  0.68933  0.94434  1.0000
  H   H849      1.0  0.63609  0.70392  0.63292  1.0000
  S   S187      1.0  0.74619  0.82764  0.95474  1.0000
  N   N46       1.0  0.62710  0.68419  0.58438  1.0000
  S   S188      1.0  0.67360  0.93495  0.98829  1.0000
  C   C707      1.0  0.85275  0.76233  0.89262  1.0000
  S   S189      1.0  0.80709  0.66697  0.91728  1.0000
  H   H850      1.0  0.59578  0.67633  0.61518  1.0000
  H   H851      1.0  0.73685  0.69863  0.71670  1.0000
  C   C708      1.0  0.76576  0.80746  0.97801  1.0000
  S   S190      1.0  0.85853  0.65661  0.99476  1.0000
  C   C709      1.0  0.80077  0.70419  0.83781  1.0000
  C   C710      1.0  0.76663  0.69783  0.79812  1.0000
  C   C711      1.0  0.77470  0.78713  0.95933  1.0000
  H   H852      1.0  0.78646  0.68392  0.73119  1.0000
  H   H853      1.0  0.63854  0.72001  0.59017  1.0000
  N   N47       1.0  0.75539  0.68713  0.76562  1.0000
  H   H854      1.0  0.80264  0.68295  0.78983  1.0000
  C   C712      1.0  0.87489  0.75159  0.89844  1.0000
  C   C713      1.0  0.74439  0.70600  0.74240  1.0000
  H   H855      1.0  0.73441  0.71572  0.81861  1.0000
  H   H856      1.0  0.76874  0.78357  0.93165  1.0000
  S   S191      1.0  0.92003  0.69097  0.98607  1.0000
  C   C714      1.0  0.88692  0.75548  0.93132  1.0000
  H   H857      1.0  0.72215  0.68083  0.79257  1.0000
  C   C715      1.0  0.76305  0.72213  0.85435  1.0000
  Fe  Fe96      1.0  0.68127  0.89385  0.98629  1.0000
  H   H858      1.0  0.61010  0.67367  0.53373  1.0000
  H   H859      1.0  0.50812  0.67360  0.74386  1.0000
  H   H860      1.0  0.70909  0.67456  0.59930  1.0000
  C   C716      1.0  0.69328  0.66862  0.58592  1.0000
  H   H861      1.0  0.72879  0.66181  0.75447  1.0000
  C   C717      1.0  0.80915  0.65152  0.87447  1.0000
  C   C718      1.0  0.48450  0.69869  0.71746  1.0000
  C   C719      1.0  0.65237  0.65198  0.55432  1.0000
  H   H862      1.0  0.91507  0.79612  0.96722  1.0000
  S   S192      1.0  0.64943  0.87183  0.99868  1.0000
  H   H863      1.0  0.71152  0.78133  0.99818  1.0000
  H   H864      1.0  0.60928  0.65139  0.59151  1.0000
  N   N48       1.0  0.89019  0.77419  0.99411  1.0000
  C   C720      1.0  0.91476  0.78074  0.98618  1.0000
