data_image0
_chemical_formula_structural       HSHSH2C7H6CHCHSFeHC2NCH3CHCH3C4HNH3SCH3SC3HCHC5HFeNFeCHFeSH2FeSFeHSH2S2FeCSC6H8C3SHSHC2NFeH4C2HSCH3CH2CHC2HFeSFeCSCHS2HSFeSCH2C7HNH2CHC3HSHC2H5NSHCH4C2H3CHCHCHCH8CHC4HCHCHFeCSHSHCSC10H5FeHCH2CH2CHSCH5C3HC3HC3HNCHNSH7FeH3C2S2FeSFeHCSHC6H5C2HCSC3HC3HCHCHC3H3CSH3FeCH5CH2CS2NC5H3C2HNH3S2HSCFeH2S2CSFeSH2C6H4FeHSHCSFeS2C6H4NCH2CHSCFeH3CH3CH2CH5CH3CHCH3CFeNC4HC3H9FeCH3CFeHSHFeS2C6H5CFeH2C2HSFeSH2C6FeH3SHCH4SCHC2SCHCHC2H2FeSCHC2S2CHCH3CSH3NHCHS2FeSH2SCFeC6H6CHCSCSHC6FeH4C2HC2H5CH2NH2NHC2HC3H3CH2CH3CFeC2HCFeCH2CH2S2H2C2HC2SH2CHCHNCNHFeC2HS2HFeSFeHFeHC2HC6H4C2H13CH3CSCSNHC5H2C2HCH3C2HC2H4SH2CHNFeSHCSHS2HC2HSCHFeC4HCH2SHCNHC2H3CHCHCHNSC3H3C3HC3H3CHSH2CH2CHCSCHS2HSHS2C6H4CFeHCFeC4NC5H9FeHC2HSH2CHCHCHCH2CHC2HC2HC2H4FeCHCH2CH2CNHCSHC2H5S2HSFeSFe2H3C6H4SNH4CHCH2C5HC2H2C4SCHC3H6
_chemical_formula_sum              "H432 S96 C360 Fe48 N24"
_cell_length_a       39.3185
_cell_length_b       25.3689
_cell_length_c       37.6048
_cell_angle_alpha    90.1716
_cell_angle_beta     74.7103
_cell_angle_gamma    90.1603

_space_group_name_H-M_alt    "P 1"
_space_group_IT_number       1

loop_
  _space_group_symop_operation_xyz
  'x, y, z'

loop_
  _atom_site_type_symbol
  _atom_site_label
  _atom_site_symmetry_multiplicity
  _atom_site_fract_x
  _atom_site_fract_y
  _atom_site_fract_z
  _atom_site_occupancy
  H   H1        1.0  0.31608  0.39719  0.37841  1.0000
  S   S1        1.0  0.12181  0.37946  0.03066  1.0000
  H   H2        1.0  0.31126  0.36599  0.33716  1.0000
  S   S2        1.0  0.12111  0.23127  0.05777  1.0000
  H   H3        1.0  0.18948  0.26676  0.00763  1.0000
  H   H4        1.0  0.22651  0.25163  0.08598  1.0000
  C   C1        1.0  0.32378  0.37856  0.01836  1.0000
  C   C2        1.0  0.08704  0.18874  0.08258  1.0000
  C   C3        1.0  0.05401  0.18683  0.07518  1.0000
  C   C4        1.0  0.02779  0.15205  0.09491  1.0000
  C   C5        1.0  0.03404  0.11915  0.12257  1.0000
  C   C6        1.0  0.06706  0.12097  0.13004  1.0000
  C   C7        1.0  0.09345  0.15544  0.11000  1.0000
  H   H5        1.0  0.04867  0.21207  0.05418  1.0000
  H   H6        1.0  0.25493  0.31009  0.44358  1.0000
  H   H7        1.0  0.07230  0.09580  0.15114  1.0000
  H   H8        1.0  0.11891  0.15649  0.11592  1.0000
  H   H9        1.0  0.04883  0.06132  0.36244  1.0000
  H   H10       1.0  0.16716  0.45643  0.38735  1.0000
  C   C8        1.0  0.29567  0.40135  0.00803  1.0000
  H   H11       1.0  0.30148  0.25537  0.37195  1.0000
  C   C9        1.0  0.26329  0.37516  0.01486  1.0000
  H   H12       1.0  0.19482  0.22872  0.06317  1.0000
  S   S3        1.0  0.99996  0.07555  0.14576  1.0000
  Fe  Fe1       1.0  0.11171  0.29462  0.01846  1.0000
  H   H13       1.0  0.03172  0.04511  0.32372  1.0000
  C   C10       1.0  0.22028  0.34820  0.37160  1.0000
  C   C11       1.0  0.24806  0.36565  0.38657  1.0000
  N   N1        1.0  0.22315  0.29880  0.03933  1.0000
  C   C12       1.0  0.22146  0.24721  0.05836  1.0000
  H   H14       1.0  0.28571  0.26521  0.05608  1.0000
  H   H15       1.0  0.00235  0.15103  0.08895  1.0000
  H   H16       1.0  0.27785  0.28131  0.34144  1.0000
  C   C13       1.0  0.28712  0.30305  0.04273  1.0000
  H   H17       1.0  0.19241  0.37068  0.04870  1.0000
  C   C14       1.0  0.25789  0.32532  0.03250  1.0000
  H   H18       1.0  0.21999  0.30951  0.35970  1.0000
  H   H19       1.0  0.99578  0.14359  0.01334  1.0000
  H   H20       1.0  0.25442  0.25623  0.38648  1.0000
  C   C15       1.0  0.19549  0.33306  0.06259  1.0000
  C   C16       1.0  0.03525  0.03020  0.35036  1.0000
  C   C17       1.0  0.21637  0.44959  0.40165  1.0000
  C   C18       1.0  0.27785  0.27906  0.37098  1.0000
  H   H21       1.0  0.04591  0.45866  0.45556  1.0000
  N   N2        1.0  0.27880  0.33236  0.38719  1.0000
  H   H22       1.0  0.26504  0.43319  0.41380  1.0000
  H   H23       1.0  0.21474  0.48890  0.41344  1.0000
  H   H24       1.0  0.17043  0.36673  0.36063  1.0000
  S   S4        1.0  0.06103  0.31201  0.00414  1.0000
  C   C19       1.0  0.21463  0.28915  0.00371  1.0000
  H   H25       1.0  0.28620  0.36259  0.43837  1.0000
  H   H26       1.0  0.20162  0.34306  0.08906  1.0000
  H   H27       1.0  0.30154  0.29724  0.42791  1.0000
  S   S5        1.0  0.03361  0.45514  0.04212  1.0000
  C   C20       1.0  0.01394  0.49736  0.01622  1.0000
  C   C21       1.0  0.24516  0.41737  0.40159  1.0000
  C   C22       1.0  0.28038  0.32517  0.42584  1.0000
  H   H28       1.0  0.24045  0.21847  0.04160  1.0000
  C   C23       1.0  0.25120  0.47799  0.48872  1.0000
  H   H29       1.0  0.16910  0.31356  0.06939  1.0000
  C   C24       1.0  0.31174  0.35861  0.36617  1.0000
  C   C25       1.0  0.19150  0.38078  0.37192  1.0000
  C   C26       1.0  0.18955  0.43133  0.38694  1.0000
  C   C27       1.0  0.31953  0.32953  0.03564  1.0000
  C   C28       1.0  0.02587  0.48060  0.47528  1.0000
  H   H30       1.0  0.19087  0.49125  0.02283  1.0000
  Fe  Fe2       1.0  0.07405  0.39704  0.01061  1.0000
  N   N3        1.0  0.00112  0.01524  0.37619  1.0000
  Fe  Fe3       1.0  0.99412  0.02168  0.19571  1.0000
  C   C29       1.0  0.99472  0.01947  0.44549  1.0000
  H   H31       1.0  0.02950  0.01371  0.06453  1.0000
  Fe  Fe4       1.0  0.32568  0.38725  0.48824  1.0000
  S   S6        1.0  0.99944  0.03495  0.25347  1.0000
  H   H32       1.0  0.24242  0.39414  0.00599  1.0000
  H   H33       1.0  0.00523  0.34400  0.96287  1.0000
  Fe  Fe5       1.0  0.15214  0.38540  0.97137  1.0000
  S   S7        1.0  0.20497  0.43084  0.95273  1.0000
  Fe  Fe6       1.0  0.09441  0.32075  0.94570  1.0000
  H   H34       1.0  0.03127  0.17994  0.95399  1.0000
  S   S8        1.0  0.06582  0.29789  0.90200  1.0000
  H   H35       1.0  0.04185  0.32226  0.60468  1.0000
  H   H36       1.0  0.99718  0.18850  0.57916  1.0000
  S   S9        1.0  0.10469  0.40754  0.95173  1.0000
  S   S10       1.0  0.14512  0.29863  0.95950  1.0000
  Fe  Fe7       1.0  0.03783  0.07762  0.75616  1.0000
  C   C30       1.0  0.26040  0.50086  0.94717  1.0000
  S   S11       1.0  0.05053  0.06065  0.69508  1.0000
  C   C31       1.0  0.06967  0.24427  0.87050  1.0000
  C   C32       1.0  0.09555  0.20537  0.86670  1.0000
  C   C33       1.0  0.09752  0.16393  0.84105  1.0000
  C   C34       1.0  0.07353  0.16054  0.81915  1.0000
  C   C35       1.0  0.04756  0.19932  0.82309  1.0000
  C   C36       1.0  0.04570  0.24085  0.84859  1.0000
  H   H37       1.0  0.11426  0.20748  0.88321  1.0000
  H   H38       1.0  0.00527  0.43128  0.55326  1.0000
  H   H39       1.0  0.02909  0.19753  0.80630  1.0000
  H   H40       1.0  0.02567  0.27080  0.85115  1.0000
  H   H41       1.0  0.05175  0.06465  0.86125  1.0000
  H   H42       1.0  0.03833  0.27161  0.66069  1.0000
  H   H43       1.0  0.19808  0.45993  0.51980  1.0000
  H   H44       1.0  0.01066  0.34475  0.51821  1.0000
  C   C37       1.0  0.01434  0.28411  0.65412  1.0000
  C   C38       1.0  0.21469  0.48773  0.50125  1.0000
  C   C39       1.0  0.22796  0.48255  0.96967  1.0000
  S   S12       1.0  0.26886  0.41928  0.50310  1.0000
  H   H45       1.0  0.03840  0.32476  0.54616  1.0000
  S   S13       1.0  0.07650  0.10626  0.78830  1.0000
  H   H46       1.0  0.11781  0.13430  0.83815  1.0000
  C   C40       1.0  0.01544  0.14464  0.95431  1.0000
  C   C41       1.0  0.01526  0.11981  0.92114  1.0000
  N   N4        1.0  0.99637  0.04733  0.88468  1.0000
  Fe  Fe8       1.0  0.99512  0.08880  0.69841  1.0000
  H   H47       1.0  0.04469  0.46964  0.96347  1.0000
  H   H48       1.0  0.03557  0.01151  0.83984  1.0000
  H   H49       1.0  0.03132  0.13714  0.89605  1.0000
  H   H50       1.0  0.27073  0.48366  0.92010  1.0000
  C   C42       1.0  0.00308  0.40819  0.57893  1.0000
  C   C43       1.0  0.01048  0.32617  0.54512  1.0000
  H   H51       1.0  0.14177  0.49623  0.99176  1.0000
  S   S14       1.0  0.99417  0.14021  0.64859  1.0000
  C   C44       1.0  0.01601  0.31239  0.62185  1.0000
  H   H52       1.0  0.23575  0.26600  0.98453  1.0000
  H   H53       1.0  0.21133  0.32634  0.98937  1.0000
  H   H54       1.0  0.03008  0.40587  0.58284  1.0000
  C   C45       1.0  0.03314  0.03081  0.86702  1.0000
  H   H55       1.0  0.00122  0.28482  0.54429  1.0000
  H   H56       1.0  0.00252  0.11908  0.85252  1.0000
  C   C46       1.0  0.02463  0.49664  0.97774  1.0000
  H   H57       1.0  0.99256  0.01930  0.50349  1.0000
  C   C47       1.0  0.99498  0.07363  0.92026  1.0000
  C   C48       1.0  0.99543  0.12427  0.98765  1.0000
  H   H58       1.0  0.29897  0.43947  0.99444  1.0000
  Fe  Fe9       1.0  0.14700  0.66182  0.46134  1.0000
  S   S15       1.0  0.20265  0.62583  0.44894  1.0000
  Fe  Fe10      1.0  0.09322  0.71520  0.42472  1.0000
  C   C49       1.0  0.01492  0.94855  0.00879  1.0000
  S   S16       1.0  0.07097  0.72745  0.37484  1.0000
  C   C50       1.0  0.03554  0.92847  0.44151  1.0000
  H   H59       1.0  0.30167  0.73470  0.09381  1.0000
  S   S17       1.0  0.14251  0.74341  0.43836  1.0000
  S   S18       1.0  0.10051  0.63171  0.44255  1.0000
  H   H60       1.0  0.27350  0.58678  0.43423  1.0000
  S   S19       1.0  0.01865  0.94096  0.19114  1.0000
  Fe  Fe11      1.0  0.01870  0.95076  0.25087  1.0000
  S   S20       1.0  0.06198  0.93246  0.27916  1.0000
  C   C51       1.0  0.01532  0.63182  0.42770  1.0000
  H   H61       1.0  0.08670  0.61452  0.03311  1.0000
  H   H62       1.0  0.26284  0.75512  0.23932  1.0000
  C   C52       1.0  0.25689  0.55932  0.45309  1.0000
  C   C53       1.0  0.06734  0.78651  0.35069  1.0000
  C   C54       1.0  0.04309  0.78825  0.32907  1.0000
  C   C55       1.0  0.04055  0.83303  0.30775  1.0000
  C   C56       1.0  0.06294  0.87617  0.30704  1.0000
  C   C57       1.0  0.08710  0.87458  0.32878  1.0000
  C   C58       1.0  0.08896  0.83036  0.35092  1.0000
  H   H63       1.0  0.21660  0.79026  0.47777  1.0000
  N   N5        1.0  0.00287  0.93891  0.07858  1.0000
  H   H64       1.0  0.10466  0.90762  0.32835  1.0000
  H   H65       1.0  0.10796  0.82947  0.36714  1.0000
  C   C59       1.0  0.01018  0.88882  0.09550  1.0000
  H   H66       1.0  0.27672  0.61700  0.15516  1.0000
  C   C60       1.0  0.03379  0.97417  0.07542  1.0000
  C   C61       1.0  0.22036  0.56886  0.46541  1.0000
  C   C62       1.0  0.19935  0.53284  0.48980  1.0000
  H   H67       1.0  0.06219  0.54032  0.48341  1.0000
  S   S21       1.0  0.28970  0.61708  0.01032  1.0000
  H   H68       1.0  0.01832  0.60092  0.44738  1.0000
  C   C63       1.0  0.28595  0.75061  0.21621  1.0000
  C   C64       1.0  0.31538  0.70863  0.15712  1.0000
  H   H69       1.0  0.03330  0.66695  0.04090  1.0000
  H   H70       1.0  0.15031  0.61777  0.00486  1.0000
  H   H71       1.0  0.05838  0.95662  0.05771  1.0000
  H   H72       1.0  0.25979  0.66918  0.13166  1.0000
  H   H73       1.0  0.22427  0.56329  0.04359  1.0000
  N   N6        1.0  0.31583  0.67248  0.12596  1.0000
  S   S22       1.0  0.05814  0.73885  0.47967  1.0000
  H   H74       1.0  0.03175  0.86642  0.07638  1.0000
  C   C65       1.0  0.03514  0.52684  0.49098  1.0000
  H   H75       1.0  0.02649  0.75442  0.32835  1.0000
  H   H76       1.0  0.03877  0.92707  0.38426  1.0000
  H   H77       1.0  0.32081  0.67779  0.06756  1.0000
  H   H78       1.0  0.11645  0.53934  0.02573  1.0000
  C   C66       1.0  0.99499  0.92732  0.04293  1.0000
  C   C67       1.0  0.23456  0.54597  0.01658  1.0000
  H   H79       1.0  0.03169  0.66541  0.43247  1.0000
  H   H80       1.0  0.28387  0.61585  0.10610  1.0000
  H   H81       1.0  0.01809  0.89569  0.12141  1.0000
  C   C68       1.0  0.28251  0.64239  0.13019  1.0000
  H   H82       1.0  0.02203  0.83343  0.29099  1.0000
  C   C69       1.0  0.28543  0.71507  0.18777  1.0000
  H   H83       1.0  0.26969  0.74535  0.48536  1.0000
  C   C70       1.0  0.31598  0.78067  0.21497  1.0000
  H   H84       1.0  0.99389  0.53937  0.41902  1.0000
  C   C71       1.0  0.04741  0.65348  0.01363  1.0000
  H   H85       1.0  0.31625  0.80838  0.23690  1.0000
  H   H86       1.0  0.03870  0.98199  0.10288  1.0000
  H   H87       1.0  0.02719  0.61789  0.39900  1.0000
  H   H88       1.0  0.05158  0.89331  0.43997  1.0000
  H   H89       1.0  0.26124  0.69338  0.19041  1.0000
  H   H90       1.0  0.03662  0.97549  0.00700  1.0000
  H   H91       1.0  0.24615  0.68593  0.48475  1.0000
  H   H92       1.0  0.30033  0.50773  0.45478  1.0000
  C   C72       1.0  0.00753  0.99440  0.41062  1.0000
  H   H93       1.0  0.19199  0.72986  0.48264  1.0000
  C   C73       1.0  0.07780  0.62283  0.00889  1.0000
  C   C74       1.0  0.27223  0.51437  0.46466  1.0000
  C   C75       1.0  0.02804  0.94814  0.40973  1.0000
  C   C76       1.0  0.32188  0.70331  0.09144  1.0000
  H   H94       1.0  0.00133  0.93943  0.34920  1.0000
  C   C77       1.0  0.21538  0.50512  0.00475  1.0000
  H   H95       1.0  0.99553  0.72415  0.41095  1.0000
  C   C78       1.0  0.02283  0.95415  0.47517  1.0000
  H   H96       1.0  0.05365  0.99627  0.34320  1.0000
  Fe  Fe12      1.0  0.10748  0.76173  0.49485  1.0000
  C   C79       1.0  0.00238  0.99942  0.47717  1.0000
  S   S23       1.0  0.11487  0.68279  0.51864  1.0000
  H   H97       1.0  0.11814  0.71031  0.62128  1.0000
  S   S24       1.0  0.11190  0.84251  0.51918  1.0000
  H   H98       1.0  0.30454  0.55472  0.94128  1.0000
  C   C80       1.0  0.25150  0.71703  0.50358  1.0000
  S   S25       1.0  0.04425  0.89968  0.68792  1.0000
  C   C81       1.0  0.14027  0.54494  0.93247  1.0000
  C   C82       1.0  0.14690  0.63973  0.60076  1.0000
  C   C83       1.0  0.15661  0.60208  0.97623  1.0000
  C   C84       1.0  0.00937  0.55573  0.51610  1.0000
  C   C85       1.0  0.09173  0.85762  0.56593  1.0000
  C   C86       1.0  0.08622  0.91064  0.57679  1.0000
  C   C87       1.0  0.07124  0.92417  0.61398  1.0000
  C   C88       1.0  0.06257  0.88474  0.64074  1.0000
  C   C89       1.0  0.06846  0.83169  0.62991  1.0000
  C   C90       1.0  0.08243  0.81809  0.59258  1.0000
  H   H99       1.0  0.09350  0.94147  0.55635  1.0000
  H   H100      1.0  0.06694  0.96514  0.62199  1.0000
  H   H101      1.0  0.06190  0.80094  0.65047  1.0000
  H   H102      1.0  0.08655  0.77716  0.58451  1.0000
  H   H103      1.0  0.04134  0.65605  0.92543  1.0000
  Fe  Fe13      1.0  0.02531  0.98139  0.70938  1.0000
  H   H104      1.0  0.17991  0.57618  0.57366  1.0000
  C   C91       1.0  0.19454  0.70702  0.55107  1.0000
  H   H105      1.0  0.23959  0.77473  0.56773  1.0000
  H   H106      1.0  0.01756  0.52988  0.92764  1.0000
  C   C92       1.0  0.27978  0.54125  0.95917  1.0000
  H   H107      1.0  0.11920  0.52074  0.92554  1.0000
  H   H108      1.0  0.15772  0.76859  0.57800  1.0000
  C   C93       1.0  0.17584  0.61853  0.57502  1.0000
  H   H109      1.0  0.14966  0.57510  0.91064  1.0000
  S   S26       1.0  0.01987  0.61650  0.53324  1.0000
  C   C94       1.0  0.00889  0.53048  0.95744  1.0000
  H   H110      1.0  0.26598  0.69889  0.52218  1.0000
  H   H111      1.0  0.17542  0.78475  0.51207  1.0000
  H   H112      1.0  0.12856  0.61399  0.61949  1.0000
  H   H113      1.0  0.22072  0.63207  0.53076  1.0000
  H   H114      1.0  0.18154  0.57923  0.97181  1.0000
  C   C95       1.0  0.05215  0.64757  0.94854  1.0000
  C   C96       1.0  0.26695  0.56449  0.99396  1.0000
  C   C97       1.0  0.16432  0.72715  0.57715  1.0000
  H   H115      1.0  0.16312  0.51812  0.93070  1.0000
  C   C98       1.0  0.00742  0.93473  0.97556  1.0000
  C   C99       1.0  0.09585  0.60246  0.97378  1.0000
  C   C100      1.0  0.22871  0.78840  0.54485  1.0000
  H   H116      1.0  0.09407  0.60288  0.91577  1.0000
  C   C101      1.0  0.03457  0.66568  0.98352  1.0000
  C   C102      1.0  0.19936  0.65142  0.55044  1.0000
  C   C103      1.0  0.14113  0.69394  0.60181  1.0000
  H   H117      1.0  0.16217  0.63640  0.95716  1.0000
  N   N7        1.0  0.12762  0.56926  0.96964  1.0000
  C   C104      1.0  0.08235  0.61641  0.94351  1.0000
  H   H118      1.0  0.02335  0.95060  0.94979  1.0000
  N   N8        1.0  0.21847  0.74292  0.52488  1.0000
  S   S27       1.0  0.01786  0.99508  0.76996  1.0000
  H   H119      1.0  0.20617  0.81512  0.55677  1.0000
  H   H120      1.0  0.00187  0.81215  0.70909  1.0000
  H   H121      1.0  0.17124  0.53941  0.49957  1.0000
  H   H122      1.0  0.02900  0.93902  0.49971  1.0000
  H   H123      1.0  0.24894  0.81368  0.52626  1.0000
  H   H124      1.0  0.01035  0.68796  0.98732  1.0000
  H   H125      1.0  0.00911  0.77315  0.59081  1.0000
  Fe  Fe14      1.0  0.06822  0.65791  0.49838  1.0000
  H   H126      1.0  0.99570  0.82964  0.64508  1.0000
  H   H127      1.0  0.04298  0.00283  0.88467  1.0000
  H   H128      1.0  0.09553  0.50444  0.99594  1.0000
  C   C105      1.0  0.19986  0.76297  0.49823  1.0000
  C   C106      1.0  0.12006  0.52565  0.99691  1.0000
  S   S28       1.0  0.42143  0.32428  0.46241  1.0000
  S   S29       1.0  0.36301  0.39315  0.43199  1.0000
  Fe  Fe15      1.0  0.37616  0.30770  0.43737  1.0000
  S   S30       1.0  0.36922  0.24628  0.39523  1.0000
  Fe  Fe16      1.0  0.40449  0.40943  0.46205  1.0000
  H   H129      1.0  0.54521  0.12034  0.17399  1.0000
  C   C107      1.0  0.53733  0.46521  0.44388  1.0000
  S   S31       1.0  0.48612  0.09603  0.29502  1.0000
  H   H130      1.0  0.49097  0.22910  0.14967  1.0000
  C   C108      1.0  0.40230  0.20654  0.36624  1.0000
  C   C109      1.0  0.39236  0.16808  0.34382  1.0000
  C   C110      1.0  0.41758  0.13403  0.32158  1.0000
  C   C111      1.0  0.45303  0.13816  0.32163  1.0000
  C   C112      1.0  0.46295  0.17682  0.34390  1.0000
  C   C113      1.0  0.43778  0.21087  0.36608  1.0000
  H   H131      1.0  0.36494  0.16418  0.34388  1.0000
  H   H132      1.0  0.40954  0.10435  0.30470  1.0000
  H   H133      1.0  0.49032  0.18025  0.34419  1.0000
  H   H134      1.0  0.44585  0.24022  0.38316  1.0000
  H   H135      1.0  0.47096  0.21310  0.21234  1.0000
  C   C114      1.0  0.47891  0.49654  0.44434  1.0000
  C   C115      1.0  0.41268  0.09320  0.42880  1.0000
  H   H136      1.0  0.40881  0.19849  0.45015  1.0000
  C   C116      1.0  0.43261  0.00599  0.46347  1.0000
  S   S32       1.0  0.64421  0.23033  0.03991  1.0000
  C   C117      1.0  0.50167  0.45486  0.44587  1.0000
  C   C118      1.0  0.62806  0.17517  0.06866  1.0000
  C   C119      1.0  0.43123  0.05182  0.40780  1.0000
  H   H137      1.0  0.35380  0.15668  0.45116  1.0000
  C   C120      1.0  0.60696  0.08784  0.11664  1.0000
  C   C121      1.0  0.58310  0.11094  0.09917  1.0000
  C   C122      1.0  0.59375  0.15440  0.07494  1.0000
  H   H138      1.0  0.56191  0.01109  0.46814  1.0000
  C   C123      1.0  0.40371  0.09252  0.46791  1.0000
  H   H139      1.0  0.55690  0.09456  0.10352  1.0000
  C   C124      1.0  0.51834  0.24022  0.14454  1.0000
  H   H140      1.0  0.57833  0.30786  0.07854  1.0000
  C   C125      1.0  0.64092  0.10903  0.11012  1.0000
  C   C126      1.0  0.65118  0.15244  0.08681  1.0000
  C   C127      1.0  0.44116  0.00826  0.42509  1.0000
  H   H141      1.0  0.51839  0.19978  0.26053  1.0000
  H   H142      1.0  0.48390  0.15389  0.18489  1.0000
  H   H143      1.0  0.53695  0.11768  0.22328  1.0000
  C   C128      1.0  0.41422  0.04742  0.48477  1.0000
  S   S33       1.0  0.49229  0.03523  0.19358  1.0000
  H   H144      1.0  0.57552  0.17175  0.06126  1.0000
  H   H145      1.0  0.49179  0.41486  0.44864  1.0000
  H   H146      1.0  0.57512  0.15038  0.19634  1.0000
  Fe  Fe17      1.0  0.48941  0.02771  0.25414  1.0000
  C   C129      1.0  0.58887  0.27195  0.12624  1.0000
  H   H147      1.0  0.47900  0.15322  0.23330  1.0000
  H   H148      1.0  0.59322  0.23144  0.17417  1.0000
  H   H149      1.0  0.55755  0.23066  0.23378  1.0000
  H   H150      1.0  0.61651  0.28299  0.11832  1.0000
  H   H151      1.0  0.51585  0.28083  0.09483  1.0000
  C   C130      1.0  0.53226  0.27017  0.11280  1.0000
  H   H152      1.0  0.51548  0.26078  0.23720  1.0000
  H   H153      1.0  0.55486  0.43297  0.44528  1.0000
  C   C131      1.0  0.56744  0.28583  0.10364  1.0000
  S   S34       1.0  0.52525  0.39967  0.00548  1.0000
  S   S35       1.0  0.43398  0.48620  0.44700  1.0000
  N   N9        1.0  0.52605  0.19278  0.20171  1.0000
  C   C132      1.0  0.52958  0.22239  0.23463  1.0000
  C   C133      1.0  0.48833  0.17784  0.20813  1.0000
  C   C134      1.0  0.54672  0.14338  0.19871  1.0000
  C   C135      1.0  0.53961  0.22504  0.16812  1.0000
  C   C136      1.0  0.57530  0.24202  0.15799  1.0000
  H   H154      1.0  0.34894  0.39889  0.01278  1.0000
  H   H155      1.0  0.43806  0.05365  0.37787  1.0000
  H   H156      1.0  0.34159  0.31188  0.04345  1.0000
  C   C137      1.0  0.40640  0.18619  0.47909  1.0000
  C   C138      1.0  0.35057  0.14555  0.48048  1.0000
  H   H157      1.0  0.33546  0.33430  0.36565  1.0000
  N   N10       1.0  0.38487  0.13775  0.48926  1.0000
  H   H158      1.0  0.43353  0.18041  0.48212  1.0000
  H   H159      1.0  0.33426  0.10905  0.48586  1.0000
  H   H160      1.0  0.40553  0.12602  0.41412  1.0000
  S   S36       1.0  0.59753  0.03099  0.14530  1.0000
  S   S37       1.0  0.33576  0.30008  0.49198  1.0000
  H   H161      1.0  0.46840  0.47256  0.02856  1.0000
  S   S38       1.0  0.61937  0.36368  0.00491  1.0000
  C   C139      1.0  0.47932  0.47750  0.99918  1.0000
  Fe  Fe18      1.0  0.62455  0.27578  0.99707  1.0000
  H   H162      1.0  0.39463  0.22019  0.49684  1.0000
  H   H163      1.0  0.54856  0.29031  0.77907  1.0000
  S   S39       1.0  0.38302  0.27662  0.56953  1.0000
  S   S40       1.0  0.57707  0.26705  0.97487  1.0000
  C   C140      1.0  0.55317  0.31655  0.67640  1.0000
  S   S41       1.0  0.45715  0.06800  0.72734  1.0000
  Fe  Fe19      1.0  0.48520  0.06181  0.66689  1.0000
  S   S42       1.0  0.48272  0.10259  0.61303  1.0000
  H   H164      1.0  0.54394  0.04030  0.89116  1.0000
  H   H165      1.0  0.55568  0.32503  0.64768  1.0000
  C   C141      1.0  0.41203  0.22996  0.58138  1.0000
  C   C142      1.0  0.40267  0.20747  0.61684  1.0000
  C   C143      1.0  0.42409  0.16902  0.62727  1.0000
  C   C144      1.0  0.45515  0.15229  0.60217  1.0000
  C   C145      1.0  0.46476  0.17520  0.56683  1.0000
  C   C146      1.0  0.44352  0.21407  0.55656  1.0000
  H   H166      1.0  0.37839  0.21946  0.63633  1.0000
  H   H167      1.0  0.41615  0.15167  0.65447  1.0000
  H   H168      1.0  0.48885  0.16290  0.54723  1.0000
  H   H169      1.0  0.45152  0.23177  0.52951  1.0000
  Fe  Fe20      1.0  0.61414  0.28074  0.91859  1.0000
  H   H170      1.0  0.46989  0.25424  0.64567  1.0000
  S   S43       1.0  0.61887  0.22548  0.86897  1.0000
  H   H171      1.0  0.36358  0.16622  0.54506  1.0000
  C   C147      1.0  0.53016  0.27625  0.69505  1.0000
  S   S44       1.0  0.60940  0.36966  0.92035  1.0000
  Fe  Fe21      1.0  0.51106  0.07302  0.73802  1.0000
  S   S45       1.0  0.51136  0.13801  0.78063  1.0000
  S   S46       1.0  0.53861  0.07192  0.67734  1.0000
  C   C148      1.0  0.58849  0.20205  0.84467  1.0000
  C   C149      1.0  0.59943  0.16255  0.81765  1.0000
  C   C150      1.0  0.57644  0.14266  0.79755  1.0000
  C   C151      1.0  0.54221  0.16248  0.80399  1.0000
  C   C152      1.0  0.53132  0.20226  0.83080  1.0000
  C   C153      1.0  0.55417  0.22169  0.85118  1.0000
  H   H172      1.0  0.62596  0.14719  0.81223  1.0000
  H   H173      1.0  0.58534  0.11217  0.77705  1.0000
  H   H174      1.0  0.50493  0.21808  0.83602  1.0000
  H   H175      1.0  0.54536  0.25218  0.87170  1.0000
  N   N11       1.0  0.49193  0.04884  0.88278  1.0000
  C   C154      1.0  0.52143  0.45231  0.94235  1.0000
  H   H176      1.0  0.54277  0.42749  0.92748  1.0000
  H   H177      1.0  0.36029  0.09656  0.53978  1.0000
  C   C155      1.0  0.48372  0.45746  0.53541  1.0000
  H   H178      1.0  0.51966  0.04896  0.82490  1.0000
  S   S47       1.0  0.36643  0.40701  0.51837  1.0000
  C   C156      1.0  0.57388  0.34608  0.69426  1.0000
  Fe  Fe22      1.0  0.38021  0.32047  0.51701  1.0000
  H   H179      1.0  0.52057  0.18999  0.62874  1.0000
  H   H180      1.0  0.55218  0.07693  0.55618  1.0000
  H   H181      1.0  0.57784  0.06533  0.51003  1.0000
  C   C157      1.0  0.46811  0.09334  0.88072  1.0000
  H   H182      1.0  0.51775  0.09319  0.91742  1.0000
  H   H183      1.0  0.58869  0.35888  0.74484  1.0000
  H   H184      1.0  0.55044  0.24392  0.62311  1.0000
  C   C158      1.0  0.50741  0.44560  0.98033  1.0000
  H   H185      1.0  0.50369  0.17482  0.70953  1.0000
  H   H186      1.0  0.53753  0.10026  0.86937  1.0000
  C   C159      1.0  0.52410  0.07136  0.89076  1.0000
  H   H187      1.0  0.48167  0.12372  0.86067  1.0000
  H   H188      1.0  0.59332  0.02401  0.57838  1.0000
  H   H189      1.0  0.51174  0.23919  0.74960  1.0000
  H   H190      1.0  0.53076  0.05162  0.52350  1.0000
  H   H191      1.0  0.46799  0.30043  0.68251  1.0000
  C   C160      1.0  0.55565  0.04946  0.53227  1.0000
  H   H192      1.0  0.46734  0.22055  0.72160  1.0000
  H   H193      1.0  0.50113  0.30665  0.63950  1.0000
  H   H194      1.0  0.33506  0.17796  0.49726  1.0000
  C   C161      1.0  0.54958  0.29792  0.75040  1.0000
  H   H195      1.0  0.45832  0.11293  0.90803  1.0000
  C   C162      1.0  0.52861  0.26837  0.73288  1.0000
  H   H196      1.0  0.62393  0.47355  0.97380  1.0000
  H   H197      1.0  0.55349  0.19132  0.65399  1.0000
  H   H198      1.0  0.47299  0.17862  0.68215  1.0000
  C   C163      1.0  0.57224  0.33654  0.73114  1.0000
  Fe  Fe23      1.0  0.57509  0.35590  0.97770  1.0000
  N   N12       1.0  0.50988  0.24374  0.67494  1.0000
  C   C164      1.0  0.48631  0.27783  0.66002  1.0000
  C   C165      1.0  0.53470  0.21622  0.64387  1.0000
  C   C166      1.0  0.48753  0.20283  0.69817  1.0000
  C   C167      1.0  0.44712  0.46058  0.54476  1.0000
  H   H199      1.0  0.44484  0.08071  0.87128  1.0000
  C   C168      1.0  0.37752  0.13126  0.52988  1.0000
  C   C169      1.0  0.50769  0.49127  0.92351  1.0000
  C   C170      1.0  0.47305  0.01045  0.91072  1.0000
  H   H200      1.0  0.50834  0.01279  0.94746  1.0000
  H   H201      1.0  0.59165  0.37613  0.67934  1.0000
  H   H202      1.0  0.51866  0.49639  0.89417  1.0000
  H   H203      1.0  0.40864  0.04319  0.51431  1.0000
  H   H204      1.0  0.43157  0.42569  0.54332  1.0000
  H   H205      1.0  0.49648  0.42015  0.52629  1.0000
  H   H206      1.0  0.57766  0.48616  0.98714  1.0000
  H   H207      1.0  0.52850  0.00804  0.59672  1.0000
  H   H208      1.0  0.40229  0.12728  0.53871  1.0000
  Fe  Fe24      1.0  0.65429  0.37156  0.94760  1.0000
  C   C171      1.0  0.50285  0.02272  0.84616  1.0000
  H   H209      1.0  0.53232  0.49742  0.52696  1.0000
  H   H210      1.0  0.47998  0.01169  0.83550  1.0000
  H   H211      1.0  0.61869  0.00725  0.53229  1.0000
  C   C172      1.0  0.50408  0.50257  0.53597  1.0000
  Fe  Fe25      1.0  0.54628  0.00060  0.18329  1.0000
  H   H212      1.0  0.60168  0.93611  0.19219  1.0000
  S   S48       1.0  0.42600  0.71872  0.06956  1.0000
  H   H213      1.0  0.36916  0.73687  0.13475  1.0000
  Fe  Fe26      1.0  0.47370  0.95018  0.19633  1.0000
  S   S49       1.0  0.43385  0.92739  0.16389  1.0000
  S   S50       1.0  0.46589  0.94570  0.25828  1.0000
  C   C173      1.0  0.43032  0.77899  0.09272  1.0000
  C   C174      1.0  0.45158  0.77992  0.11757  1.0000
  C   C175      1.0  0.45385  0.82539  0.13863  1.0000
  C   C176      1.0  0.43425  0.87040  0.13573  1.0000
  C   C177      1.0  0.41291  0.86942  0.11092  1.0000
  C   C178      1.0  0.41118  0.82428  0.08930  1.0000
  H   H214      1.0  0.46617  0.74500  0.12088  1.0000
  H   H215      1.0  0.47008  0.82517  0.15781  1.0000
  H   H216      1.0  0.39744  0.90381  0.10858  1.0000
  H   H217      1.0  0.39438  0.82419  0.07070  1.0000
  H   H218      1.0  0.37128  0.65270  0.11475  1.0000
  C   C179      1.0  0.57747  0.86515  0.48926  1.0000
  Fe  Fe27      1.0  0.63409  0.72440  0.41671  1.0000
  H   H219      1.0  0.58422  0.72931  0.35247  1.0000
  H   H220      1.0  0.58213  0.82408  0.49456  1.0000
  C   C180      1.0  0.65530  0.89348  0.14597  1.0000
  C   C181      1.0  0.56699  0.67795  0.01511  1.0000
  H   H221      1.0  0.62150  0.82024  0.24932  1.0000
  S   S51       1.0  0.52827  0.91635  0.18258  1.0000
  Fe  Fe28      1.0  0.52200  0.91628  0.24405  1.0000
  S   S52       1.0  0.53679  0.84204  0.27102  1.0000
  H   H222      1.0  0.34815  0.72292  0.08408  1.0000
  H   H223      1.0  0.51143  0.69629  0.03130  1.0000
  C   C182      1.0  0.60517  0.80791  0.35103  1.0000
  C   C183      1.0  0.58355  0.76896  0.34214  1.0000
  C   C184      1.0  0.56202  0.78070  0.31856  1.0000
  C   C185      1.0  0.56118  0.83169  0.30416  1.0000
  C   C186      1.0  0.58193  0.87120  0.31406  1.0000
  C   C187      1.0  0.60411  0.85913  0.33698  1.0000
  Fe  Fe29      1.0  0.40363  0.70173  0.02020  1.0000
  H   H224      1.0  0.54627  0.74974  0.31096  1.0000
  H   H225      1.0  0.58170  0.91057  0.30320  1.0000
  H   H226      1.0  0.36911  0.79882  0.18422  1.0000
  S   S53       1.0  0.59460  0.52913  0.43970  1.0000
  H   H227      1.0  0.58093  0.85185  0.43192  1.0000
  C   C188      1.0  0.34549  0.73964  0.15702  1.0000
  H   H228      1.0  0.53761  0.59850  0.43472  1.0000
  H   H229      1.0  0.44035  0.97187  0.47677  1.0000
  H   H230      1.0  0.60144  0.89942  0.23255  1.0000
  H   H231      1.0  0.59364  0.84832  0.16147  1.0000
  S   S54       1.0  0.38823  0.61823  0.01015  1.0000
  C   C189      1.0  0.55026  0.51714  0.44044  1.0000
  H   H232      1.0  0.57444  0.71420  0.02646  1.0000
  C   C190      1.0  0.57100  0.93346  0.44713  1.0000
  C   C191      1.0  0.53149  0.66803  0.01789  1.0000
  S   S55       1.0  0.58464  0.69017  0.45404  1.0000
  C   C192      1.0  0.49206  0.54829  0.44028  1.0000
  H   H233      1.0  0.34222  0.61123  0.14782  1.0000
  C   C193      1.0  0.64939  0.82124  0.23604  1.0000
  H   H234      1.0  0.62083  0.88952  0.34356  1.0000
  C   C194      1.0  0.52166  0.62144  0.00365  1.0000
  C   C195      1.0  0.52763  0.55858  0.43830  1.0000
  H   H235      1.0  0.47464  0.58054  0.43850  1.0000
  H   H236      1.0  0.60473  0.51063  0.01510  1.0000
  Fe  Fe30      1.0  0.61335  0.61256  0.44567  1.0000
  S   S56       1.0  0.54492  0.99703  0.24332  1.0000
  C   C196      1.0  0.61889  0.91394  0.20611  1.0000
  H   H237      1.0  0.63592  0.91269  0.13315  1.0000
  C   C197      1.0  0.57678  0.88073  0.45400  1.0000
  C   C198      1.0  0.34482  0.63369  0.12187  1.0000
  S   S57       1.0  0.63566  0.62314  0.49439  1.0000
  S   S58       1.0  0.63588  0.79363  0.37701  1.0000
  C   C199      1.0  0.34571  0.77519  0.18538  1.0000
  H   H238      1.0  0.45549  0.97621  0.40862  1.0000
  C   C200      1.0  0.61147  0.83135  0.17705  1.0000
  H   H239      1.0  0.49399  0.61371  0.00595  1.0000
  H   H240      1.0  0.59388  0.81712  0.20357  1.0000
  H   H241      1.0  0.57063  0.94514  0.41950  1.0000
  C   C201      1.0  0.56606  0.97099  0.47546  1.0000
  S   S59       1.0  0.35859  0.73722  0.00203  1.0000
  H   H242      1.0  0.34534  0.60501  0.09922  1.0000
  H   H243      1.0  0.50316  0.62863  0.49612  1.0000
  H   H244      1.0  0.63768  0.94275  0.21284  1.0000
  N   N13       1.0  0.63775  0.87054  0.18257  1.0000
  H   H245      1.0  0.62465  0.79627  0.16161  1.0000
  C   C202      1.0  0.59285  0.64139  0.99795  1.0000
  H   H246      1.0  0.61976  0.65152  0.99698  1.0000
  S   S60       1.0  0.37939  0.65908  0.92905  1.0000
  S   S61       1.0  0.44106  0.70760  0.96431  1.0000
  Fe  Fe31      1.0  0.39588  0.73936  0.94489  1.0000
  S   S62       1.0  0.41746  0.81421  0.91344  1.0000
  H   H247      1.0  0.53993  0.66871  0.81895  1.0000
  H   H248      1.0  0.57351  0.88828  0.54444  1.0000
  S   S63       1.0  0.46440  0.57403  0.91862  1.0000
  C   C203      1.0  0.50014  0.73679  0.86616  1.0000
  Fe  Fe32      1.0  0.53874  0.98332  0.68204  1.0000
  C   C204      1.0  0.41911  0.84008  0.86928  1.0000
  C   C205      1.0  0.39333  0.82895  0.85084  1.0000
  C   C206      1.0  0.39429  0.85451  0.81730  1.0000
  C   C207      1.0  0.42114  0.89091  0.80178  1.0000
  C   C208      1.0  0.44746  0.90069  0.81972  1.0000
  C   C209      1.0  0.44634  0.87558  0.85332  1.0000
  H   H249      1.0  0.37205  0.80207  0.86296  1.0000
  H   H250      1.0  0.37387  0.84659  0.80353  1.0000
  H   H251      1.0  0.46859  0.92769  0.80775  1.0000
  H   H252      1.0  0.46656  0.88408  0.86724  1.0000
  H   H253      1.0  0.47247  0.63133  0.59770  1.0000
  H   H254      1.0  0.44321  0.67390  0.82665  1.0000
  C   C210      1.0  0.47058  0.76562  0.78740  1.0000
  H   H255      1.0  0.50793  0.97542  0.56534  1.0000
  C   C211      1.0  0.47850  0.79977  0.75714  1.0000
  S   S64       1.0  0.57242  0.73434  0.55255  1.0000
  C   C212      1.0  0.59542  0.99595  0.55503  1.0000
  S   S65       1.0  0.58615  0.93737  0.64860  1.0000
  H   H256      1.0  0.56684  0.81111  0.74399  1.0000
  C   C213      1.0  0.57739  0.78987  0.57956  1.0000
  C   C214      1.0  0.60990  0.81491  0.57579  1.0000
  C   C215      1.0  0.61235  0.85919  0.59780  1.0000
  C   C216      1.0  0.58231  0.87941  0.62330  1.0000
  C   C217      1.0  0.54987  0.85413  0.62717  1.0000
  C   C218      1.0  0.54752  0.80947  0.60558  1.0000
  Fe  Fe33      1.0  0.46416  0.98005  0.73070  1.0000
  H   H257      1.0  0.51819  0.98624  0.84728  1.0000
  H   H258      1.0  0.52657  0.86893  0.64679  1.0000
  H   H259      1.0  0.52228  0.79028  0.60882  1.0000
  H   H260      1.0  0.47165  0.65594  0.53510  1.0000
  C   C219      1.0  0.51305  0.81612  0.74165  1.0000
  C   C220      1.0  0.49745  0.74635  0.80290  1.0000
  H   H261      1.0  0.49414  0.71152  0.89124  1.0000
  C   C221      1.0  0.53242  0.76373  0.78632  1.0000
  C   C222      1.0  0.45254  0.69461  0.84844  1.0000
  H   H262      1.0  0.50496  0.63261  0.84876  1.0000
  H   H263      1.0  0.43520  0.72912  0.85840  1.0000
  H   H264      1.0  0.48542  0.77442  0.87373  1.0000
  H   H265      1.0  0.65367  0.60728  0.94512  1.0000
  H   H266      1.0  0.63316  0.80007  0.55604  1.0000
  C   C223      1.0  0.53998  0.79807  0.75616  1.0000
  H   H267      1.0  0.55419  0.75127  0.79677  1.0000
  H   H268      1.0  0.44309  0.75581  0.79848  1.0000
  N   N14       1.0  0.49016  0.71047  0.83510  1.0000
  H   H269      1.0  0.45752  0.81475  0.74611  1.0000
  H   H270      1.0  0.50540  0.64160  0.80123  1.0000
  N   N15       1.0  0.50869  0.60094  0.54827  1.0000
  H   H271      1.0  0.55685  0.56371  0.55264  1.0000
  C   C224      1.0  0.54737  0.59281  0.53541  1.0000
  C   C225      1.0  0.50064  0.62034  0.58683  1.0000
  H   H272      1.0  0.51610  0.67861  0.52388  1.0000
  C   C226      1.0  0.60669  0.54248  0.92690  1.0000
  C   C227      1.0  0.56682  0.95635  0.51177  1.0000
  C   C228      1.0  0.54724  0.58462  0.98664  1.0000
  H   H273      1.0  0.56211  0.62979  0.53684  1.0000
  H   H274      1.0  0.62707  0.51394  0.91196  1.0000
  H   H275      1.0  0.50677  0.58982  0.60540  1.0000
  C   C229      1.0  0.42378  0.94861  0.93240  1.0000
  H   H276      1.0  0.43659  0.59048  0.56459  1.0000
  H   H277      1.0  0.60139  0.95705  0.56545  1.0000
  C   C230      1.0  0.57252  0.90226  0.51770  1.0000
  H   H278      1.0  0.44430  0.54112  0.99531  1.0000
  H   H279      1.0  0.43140  0.99385  0.88352  1.0000
  H   H280      1.0  0.51642  0.65625  0.58917  1.0000
  C   C231      1.0  0.58365  0.59350  0.98293  1.0000
  Fe  Fe34      1.0  0.34541  0.65329  0.98782  1.0000
  C   C232      1.0  0.45064  0.55406  0.55635  1.0000
  C   C233      1.0  0.51110  0.66139  0.82550  1.0000
  H   H281      1.0  0.47635  0.94774  0.99079  1.0000
  C   C234      1.0  0.48806  0.55245  0.54660  1.0000
  Fe  Fe35      1.0  0.42248  0.62805  0.95252  1.0000
  C   C235      1.0  0.44181  0.98566  0.90683  1.0000
  H   H282      1.0  0.53760  0.94067  0.58599  1.0000
  H   H283      1.0  0.63762  0.87824  0.59472  1.0000
  C   C236      1.0  0.47993  0.52373  0.94253  1.0000
  H   H284      1.0  0.44825  0.66696  0.87222  1.0000
  H   H285      1.0  0.60951  0.57922  0.91028  1.0000
  S   S66       1.0  0.48683  0.97308  0.66924  1.0000
  S   S67       1.0  0.42116  0.92286  0.75985  1.0000
  H   H286      1.0  0.51890  0.84324  0.71854  1.0000
  H   H287      1.0  0.52868  0.74632  0.85962  1.0000
  C   C237      1.0  0.46675  0.95867  0.96730  1.0000
  C   C238      1.0  0.46565  0.51646  0.98038  1.0000
  H   H288      1.0  0.55543  0.57969  0.50613  1.0000
  C   C239      1.0  0.49939  0.64272  0.52492  1.0000
  C   C240      1.0  0.64710  0.57006  0.96107  1.0000
  S   S68       1.0  0.51648  0.98506  0.74399  1.0000
  H   H289      1.0  0.65254  0.57516  0.98848  1.0000
  H   H290      1.0  0.40044  0.92918  0.92835  1.0000
  C   C241      1.0  0.53292  0.97887  0.57379  1.0000
  H   H291      1.0  0.58088  0.52440  0.92705  1.0000
  C   C242      1.0  0.43637  0.93477  0.96237  1.0000
  H   H292      1.0  0.42273  0.90491  0.98154  1.0000
  N   N16       1.0  0.56272  0.99477  0.54239  1.0000
  C   C243      1.0  0.48495  0.99608  0.94199  1.0000
  N   N17       1.0  0.61004  0.55360  0.96464  1.0000
  H   H293      1.0  0.53822  0.54883  0.97657  1.0000
  Fe  Fe36      1.0  0.61095  0.70400  0.49978  1.0000
  C   C244      1.0  0.60381  0.50393  0.98610  1.0000
  C   C245      1.0  0.43058  0.50878  0.55511  1.0000
  H   H294      1.0  0.40206  0.51108  0.56160  1.0000
  S   S69       1.0  0.92654  0.28102  0.47736  1.0000
  S   S70       1.0  0.88903  0.37753  0.44307  1.0000
  H   H295      1.0  0.92799  0.46077  0.00696  1.0000
  Fe  Fe37      1.0  0.88571  0.28889  0.44555  1.0000
  S   S71       1.0  0.88586  0.25547  0.38918  1.0000
  Fe  Fe38      1.0  0.92616  0.36956  0.47887  1.0000
  H   H296      1.0  0.81408  0.29504  0.36666  1.0000
  Fe  Fe39      1.0  0.84569  0.37748  0.49560  1.0000
  H   H297      1.0  0.70101  0.33706  0.04245  1.0000
  C   C246      1.0  0.74134  0.25642  0.00655  1.0000
  C   C247      1.0  0.79861  0.42531  0.02309  1.0000
  H   H298      1.0  0.95148  0.05370  0.40044  1.0000
  C   C248      1.0  0.89535  0.18972  0.37353  1.0000
  C   C249      1.0  0.91088  0.18070  0.33583  1.0000
  C   C250      1.0  0.91571  0.12910  0.32145  1.0000
  C   C251      1.0  0.90388  0.08595  0.34447  1.0000
  C   C252      1.0  0.88857  0.09483  0.38224  1.0000
  C   C253      1.0  0.88481  0.14642  0.39686  1.0000
  H   H299      1.0  0.91887  0.21392  0.31752  1.0000
  H   H300      1.0  0.92745  0.12291  0.29232  1.0000
  H   H301      1.0  0.87921  0.06173  0.40027  1.0000
  H   H302      1.0  0.87238  0.15281  0.42583  1.0000
  C   C254      1.0  0.77628  0.39663  0.00679  1.0000
  C   C255      1.0  0.81199  0.34591  0.05178  1.0000
  H   H303      1.0  0.71610  0.32383  0.41068  1.0000
  H   H304      1.0  0.80156  0.46761  0.01868  1.0000
  H   H305      1.0  0.70818  0.37860  0.00240  1.0000
  H   H306      1.0  0.95421  0.47045  0.41068  1.0000
  H   H307      1.0  0.65964  0.09157  0.12314  1.0000
  H   H308      1.0  0.79357  0.34455  0.34507  1.0000
  H   H309      1.0  0.78644  0.27557  0.04257  1.0000
  H   H310      1.0  0.82454  0.40975  0.37579  1.0000
  H   H311      1.0  0.81653  0.40819  0.42556  1.0000
  H   H312      1.0  0.66959  0.47678  0.41635  1.0000
  H   H313      1.0  0.76769  0.29292  0.37191  1.0000
  H   H314      1.0  0.97345  0.07657  0.35543  1.0000
  H   H315      1.0  0.77341  0.34380  0.46233  1.0000
  C   C256      1.0  0.68990  0.39759  0.41353  1.0000
  H   H316      1.0  0.77989  0.46562  0.40505  1.0000
  H   H317      1.0  0.67760  0.16804  0.08240  1.0000
  H   H318      1.0  0.83355  0.42231  0.05847  1.0000
  C   C257      1.0  0.81647  0.39995  0.04556  1.0000
  S   S72       1.0  0.90672  0.02068  0.32684  1.0000
  C   C258      1.0  0.78916  0.31706  0.03608  1.0000
  S   S73       1.0  0.98078  0.40509  0.46370  1.0000
  N   N18       1.0  0.78472  0.35419  0.40362  1.0000
  H   H319      1.0  0.89203  0.49003  0.41335  1.0000
  C   C259      1.0  0.77903  0.31986  0.43656  1.0000
  C   C260      1.0  0.79012  0.32027  0.37038  1.0000
  C   C261      1.0  0.75358  0.38856  0.40686  1.0000
  C   C262      1.0  0.71975  0.36605  0.41024  1.0000
  C   C263      1.0  0.75561  0.44461  0.40678  1.0000
  H   H320      1.0  0.82591  0.32636  0.06938  1.0000
  H   H321      1.0  0.68776  0.47332  0.00553  1.0000
  C   C264      1.0  0.77908  0.48153  0.48943  1.0000
  C   C265      1.0  0.81800  0.38385  0.40048  1.0000
  H   H322      1.0  0.80268  0.29525  0.43580  1.0000
  C   C266      1.0  0.69283  0.45232  0.41340  1.0000
  H   H323      1.0  0.84086  0.35674  0.39755  1.0000
  H   H324      1.0  0.75666  0.29213  0.43911  1.0000
  H   H325      1.0  0.87468  0.48751  0.00093  1.0000
  C   C267      1.0  0.77033  0.34185  0.01324  1.0000
  C   C268      1.0  0.97800  0.06246  0.38186  1.0000
  H   H326      1.0  0.96688  0.00414  0.09320  1.0000
  C   C269      1.0  0.72562  0.47571  0.40982  1.0000
  C   C270      1.0  0.70932  0.33736  0.01176  1.0000
  H   H327      1.0  0.95901  0.06396  0.01387  1.0000
  H   H328      1.0  0.66423  0.37972  0.41644  1.0000
  H   H329      1.0  0.68893  0.31531  0.00223  1.0000
  H   H330      1.0  0.73133  0.24991  0.03681  1.0000
  S   S74       1.0  0.84038  0.28886  0.49653  1.0000
  H   H331      1.0  0.98982  0.09627  0.39332  1.0000
  H   H332      1.0  0.97884  0.05474  0.44908  1.0000
  C   C271      1.0  0.99087  0.46285  0.48465  1.0000
  H   H333      1.0  0.97361  0.40111  0.01425  1.0000
  N   N19       1.0  0.74470  0.31352  0.99742  1.0000
  Fe  Fe40      1.0  0.88175  0.28813  0.52851  1.0000
  S   S75       1.0  0.87541  0.24007  0.58126  1.0000
  H   H334      1.0  0.95762  0.09924  0.87261  1.0000
  C   C272      1.0  0.75509  0.49946  0.93003  1.0000
  S   S76       1.0  0.88334  0.37684  0.53177  1.0000
  H   H335      1.0  0.72182  0.23654  0.99411  1.0000
  S   S77       1.0  0.70102  0.42958  0.93007  1.0000
  S   S78       1.0  0.92143  0.00785  0.82159  1.0000
  H   H336      1.0  0.92710  0.31989  0.63067  1.0000
  C   C273      1.0  0.97483  0.07935  0.98785  1.0000
  C   C274      1.0  0.87259  0.44106  0.93787  1.0000
  H   H337      1.0  0.95583  0.38336  0.54187  1.0000
  S   S79       1.0  0.79322  0.42211  0.50635  1.0000
  C   C275      1.0  0.72377  0.47618  0.95138  1.0000
  H   H338      1.0  0.93484  0.38762  0.58986  1.0000
  Fe  Fe41      1.0  0.96515  0.02733  0.77022  1.0000
  C   C276      1.0  0.90852  0.20950  0.59857  1.0000
  C   C277      1.0  0.89890  0.18536  0.63349  1.0000
  C   C278      1.0  0.92451  0.16238  0.64882  1.0000
  C   C279      1.0  0.96018  0.16385  0.62950  1.0000
  H   H339      1.0  0.93803  0.47759  0.51767  1.0000
  C   C280      1.0  0.94404  0.20953  0.57881  1.0000
  H   H340      1.0  0.87147  0.18480  0.64893  1.0000
  H   H341      1.0  0.91673  0.14460  0.67586  1.0000
  S   S80       1.0  0.66223  0.28381  0.94078  1.0000
  H   H342      1.0  0.95165  0.22671  0.55160  1.0000
  C   C281      1.0  0.95219  0.31205  0.63626  1.0000
  N   N20       1.0  0.98755  0.35533  0.57675  1.0000
  H   H343      1.0  0.94523  0.00957  0.89922  1.0000
  C   C282      1.0  0.96513  0.49102  0.51039  1.0000
  C   C283      1.0  0.98184  0.26998  0.67741  1.0000
  H   H344      1.0  0.95753  0.02012  0.95681  1.0000
  H   H345      1.0  0.72455  0.46797  0.51785  1.0000
  H   H346      1.0  0.94245  0.40232  0.89491  1.0000
  C   C284      1.0  0.96608  0.40136  0.98846  1.0000
  H   H347      1.0  0.88077  0.41619  0.91268  1.0000
  C   C285      1.0  0.98499  0.32650  0.61157  1.0000
  H   H348      1.0  0.76309  0.41793  0.98957  1.0000
  C   C286      1.0  0.71188  0.49027  0.98864  1.0000
  H   H349      1.0  0.86200  0.41418  0.96157  1.0000
  N   N21       1.0  0.90220  0.47309  0.94387  1.0000
  S   S81       1.0  0.98449  0.11129  0.75875  1.0000
  C   C287      1.0  0.93007  0.43763  0.94993  1.0000
  C   C288      1.0  0.96970  0.18734  0.59435  1.0000
  C   C289      1.0  0.98402  0.36920  0.95957  1.0000
  H   H350      1.0  0.98071  0.24615  0.70160  1.0000
  H   H351      1.0  0.98661  0.43143  0.60233  1.0000
  H   H352      1.0  0.85050  0.46639  0.93452  1.0000
  C   C290      1.0  0.95294  0.36291  0.56860  1.0000
  C   C291      1.0  0.94836  0.40328  0.92136  1.0000
  C   C292      1.0  0.75529  0.31817  0.95663  1.0000
  H   H353      1.0  0.75451  0.35952  0.94714  1.0000
  C   C293      1.0  0.95087  0.28433  0.66868  1.0000
  C   C294      1.0  0.97433  0.05435  0.95472  1.0000
  C   C295      1.0  0.93968  0.43552  0.98384  1.0000
  H   H354      1.0  0.92567  0.27169  0.68628  1.0000
  H   H355      1.0  0.73723  0.29572  0.94374  1.0000
  H   H356      1.0  0.78243  0.30290  0.94482  1.0000
  C   C296      1.0  0.97517  0.37006  0.92611  1.0000
  H   H357      1.0  0.93979  0.32444  0.56653  1.0000
  S   S82       1.0  0.97056  0.00800  0.71035  1.0000
  H   H358      1.0  0.92320  0.48286  0.88474  1.0000
  H   H359      1.0  0.98966  0.34519  0.90367  1.0000
  C   C297      1.0  0.98477  0.08455  0.85990  1.0000
  H   H360      1.0  0.98439  0.06557  0.83331  1.0000
  H   H361      1.0  0.76447  0.48936  0.90111  1.0000
  C   C298      1.0  0.74298  0.49429  0.49985  1.0000
  H   H362      1.0  0.76678  0.23534  0.99592  1.0000
  C   C299      1.0  0.96718  0.55098  0.42029  1.0000
  S   S83       1.0  0.73954  0.63548  0.44798  1.0000
  C   C300      1.0  0.97206  0.96488  0.10385  1.0000
  H   H363      1.0  0.93801  0.68380  0.47748  1.0000
  S   S84       1.0  0.93803  0.99144  0.21552  1.0000
  S   S85       1.0  0.86695  0.80577  0.06162  1.0000
  H   H364      1.0  0.82834  0.76575  0.31824  1.0000
  S   S86       1.0  0.87255  0.65249  0.02351  1.0000
  H   H365      1.0  0.72553  0.77910  0.25314  1.0000
  S   S87       1.0  0.94602  0.83639  0.18866  1.0000
  S   S88       1.0  0.96516  0.91534  0.27201  1.0000
  C   C301      1.0  0.88927  0.81312  0.09674  1.0000
  C   C302      1.0  0.88464  0.86000  0.11760  1.0000
  C   C303      1.0  0.90217  0.86811  0.14542  1.0000
  C   C304      1.0  0.92417  0.82899  0.15312  1.0000
  C   C305      1.0  0.92850  0.78189  0.13257  1.0000
  C   C306      1.0  0.91150  0.77417  0.10426  1.0000
  H   H366      1.0  0.86754  0.89039  0.11195  1.0000
  H   H367      1.0  0.89842  0.90451  0.16099  1.0000
  H   H368      1.0  0.72691  0.88100  0.31759  1.0000
  H   H369      1.0  0.91523  0.73784  0.08856  1.0000
  C   C307      1.0  0.69953  0.84348  0.18532  1.0000
  Fe  Fe42      1.0  0.87193  0.74113  0.01776  1.0000
  H   H370      1.0  0.72227  0.53614  0.03324  1.0000
  C   C308      1.0  0.72191  0.81975  0.20401  1.0000
  Fe  Fe43      1.0  0.68204  0.65890  0.45369  1.0000
  C   C309      1.0  0.75385  0.57570  0.46430  1.0000
  C   C310      1.0  0.78992  0.56275  0.45364  1.0000
  C   C311      1.0  0.73151  0.52614  0.00430  1.0000
  C   C312      1.0  0.74951  0.85630  0.31713  1.0000
  N   N22       1.0  0.84972  0.86285  0.28222  1.0000
  C   C313      1.0  0.87816  0.82465  0.28286  1.0000
  C   C314      1.0  0.85306  0.87601  0.24300  1.0000
  C   C315      1.0  0.85629  0.91125  0.30170  1.0000
  C   C316      1.0  0.81376  0.84266  0.29967  1.0000
  C   C317      1.0  0.78372  0.87407  0.30033  1.0000
  H   H371      1.0  0.87537  0.78763  0.26787  1.0000
  H   H372      1.0  0.90475  0.84063  0.26884  1.0000
  H   H373      1.0  0.87879  0.81505  0.31154  1.0000
  H   H374      1.0  0.84786  0.84083  0.22738  1.0000
  H   H375      1.0  0.88013  0.89018  0.22903  1.0000
  H   H376      1.0  0.83485  0.90784  0.23968  1.0000
  H   H377      1.0  0.85317  0.90364  0.33155  1.0000
  H   H378      1.0  0.88347  0.92684  0.29012  1.0000
  H   H379      1.0  0.78649  0.91294  0.28822  1.0000
  Fe  Fe44      1.0  0.94570  0.99873  0.27263  1.0000
  H   H380      1.0  0.80809  0.58936  0.43573  1.0000
  C   C318      1.0  0.98692  0.53174  0.03430  1.0000
  C   C319      1.0  0.94454  0.51063  0.41536  1.0000
  H   H381      1.0  0.94524  0.75115  0.13847  1.0000
  S   S89       1.0  0.66088  0.64528  0.40437  1.0000
  H   H382      1.0  0.98626  0.67818  0.37850  1.0000
  H   H383      1.0  0.95097  0.70971  0.41221  1.0000
  C   C320      1.0  0.74417  0.80706  0.33398  1.0000
  H   H384      1.0  0.83816  0.94398  0.29971  1.0000
  C   C321      1.0  0.80734  0.79244  0.31702  1.0000
  H   H385      1.0  0.95061  0.87496  0.06637  1.0000
  C   C322      1.0  0.97742  0.69164  0.40772  1.0000
  H   H386      1.0  0.71760  0.79371  0.34745  1.0000
  C   C323      1.0  0.73039  0.54094  0.48736  1.0000
  H   H387      1.0  0.76861  0.73711  0.34749  1.0000
  H   H388      1.0  0.95036  0.59237  0.02794  1.0000
  C   C324      1.0  0.77300  0.77524  0.33393  1.0000
  H   H389      1.0  0.72765  0.51842  0.41013  1.0000
  C   C325      1.0  0.95509  0.60382  0.42722  1.0000
  C   C326      1.0  0.80252  0.51596  0.46605  1.0000
  H   H390      1.0  0.98674  0.86260  0.10327  1.0000
  C   C327      1.0  0.91905  0.61325  0.42931  1.0000
  C   C328      1.0  0.67195  0.79817  0.25467  1.0000
  H   H391      1.0  0.70257  0.55009  0.49575  1.0000
  C   C329      1.0  0.70816  0.79740  0.23869  1.0000
  C   C330      1.0  0.95934  0.87965  0.00841  1.0000
  H   H392      1.0  0.86939  0.58096  0.42576  1.0000
  H   H393      1.0  0.75010  0.81849  0.19143  1.0000
  H   H394      1.0  0.93763  0.85293  0.00841  1.0000
  H   H395      1.0  0.97632  0.97143  0.13165  1.0000
  Fe  Fe45      1.0  0.96292  0.91176  0.21278  1.0000
  C   C331      1.0  0.97086  0.56546  0.01391  1.0000
  H   H396      1.0  0.97850  0.53236  0.06412  1.0000
  C   C332      1.0  0.96689  0.89271  0.04163  1.0000
  H   H397      1.0  0.71195  0.86003  0.15862  1.0000
  H   H398      1.0  0.90767  0.65200  0.43553  1.0000
  C   C333      1.0  0.89677  0.57270  0.42402  1.0000
  H   H399      1.0  0.66114  0.78067  0.28167  1.0000
  H   H400      1.0  0.67438  0.92498  0.14830  1.0000
  C   C334      1.0  0.66241  0.84510  0.20099  1.0000
  N   N23       1.0  0.97795  0.64747  0.43341  1.0000
  H   H401      1.0  0.97765  0.98944  0.33332  1.0000
  C   C335      1.0  0.98410  0.97418  0.35848  1.0000
  S   S90       1.0  0.78730  0.59239  0.00499  1.0000
  H   H402      1.0  0.98243  0.69799  0.47832  1.0000
  C   C336      1.0  0.96492  0.66683  0.47185  1.0000
  C   C337      1.0  0.90947  0.52149  0.41706  1.0000
  H   H403      1.0  0.94759  0.94131  0.10811  1.0000
  H   H404      1.0  0.66911  0.86275  0.12625  1.0000
  H   H405      1.0  0.95899  0.96025  0.37752  1.0000
  H   H406      1.0  0.83029  0.50672  0.45796  1.0000
  H   H407      1.0  0.96393  0.63427  0.49189  1.0000
  S   S91       1.0  0.65937  0.74152  0.46300  1.0000
  S   S92       1.0  0.87751  0.64707  0.93486  1.0000
  H   H408      1.0  0.86699  0.53596  0.96983  1.0000
  S   S93       1.0  0.91769  0.74333  0.96709  1.0000
  Fe  Fe46      1.0  0.87744  0.73593  0.93489  1.0000
  S   S94       1.0  0.88919  0.77187  0.87737  1.0000
  Fe  Fe47      1.0  0.91508  0.65517  0.97017  1.0000
  Fe  Fe48      1.0  0.83446  0.65015  0.98748  1.0000
  H   H409      1.0  0.92667  0.87842  0.68525  1.0000
  H   H410      1.0  0.97431  0.83308  0.75234  1.0000
  H   H411      1.0  0.97610  0.69017  0.59009  1.0000
  C   C338      1.0  0.90160  0.83807  0.86535  1.0000
  C   C339      1.0  0.88511  0.88068  0.88674  1.0000
  C   C340      1.0  0.89171  0.93260  0.87327  1.0000
  C   C341      1.0  0.91526  0.94243  0.83867  1.0000
  C   C342      1.0  0.93306  0.90008  0.81817  1.0000
  C   C343      1.0  0.92591  0.84815  0.83129  1.0000
  H   H412      1.0  0.86595  0.87343  0.91277  1.0000
  H   H413      1.0  0.87780  0.96513  0.88933  1.0000
  H   H414      1.0  0.91402  0.71897  0.69977  1.0000
  H   H415      1.0  0.88998  0.80438  0.72697  1.0000
  S   S95       1.0  0.96485  0.60843  0.94836  1.0000
  N   N24       1.0  0.94646  0.81426  0.71155  1.0000
  H   H416      1.0  0.90844  0.53536  0.98086  1.0000
  H   H417      1.0  0.91307  0.76220  0.75174  1.0000
  H   H418      1.0  0.90737  0.82985  0.76302  1.0000
  H   H419      1.0  0.97573  0.76458  0.73923  1.0000
  C   C344      1.0  0.76298  0.54919  0.98299  1.0000
  H   H420      1.0  0.95443  0.55943  0.54582  1.0000
  C   C345      1.0  0.93451  0.73304  0.67663  1.0000
  H   H421      1.0  0.92856  0.66436  0.64469  1.0000
  H   H422      1.0  0.93888  0.81534  0.81486  1.0000
  C   C346      1.0  0.97572  0.80562  0.72890  1.0000
  C   C347      1.0  0.91275  0.80187  0.73928  1.0000
  C   C348      1.0  0.97972  0.90030  0.97537  1.0000
  C   C349      1.0  0.96943  0.71549  0.61426  1.0000
  C   C350      1.0  0.97991  0.79455  0.64593  1.0000
  H   H423      1.0  0.95163  0.90741  0.79183  1.0000
  C   C351      1.0  0.94540  0.87111  0.70230  1.0000
  C   C352      1.0  0.77455  0.53568  0.94562  1.0000
  H   H424      1.0  0.79853  0.55306  0.92873  1.0000
  H   H425      1.0  0.93722  0.89631  0.72743  1.0000
  C   C353      1.0  0.98216  0.56510  0.97540  1.0000
  C   C354      1.0  0.91662  0.50606  0.91071  1.0000
  C   C355      1.0  0.97367  0.99968  0.88808  1.0000
  C   C356      1.0  0.95281  0.78119  0.67788  1.0000
  S   S96       1.0  0.83092  0.73922  0.98516  1.0000
  C   C357      1.0  0.94271  0.70102  0.64511  1.0000
  H   H426      1.0  0.97402  0.88919  0.94966  1.0000
  C   C358      1.0  0.97447  0.53723  0.52632  1.0000
  C   C359      1.0  0.88755  0.50933  0.97532  1.0000
  C   C360      1.0  0.98798  0.76221  0.61467  1.0000
  H   H427      1.0  0.98121  0.96900  0.90551  1.0000
  H   H428      1.0  0.97163  0.88685  0.68722  1.0000
  H   H429      1.0  0.89768  0.53697  0.90731  1.0000
  H   H430      1.0  0.97593  0.98093  0.86068  1.0000
  H   H431      1.0  0.94120  0.52650  0.91249  1.0000
  H   H432      1.0  0.66620  0.53993  0.94609  1.0000
