data_image0
_chemical_formula_structural       FeS2FeS2FeSFeS3FeHSFeSNCHC2HC2H4C6H4C6H3C2HCH4NC3HCH2CH4CHCH2C2H2C2H2CH3CSCH2SH2CHC2HCH2CHCH2C3H2NH2CH3C2H2C2H5S2FeSHNCSC2HC3HCH2C2HCH2CHC3H2CHSH2NC4H9CHCH5C2HC2H2SCH3FeCHFeCSC3HC4H3SH3SFeSH2C3H2C4HCH2CHC3H2NCFeH2CH2C2HCHCFeHCH2CHCH2NSC3H3NC2H2NSCH3CHC2SC2HSHC2H2SHCFeS2FeS2FeSFeS3FeS4C4H3CH3C6H4C6H3CH2CH3CH3CNCH6CHCHCHCHFeC4HCHCHNC3H4C3H3CHCH2CH3CHCH2FeS2HCH2S2FeHSNHCHCHCHC6H5CH2SHC3FeH2C3H2CH3NCHCH2CHCSHCH3SC2SHCH3CHFeH2FeS2H2CS3FeCSHNCFeHCFeC7H6CHCH3CH2NCHCH3CH3C3H6CH4SC2H2SH2NHC2HC4H3CH3C3H3FeS2FeS2FeSFeS3HS2FeHSC3H2C6H4C6H4C2H3CNH7C2H2NHC3HCHCHCH3C4H2C2HC2FeH4C2SH2CH2C2HS4FeS2FeSHC5H2C6H3FeCHCH2CFeH2SFeHCH3C2H6CH2CNC2H2CHNH4C2HC3H2C2S3CSFeS2CHSCHC4H3C5H3C2FeH3CH2CH5FeNC4FeCHCH2SCH2C2HFeCH2CH2FeS2FeS2FeSFeS3FeHSFeS2C2H2C6H4C6H5CH2C2HN2HCHC4H2CH5CH3CSC2HC2H3CH2C2H3C2H4C2H2C3HCH2CHNH2CHCH3C
_chemical_formula_sum              "Fe48 S96 H432 N24 C360"
_cell_length_a       43.2569
_cell_length_b       39.7326
_cell_length_c       25.6415
_cell_angle_alpha    89.8367
_cell_angle_beta     90.417
_cell_angle_gamma    89.5057

_space_group_name_H-M_alt    "P 1"
_space_group_IT_number       1

loop_
  _space_group_symop_operation_xyz
  'x, y, z'

loop_
  _atom_site_type_symbol
  _atom_site_label
  _atom_site_symmetry_multiplicity
  _atom_site_fract_x
  _atom_site_fract_y
  _atom_site_fract_z
  _atom_site_occupancy
  Fe  Fe1       1.0  0.19084  0.21228  0.28435  1.0000
  S   S1        1.0  0.15666  0.22831  0.34538  1.0000
  S   S2        1.0  0.20224  0.15656  0.27841  1.0000
  Fe  Fe2       1.0  0.20613  0.28473  0.25537  1.0000
  S   S3        1.0  0.17372  0.30631  0.31494  1.0000
  S   S4        1.0  0.24017  0.31337  0.20566  1.0000
  Fe  Fe3       1.0  0.19284  0.26610  0.36902  1.0000
  S   S5        1.0  0.20284  0.27252  0.45621  1.0000
  Fe  Fe4       1.0  0.14032  0.26668  0.28650  1.0000
  S   S6        1.0  0.09131  0.28121  0.26017  1.0000
  S   S7        1.0  0.22774  0.24769  0.31154  1.0000
  S   S8        1.0  0.17210  0.24766  0.22331  1.0000
  Fe  Fe5       1.0  0.23884  0.03739  0.03130  1.0000
  H   H1        1.0  0.31689  0.26605  0.46608  1.0000
  S   S9        1.0  0.21228  0.08375  0.05874  1.0000
  Fe  Fe6       1.0  0.24094  0.47812  0.04369  1.0000
  S   S10       1.0  0.20366  0.44526  0.07786  1.0000
  N   N1        1.0  0.22676  0.16106  0.44493  1.0000
  C   C1        1.0  0.05381  0.26586  0.27545  1.0000
  H   H2        1.0  0.10226  0.20790  0.26279  1.0000
  C   C2        1.0  0.04917  0.23992  0.31156  1.0000
  C   C3        1.0  0.26865  0.48061  0.19736  1.0000
  H   H3        1.0  0.06864  0.22934  0.33276  1.0000
  C   C4        1.0  0.11848  0.47279  0.05436  1.0000
  C   C5        1.0  0.26713  0.26992  0.46083  1.0000
  H   H4        1.0  0.03116  0.29980  0.22133  1.0000
  H   H5        1.0  0.18771  0.17865  0.17266  1.0000
  H   H6        1.0  0.26675  0.27127  0.41869  1.0000
  H   H7        1.0  0.24446  0.20910  0.41946  1.0000
  C   C6        1.0  0.22914  0.34895  0.16819  1.0000
  C   C7        1.0  0.25197  0.36674  0.14124  1.0000
  C   C8        1.0  0.24443  0.39623  0.11335  1.0000
  C   C9        1.0  0.21390  0.40800  0.11180  1.0000
  C   C10       1.0  0.19098  0.39008  0.13842  1.0000
  C   C11       1.0  0.19857  0.36070  0.16673  1.0000
  H   H8        1.0  0.27567  0.35782  0.14217  1.0000
  H   H9        1.0  0.26225  0.40982  0.09302  1.0000
  H   H10       1.0  0.16730  0.39903  0.13738  1.0000
  H   H11       1.0  0.18081  0.34721  0.18743  1.0000
  C   C12       1.0  0.20737  0.13750  0.21678  1.0000
  C   C13       1.0  0.22003  0.10485  0.21389  1.0000
  C   C14       1.0  0.22273  0.08829  0.16556  1.0000
  C   C15       1.0  0.21207  0.10407  0.11999  1.0000
  C   C16       1.0  0.19963  0.13680  0.12291  1.0000
  C   C17       1.0  0.19765  0.15364  0.17095  1.0000
  H   H12       1.0  0.22757  0.09217  0.24921  1.0000
  H   H13       1.0  0.23223  0.06304  0.16378  1.0000
  H   H14       1.0  0.19096  0.14900  0.08792  1.0000
  C   C18       1.0  0.02794  0.27969  0.24923  1.0000
  C   C19       1.0  0.10971  0.18345  0.24569  1.0000
  H   H15       1.0  0.08112  0.15550  0.09504  1.0000
  C   C20       1.0  0.23573  0.18501  0.40349  1.0000
  H   H16       1.0  0.28128  0.36299  0.24285  1.0000
  H   H17       1.0  0.22485  0.37071  0.26946  1.0000
  H   H18       1.0  0.31053  0.37689  0.28718  1.0000
  H   H19       1.0  0.21104  0.20170  0.49480  1.0000
  N   N2        1.0  0.26433  0.39575  0.30289  1.0000
  C   C21       1.0  0.24076  0.46400  0.20413  1.0000
  C   C22       1.0  0.06176  0.17770  0.19917  1.0000
  C   C23       1.0  0.26524  0.42491  0.26674  1.0000
  H   H20       1.0  0.26549  0.21802  0.03109  1.0000
  C   C24       1.0  0.29334  0.44240  0.25868  1.0000
  H   H21       1.0  0.25401  0.17416  0.37802  1.0000
  H   H22       1.0  0.31659  0.48279  0.21835  1.0000
  C   C25       1.0  0.11228  0.50418  0.02970  1.0000
  H   H23       1.0  0.28150  0.16968  0.07547  1.0000
  H   H24       1.0  0.03291  0.49914  0.03239  1.0000
  H   H25       1.0  0.28372  0.34537  0.30702  1.0000
  H   H26       1.0  0.18168  0.18386  0.45564  1.0000
  C   C26       1.0  0.27398  0.40637  0.35596  1.0000
  H   H27       1.0  0.14190  0.46424  0.06145  1.0000
  C   C27       1.0  0.25438  0.15202  0.47664  1.0000
  H   H28       1.0  0.04547  0.44484  0.07518  1.0000
  H   H29       1.0  0.29822  0.41537  0.35726  1.0000
  C   C28       1.0  0.09464  0.45172  0.07048  1.0000
  C   C29       1.0  0.10420  0.20760  0.16045  1.0000
  H   H30       1.0  0.21582  0.39890  0.32236  1.0000
  H   H31       1.0  0.10096  0.10563  0.05032  1.0000
  C   C30       1.0  0.23318  0.38053  0.30750  1.0000
  C   C31       1.0  0.09692  0.13912  0.11612  1.0000
  H   H32       1.0  0.04941  0.17609  0.16114  1.0000
  H   H33       1.0  0.23323  0.35856  0.33464  1.0000
  C   C32       1.0  0.06391  0.46124  0.06256  1.0000
  H   H34       1.0  0.20429  0.11277  0.44780  1.0000
  H   H35       1.0  0.13772  0.06686  0.09471  1.0000
  H   H36       1.0  0.19114  0.13967  0.39589  1.0000
  C   C33       1.0  0.10797  0.11054  0.09024  1.0000
  S   S11       1.0  0.29261  0.47294  0.04907  1.0000
  C   C34       1.0  0.20306  0.17743  0.47821  1.0000
  H   H37       1.0  0.12942  0.20764  0.15212  1.0000
  H   H38       1.0  0.13536  0.12655  0.23202  1.0000
  S   S12       1.0  0.28933  0.04021  0.01070  1.0000
  H   H39       1.0  0.21671  0.42433  0.24016  1.0000
  H   H40       1.0  0.25659  0.09802  0.45839  1.0000
  C   C35       1.0  0.28595  0.36922  0.28443  1.0000
  H   H41       1.0  0.31445  0.43474  0.27831  1.0000
  C   C36       1.0  0.10647  0.14672  0.16785  1.0000
  C   C37       1.0  0.13739  0.09452  0.16664  1.0000
  H   H42       1.0  0.27266  0.38517  0.38443  1.0000
  C   C38       1.0  0.12843  0.08848  0.11529  1.0000
  H   H43       1.0  0.15361  0.07746  0.18574  1.0000
  H   H44       1.0  0.10260  0.16360  0.27374  1.0000
  C   C39       1.0  0.01909  0.22772  0.32050  1.0000
  H   H45       1.0  0.22057  0.47203  0.18190  1.0000
  C   C40       1.0  0.12669  0.12313  0.19280  1.0000
  H   H46       1.0  0.13542  0.18396  0.24399  1.0000
  H   H47       1.0  0.09161  0.20818  0.12258  1.0000
  C   C41       1.0  0.23891  0.43647  0.23808  1.0000
  C   C42       1.0  0.26678  0.11876  0.47925  1.0000
  C   C43       1.0  0.23936  0.27071  0.48840  1.0000
  H   H48       1.0  0.25890  0.42718  0.37034  1.0000
  H   H49       1.0  0.21567  0.19158  0.37802  1.0000
  N   N3        1.0  0.09585  0.17819  0.19319  1.0000
  H   H50       1.0  0.05441  0.15593  0.22339  1.0000
  H   H51       1.0  0.10011  0.42786  0.08927  1.0000
  C   C44       1.0  0.29490  0.46984  0.22449  1.0000
  H   H52       1.0  0.22779  0.11979  0.39026  1.0000
  H   H53       1.0  0.27007  0.50168  0.17056  1.0000
  H   H54       1.0  0.24388  0.16570  0.04432  1.0000
  C   C45       1.0  0.21198  0.13185  0.41896  1.0000
  C   C46       1.0  0.05692  0.49187  0.03844  1.0000
  H   H55       1.0  0.09838  0.23189  0.17989  1.0000
  H   H56       1.0  0.05301  0.20103  0.21839  1.0000
  C   C47       1.0  0.29554  0.26702  0.48784  1.0000
  C   C48       1.0  0.26765  0.15484  0.04710  1.0000
  H   H57       1.0  0.26498  0.12931  0.06452  1.0000
  H   H58       1.0  0.01576  0.20757  0.34830  1.0000
  H   H59       1.0  0.32915  0.15127  0.02562  1.0000
  H   H60       1.0  0.26254  0.20301  0.50450  1.0000
  H   H61       1.0  0.31026  0.11116  0.02294  1.0000
  S   S13       1.0  0.32245  0.24482  0.73019  1.0000
  S   S14       1.0  0.23972  0.49225  0.95865  1.0000
  Fe  Fe7       1.0  0.27383  0.02956  0.92858  1.0000
  S   S15       1.0  0.27772  0.05919  0.85300  1.0000
  H   H62       1.0  0.24009  0.14535  0.95317  1.0000
  N   N4        1.0  0.28266  0.15323  0.99521  1.0000
  C   C49       1.0  0.29831  0.11575  0.80326  1.0000
  S   S16       1.0  0.32258  0.46908  0.90232  1.0000
  C   C50       1.0  0.31236  0.36103  0.84193  1.0000
  C   C51       1.0  0.24752  0.38455  0.76543  1.0000
  H   H63       1.0  0.29239  0.46143  0.71277  1.0000
  C   C52       1.0  0.31824  0.42738  0.87981  1.0000
  C   C53       1.0  0.29659  0.40570  0.90175  1.0000
  C   C54       1.0  0.29364  0.37267  0.88277  1.0000
  H   H64       1.0  0.29248  0.31463  0.65199  1.0000
  C   C55       1.0  0.30871  0.22044  0.89935  1.0000
  H   H65       1.0  0.28208  0.41442  0.93325  1.0000
  H   H66       1.0  0.27672  0.35610  0.89977  1.0000
  C   C56       1.0  0.26609  0.44149  0.77612  1.0000
  C   C57       1.0  0.26273  0.13266  0.96063  1.0000
  H   H67       1.0  0.21892  0.32963  0.71665  1.0000
  C   C58       1.0  0.30459  0.09163  0.84221  1.0000
  H   H68       1.0  0.27704  0.11438  0.78094  1.0000
  H   H69       1.0  0.32890  0.13116  0.55934  1.0000
  C   C59       1.0  0.24347  0.32290  0.70878  1.0000
  H   H70       1.0  0.30494  0.33591  0.71013  1.0000
  C   C60       1.0  0.24986  0.41398  0.79499  1.0000
  C   C61       1.0  0.29664  0.26497  0.54263  1.0000
  C   C62       1.0  0.26887  0.26598  0.57028  1.0000
  H   H71       1.0  0.26930  0.26356  0.61228  1.0000
  H   H72       1.0  0.21904  0.26933  0.56491  1.0000
  C   C63       1.0  0.24042  0.26901  0.54326  1.0000
  H   H73       1.0  0.30865  0.18946  0.55563  1.0000
  S   S17       1.0  0.22371  0.02839  0.94872  1.0000
  H   H74       1.0  0.30342  0.27414  0.90529  1.0000
  H   H75       1.0  0.32419  0.12979  0.96475  1.0000
  N   N5        1.0  0.26004  0.35106  0.68328  1.0000
  C   C64       1.0  0.24429  0.35820  0.63282  1.0000
  C   C65       1.0  0.29197  0.33920  0.67284  1.0000
  C   C66       1.0  0.26118  0.38208  0.71524  1.0000
  C   C67       1.0  0.27701  0.41090  0.69677  1.0000
  H   H76       1.0  0.17691  0.02010  0.78933  1.0000
  H   H77       1.0  0.24250  0.33513  0.60830  1.0000
  H   H78       1.0  0.23570  0.36382  0.78357  1.0000
  H   H79       1.0  0.30523  0.35699  0.64833  1.0000
  H   H80       1.0  0.28812  0.41088  0.65918  1.0000
  H   H81       1.0  0.20617  0.00758  0.70676  1.0000
  H   H82       1.0  0.25685  0.37700  0.60906  1.0000
  H   H83       1.0  0.31060  0.16708  0.90199  1.0000
  H   H84       1.0  0.21200  0.03234  0.82151  1.0000
  C   C68       1.0  0.31940  0.14168  0.79292  1.0000
  H   H85       1.0  0.25496  0.31535  0.74616  1.0000
  C   C69       1.0  0.27029  0.17715  0.50518  1.0000
  H   H86       1.0  0.22045  0.36811  0.63910  1.0000
  H   H87       1.0  0.31436  0.16016  0.76291  1.0000
  H   H88       1.0  0.14431  0.49879  0.94168  1.0000
  H   H89       1.0  0.25773  0.10759  0.97810  1.0000
  H   H90       1.0  0.23872  0.02447  0.74206  1.0000
  C   C70       1.0  0.31285  0.13568  0.00240  1.0000
  C   C71       1.0  0.30292  0.18926  0.92250  1.0000
  H   H91       1.0  0.27351  0.12763  0.92219  1.0000
  C   C72       1.0  0.33692  0.41575  0.83885  1.0000
  C   C73       1.0  0.27953  0.44002  0.72700  1.0000
  H   H92       1.0  0.24321  0.29994  0.68395  1.0000
  H   H93       1.0  0.26882  0.46374  0.80017  1.0000
  S   S18       1.0  0.30700  0.31975  0.81840  1.0000
  C   C74       1.0  0.28760  0.18668  0.97109  1.0000
  H   H94       1.0  0.30252  0.08599  0.51035  1.0000
  H   H95       1.0  0.33732  0.07489  0.90051  1.0000
  H   H96       1.0  0.24000  0.41507  0.83373  1.0000
  Fe  Fe8       1.0  0.29165  0.49074  0.96553  1.0000
  C   C75       1.0  0.33400  0.38268  0.81993  1.0000
  H   H97       1.0  0.32079  0.22160  0.86237  1.0000
  Fe  Fe9       1.0  0.34098  0.29226  0.76620  1.0000
  C   C76       1.0  0.27772  0.21734  0.99453  1.0000
  S   S19       1.0  0.33318  0.25967  0.57388  1.0000
  C   C77       1.0  0.30825  0.13681  0.53659  1.0000
  C   C78       1.0  0.28344  0.24846  0.97083  1.0000
  C   C79       1.0  0.29330  0.11144  0.50898  1.0000
  H   H98       1.0  0.33634  0.31945  0.98950  1.0000
  C   C80       1.0  0.29677  0.16961  0.53461  1.0000
  C   C81       1.0  0.29901  0.25000  0.92350  1.0000
  C   C82       1.0  0.33213  0.09353  0.87080  1.0000
  C   C83       1.0  0.19724  0.01031  0.81163  1.0000
  H   H99       1.0  0.16969  0.48543  0.99361  1.0000
  H   H100      1.0  0.19655  0.16087  0.51134  1.0000
  H   H101      1.0  0.27565  0.27156  0.98919  1.0000
  S   S20       1.0  0.31132  0.77137  0.29689  1.0000
  H   H102      1.0  0.31030  0.87574  0.01227  1.0000
  H   H103      1.0  0.29223  0.77737  0.18521  1.0000
  H   H104      1.0  0.17570  0.55308  0.04922  1.0000
  S   S21       1.0  0.23946  0.98142  0.04888  1.0000
  Fe  Fe10      1.0  0.29219  0.52818  0.06943  1.0000
  S   S22       1.0  0.24070  0.53163  0.07073  1.0000
  H   H105      1.0  0.29969  0.70464  0.36262  1.0000
  H   H106      1.0  0.32946  0.90266  0.48079  1.0000
  C   C84       1.0  0.31431  0.59167  0.15390  1.0000
  C   C85       1.0  0.29562  0.61270  0.12302  1.0000
  C   C86       1.0  0.29287  0.64711  0.13487  1.0000
  H   H107      1.0  0.28360  0.60254  0.08946  1.0000
  H   H108      1.0  0.27866  0.66322  0.11023  1.0000
  C   C87       1.0  0.26792  0.85233  0.48579  1.0000
  C   C88       1.0  0.30479  0.93084  0.14991  1.0000
  C   C89       1.0  0.30547  0.91170  0.19628  1.0000
  C   C90       1.0  0.19579  0.68071  0.44072  1.0000
  H   H109      1.0  0.31122  0.80983  0.40404  1.0000
  C   C91       1.0  0.30881  0.66088  0.17751  1.0000
  H   H110      1.0  0.28958  0.95250  0.14645  1.0000
  H   H111      1.0  0.29057  0.91871  0.22823  1.0000
  C   C92       1.0  0.32695  0.63975  0.20930  1.0000
  H   H112      1.0  0.22876  0.88662  0.05507  1.0000
  C   C93       1.0  0.29536  0.75007  0.46894  1.0000
  C   C94       1.0  0.26990  0.76100  0.43922  1.0000
  C   C95       1.0  0.24070  0.76486  0.46259  1.0000
  H   H113      1.0  0.27265  0.76657  0.39835  1.0000
  H   H114      1.0  0.22116  0.77337  0.43938  1.0000
  N   N6        1.0  0.26432  0.85613  0.01927  1.0000
  C   C96       1.0  0.32970  0.60524  0.19742  1.0000
  Fe  Fe11      1.0  0.28900  0.98348  0.02261  1.0000
  H   H115      1.0  0.30025  0.90043  0.43077  1.0000
  H   H116      1.0  0.19578  0.68280  0.35797  1.0000
  C   C97       1.0  0.24307  0.67879  0.38810  1.0000
  H   H117      1.0  0.14270  0.54695  0.09035  1.0000
  H   H118      1.0  0.26131  0.65006  0.26685  1.0000
  C   C98       1.0  0.26856  0.84674  0.11747  1.0000
  C   C99       1.0  0.24685  0.71050  0.30704  1.0000
  H   H119      1.0  0.30275  0.65936  0.35718  1.0000
  C   C100      1.0  0.21036  0.68074  0.39219  1.0000
  H   H120      1.0  0.30276  0.68490  0.30016  1.0000
  C   C101      1.0  0.32299  0.88998  0.44366  1.0000
  Fe  Fe12      1.0  0.33542  0.73488  0.24406  1.0000
  H   H121      1.0  0.25919  0.86395  0.45047  1.0000
  C   C102      1.0  0.25018  0.64988  0.30601  1.0000
  H   H122      1.0  0.26047  0.87182  0.12653  1.0000
  H   H123      1.0  0.28830  0.79188  0.02051  1.0000
  C   C103      1.0  0.15710  0.53504  0.05959  1.0000
  H   H124      1.0  0.25949  0.71390  0.26970  1.0000
  C   C104      1.0  0.21320  0.67781  0.48640  1.0000
  H   H125      1.0  0.22206  0.70894  0.29596  1.0000
  H   H126      1.0  0.16894  0.51275  0.07730  1.0000
  N   N7        1.0  0.13810  0.52602  0.01338  1.0000
  S   S23       1.0  0.30548  0.70460  0.18897  1.0000
  C   C105      1.0  0.26010  0.67504  0.43551  1.0000
  C   C106      1.0  0.31253  0.83760  0.40038  1.0000
  C   C107      1.0  0.25049  0.88937  0.03255  1.0000
  H   H127      1.0  0.11382  0.57369  0.01491  1.0000
  H   H128      1.0  0.34000  0.89742  0.41333  1.0000
  H   H129      1.0  0.30008  0.75613  0.09609  1.0000
  N   N8        1.0  0.32213  0.85294  0.45054  1.0000
  C   C108      1.0  0.29129  0.78153  0.10176  1.0000
  C   C109      1.0  0.29227  0.68241  0.33947  1.0000
  H   H130      1.0  0.28504  0.67355  0.43681  1.0000
  H   H131      1.0  0.28980  0.84699  0.38594  1.0000
  N   N9        1.0  0.25803  0.68038  0.33633  1.0000
  S   S24       1.0  0.31964  0.54879  0.13795  1.0000
  C   C110      1.0  0.32549  0.88381  0.20174  1.0000
  H   H132      1.0  0.24993  0.73376  0.33047  1.0000
  H   H133      1.0  0.17088  0.68355  0.44319  1.0000
  H   H134      1.0  0.25807  0.62665  0.32674  1.0000
  C   C111      1.0  0.28439  0.80216  0.05889  1.0000
  H   H135      1.0  0.22487  0.64766  0.29925  1.0000
  C   C112      1.0  0.32470  0.92268  0.10905  1.0000
  C   C113      1.0  0.27553  0.82586  0.16001  1.0000
  S   S25       1.0  0.33270  0.74484  0.44144  1.0000
  C   C114      1.0  0.27249  0.83532  0.06542  1.0000
  C   C115      1.0  0.28680  0.79337  0.15216  1.0000
  H   H136      1.0  0.33923  0.64998  0.24246  1.0000
  S   S26       1.0  0.32651  0.94746  0.05159  1.0000
  H   H137      1.0  0.27269  0.83516  0.19944  1.0000
  C   C116      1.0  0.24520  0.67446  0.48373  1.0000
  C   C117      1.0  0.08062  0.51316  0.02214  1.0000
  H   H138      1.0  0.26697  0.90520  0.05505  1.0000
  H   H139      1.0  0.22119  0.83011  0.00983  1.0000
  S   S27       1.0  0.32627  0.86127  0.26152  1.0000
  H   H140      1.0  0.32924  0.84314  0.36878  1.0000
  C   C118      1.0  0.29983  0.84443  0.49211  1.0000
  Fe  Fe13      1.0  0.20355  0.78314  0.73963  1.0000
  S   S28       1.0  0.17010  0.80059  0.67785  1.0000
  S   S29       1.0  0.23701  0.81864  0.77921  1.0000
  Fe  Fe14      1.0  0.18754  0.70926  0.72346  1.0000
  S   S30       1.0  0.15283  0.72136  0.65994  1.0000
  S   S31       1.0  0.19672  0.65399  0.74076  1.0000
  Fe  Fe15      1.0  0.18884  0.75736  0.63034  1.0000
  S   S32       1.0  0.19939  0.76373  0.54366  1.0000
  Fe  Fe16      1.0  0.13717  0.76307  0.71296  1.0000
  S   S33       1.0  0.08854  0.77911  0.73805  1.0000
  S   S34       1.0  0.22440  0.74228  0.68995  1.0000
  S   S35       1.0  0.16986  0.74869  0.77854  1.0000
  Fe  Fe17      1.0  0.22963  0.97339  0.96356  1.0000
  S   S36       1.0  0.27874  0.97357  0.93787  1.0000
  S   S37       1.0  0.19504  0.93570  0.93237  1.0000
  S   S38       1.0  0.29561  0.54587  0.98646  1.0000
  S   S39       1.0  0.21205  0.59000  0.96673  1.0000
  C   C119      1.0  0.19243  0.89938  0.72502  1.0000
  C   C120      1.0  0.05121  0.76220  0.72529  1.0000
  C   C121      1.0  0.22582  0.00092  0.73320  1.0000
  C   C122      1.0  0.04676  0.73341  0.69486  1.0000
  H   H141      1.0  0.25610  0.95449  0.79505  1.0000
  H   H142      1.0  0.06626  0.72138  0.67630  1.0000
  H   H143      1.0  0.10268  0.73006  0.82755  1.0000
  C   C123      1.0  0.26197  0.74679  0.54553  1.0000
  H   H144      1.0  0.17667  0.83640  0.82281  1.0000
  H   H145      1.0  0.25916  0.74126  0.58651  1.0000
  H   H146      1.0  0.15303  0.96861  0.80784  1.0000
  C   C124      1.0  0.20352  0.63774  0.80407  1.0000
  C   C125      1.0  0.19736  0.65673  0.84869  1.0000
  C   C126      1.0  0.20042  0.64190  0.89842  1.0000
  C   C127      1.0  0.21072  0.60842  0.90395  1.0000
  C   C128      1.0  0.21778  0.58977  0.85941  1.0000
  C   C129      1.0  0.21380  0.60428  0.80965  1.0000
  H   H147      1.0  0.18976  0.68261  0.84483  1.0000
  H   H148      1.0  0.19502  0.65650  0.93277  1.0000
  H   H149      1.0  0.22562  0.56394  0.86321  1.0000
  H   H150      1.0  0.21865  0.58948  0.77526  1.0000
  C   C130      1.0  0.22467  0.85021  0.82273  1.0000
  C   C131      1.0  0.24667  0.87261  0.84254  1.0000
  C   C132      1.0  0.23787  0.89862  0.87636  1.0000
  C   C133      1.0  0.20688  0.90278  0.89041  1.0000
  C   C134      1.0  0.18493  0.87997  0.87138  1.0000
  C   C135      1.0  0.19378  0.85367  0.83773  1.0000
  H   H151      1.0  0.27065  0.86983  0.83147  1.0000
  H   H152      1.0  0.25522  0.91522  0.89167  1.0000
  H   H153      1.0  0.16093  0.88278  0.88230  1.0000
  C   C136      1.0  0.04326  0.70147  0.82920  1.0000
  H   H154      1.0  0.22203  0.84978  0.51828  1.0000
  H   H155      1.0  0.23320  0.92869  0.72612  1.0000
  C   C137      1.0  0.16179  0.89642  0.74049  1.0000
  H   H156      1.0  0.09793  0.63992  0.87307  1.0000
  H   H157      1.0  0.23259  0.85365  0.95392  1.0000
  H   H158      1.0  0.12450  0.91890  0.78309  1.0000
  C   C138      1.0  0.12779  0.55791  0.98796  1.0000
  H   H159      1.0  0.01373  0.69746  0.66561  1.0000
  H   H160      1.0  0.31066  0.73437  0.54550  1.0000
  H   H161      1.0  0.24206  0.98451  0.71129  1.0000
  C   C139      1.0  0.10851  0.70498  0.84494  1.0000
  N   N10       1.0  0.21463  0.98454  0.78150  1.0000
  C   C140      1.0  0.24648  0.84489  0.52466  1.0000
  H   H162      1.0  0.10472  0.62313  0.80892  1.0000
  H   H163      1.0  0.25729  0.99588  0.82161  1.0000
  H   H164      1.0  0.10359  0.66087  0.73205  1.0000
  H   H165      1.0  0.13434  0.64566  0.84085  1.0000
  H   H166      1.0  0.17676  0.52412  0.96068  1.0000
  H   H167      1.0  0.20194  0.67890  0.52407  1.0000
  C   C141      1.0  0.24174  0.97434  0.81359  1.0000
  H   H168      1.0  0.13605  0.68121  0.76078  1.0000
  C   C142      1.0  0.23656  0.75793  0.51591  1.0000
  H   H169      1.0  0.10275  0.70553  0.74148  1.0000
  C   C143      1.0  0.04804  0.64950  0.78060  1.0000
  H   H170      1.0  0.30320  0.83904  0.97329  1.0000
  C   C144      1.0  0.10883  0.64505  0.83475  1.0000
  H   H171      1.0  0.18921  0.99999  0.84966  1.0000
  Fe  Fe18      1.0  0.24365  0.54575  0.98612  1.0000
  C   C145      1.0  0.14809  0.92183  0.76990  1.0000
  C   C146      1.0  0.20938  0.92795  0.73837  1.0000
  C   C147      1.0  0.28732  0.82229  0.57907  1.0000
  C   C148      1.0  0.15798  0.50776  0.97575  1.0000
  H   H172      1.0  0.13416  0.70423  0.84892  1.0000
  C   C149      1.0  0.25618  0.83001  0.57125  1.0000
  H   H173      1.0  0.29452  0.80984  0.61492  1.0000
  C   C150      1.0  0.06278  0.67615  0.80766  1.0000
  H   H174      1.0  0.09894  0.70372  0.88503  1.0000
  N   N11       1.0  0.09694  0.67706  0.81188  1.0000
  C   C151      1.0  0.16490  0.95043  0.78384  1.0000
  C   C152      1.0  0.11033  0.68125  0.75930  1.0000
  C   C153      1.0  0.29118  0.74290  0.52212  1.0000
  H   H175      1.0  0.14893  0.87388  0.73101  1.0000
  H   H176      1.0  0.23935  0.82333  0.60065  1.0000
  H   H177      1.0  0.20335  0.87885  0.70398  1.0000
  H   H178      1.0  0.05220  0.72369  0.84795  1.0000
  C   C154      1.0  0.01583  0.64783  0.77661  1.0000
  C   C155      1.0  0.19613  0.95448  0.76808  1.0000
  C   C156      1.0  0.02524  0.77793  0.74769  1.0000
  H   H179      1.0  0.06133  0.63011  0.76136  1.0000
  H   H180      1.0  0.25152  0.81504  0.96796  1.0000
  H   H181      1.0  0.02833  0.80027  0.77110  1.0000
  C   C157      1.0  0.01684  0.72008  0.68836  1.0000
  H   H182      1.0  0.11428  0.55300  0.95173  1.0000
  C   C158      1.0  0.01107  0.69937  0.82529  1.0000
  H   H183      1.0  0.23412  0.96461  0.85190  1.0000
  H   H184      1.0  0.25865  0.67273  0.51954  1.0000
  C   C159      1.0  0.30893  0.82911  0.54016  1.0000
  H   H185      1.0  0.33246  0.82146  0.54839  1.0000
  H   H186      1.0  0.14783  0.57361  0.97610  1.0000
  H   H187      1.0  0.28741  0.87881  0.95380  1.0000
  C   C160      1.0  0.29251  0.86256  0.98831  1.0000
  H   H188      1.0  0.24434  0.90418  0.99696  1.0000
  C   C161      1.0  0.24155  0.83788  0.98649  1.0000
  H   H189      1.0  0.07349  0.53648  0.00383  1.0000
  H   H190      1.0  0.47243  0.38158  0.86345  1.0000
  Fe  Fe19      1.0  0.40672  0.28049  0.72318  1.0000
  S   S40       1.0  0.38357  0.26753  0.79871  1.0000
  S   S41       1.0  0.45333  0.30733  0.72101  1.0000
  H   H191      1.0  0.64934  0.49788  0.76784  1.0000
  C   C162      1.0  0.41969  0.36085  0.81448  1.0000
  H   H192      1.0  0.44194  0.29963  0.83270  1.0000
  H   H193      1.0  0.43896  0.40041  0.89082  1.0000
  S   S42       1.0  0.39279  0.23248  0.68382  1.0000
  S   S43       1.0  0.36504  0.30952  0.69363  1.0000
  Fe  Fe20      1.0  0.63851  0.25800  0.70443  1.0000
  H   H194      1.0  0.56532  0.14064  0.79524  1.0000
  S   S44       1.0  0.58866  0.24049  0.71784  1.0000
  N   N12       1.0  0.43276  0.34894  0.86494  1.0000
  H   H195      1.0  0.47334  0.32751  0.82821  1.0000
  C   C163      1.0  0.34722  0.14321  0.82084  1.0000
  H   H196      1.0  0.65182  0.03748  0.88952  1.0000
  C   C164      1.0  0.60782  0.10575  0.85626  1.0000
  H   H197      1.0  0.59611  0.17446  0.85460  1.0000
  C   C165      1.0  0.40708  0.34036  0.90040  1.0000
  H   H198      1.0  0.67176  0.34918  0.83085  1.0000
  C   C166      1.0  0.49076  0.28827  0.71917  1.0000
  C   C167      1.0  0.49509  0.25349  0.72429  1.0000
  C   C168      1.0  0.52519  0.23949  0.72368  1.0000
  C   C169      1.0  0.55137  0.25995  0.71764  1.0000
  C   C170      1.0  0.54706  0.29476  0.71259  1.0000
  C   C171      1.0  0.51693  0.30880  0.71356  1.0000
  H   H199      1.0  0.47525  0.23735  0.72868  1.0000
  H   H200      1.0  0.52814  0.21256  0.72759  1.0000
  H   H201      1.0  0.56690  0.31085  0.70796  1.0000
  H   H202      1.0  0.51389  0.33573  0.70951  1.0000
  H   H203      1.0  0.40490  0.34123  0.79630  1.0000
  C   C172      1.0  0.37544  0.29946  0.94793  1.0000
  H   H204      1.0  0.46427  0.30963  0.89055  1.0000
  H   H205      1.0  0.57476  0.16832  0.74306  1.0000
  S   S45       1.0  0.67254  0.25770  0.77212  1.0000
  H   H206      1.0  0.43818  0.36675  0.78587  1.0000
  C   C173      1.0  0.38672  0.36589  0.91867  1.0000
  C   C174      1.0  0.40072  0.30677  0.91620  1.0000
  C   C175      1.0  0.61390  0.17767  0.82405  1.0000
  Fe  Fe21      1.0  0.36700  0.22103  0.75796  1.0000
  H   H207      1.0  0.63664  0.18012  0.84403  1.0000
  H   H208      1.0  0.63560  0.13973  0.71161  1.0000
  C   C176      1.0  0.45391  0.32013  0.85410  1.0000
  C   C177      1.0  0.63468  0.15937  0.74240  1.0000
  C   C178      1.0  0.61749  0.07685  0.88326  1.0000
  H   H209      1.0  0.46015  0.36913  0.92759  1.0000
  H   H210      1.0  0.60867  0.20222  0.80471  1.0000
  C   C179      1.0  0.58272  0.14528  0.76448  1.0000
  H   H211      1.0  0.40520  0.38389  0.81886  1.0000
  H   H212      1.0  0.66580  0.10710  0.76587  1.0000
  H   H213      1.0  0.34655  0.37836  0.96413  1.0000
  N   N13       1.0  0.61435  0.14948  0.78617  1.0000
  C   C180      1.0  0.64374  0.05922  0.86749  1.0000
  H   H214      1.0  0.58190  0.12384  0.73667  1.0000
  C   C181      1.0  0.62450  0.11812  0.81283  1.0000
  H   H215      1.0  0.38927  0.39188  0.90702  1.0000
  H   H216      1.0  0.62614  0.18268  0.72286  1.0000
  C   C182      1.0  0.45182  0.37618  0.88781  1.0000
  H   H217      1.0  0.35351  0.43254  0.82145  1.0000
  C   C183      1.0  0.65110  0.09936  0.79752  1.0000
  S   S46       1.0  0.37464  0.17495  0.80914  1.0000
  H   H218      1.0  0.37502  0.12010  0.88141  1.0000
  C   C184      1.0  0.66030  0.07026  0.82445  1.0000
  H   H219      1.0  0.66216  0.38811  0.90498  1.0000
  H   H220      1.0  0.60500  0.06841  0.91731  1.0000
  H   H221      1.0  0.58748  0.11873  0.87026  1.0000
  S   S47       1.0  0.66006  0.30272  0.66424  1.0000
  C   C185      1.0  0.65831  0.49735  0.85034  1.0000
  C   C186      1.0  0.35348  0.11907  0.85978  1.0000
  S   S48       1.0  0.66649  0.22094  0.65719  1.0000
  H   H222      1.0  0.41452  0.28554  0.90374  1.0000
  C   C187      1.0  0.36189  0.35836  0.95113  1.0000
  H   H223      1.0  0.65861  0.16472  0.75606  1.0000
  H   H224      1.0  0.37062  0.27358  0.95846  1.0000
  H   H225      1.0  0.34813  0.37410  0.78792  1.0000
  C   C188      1.0  0.35609  0.32520  0.96539  1.0000
  H   H226      1.0  0.66900  0.47251  0.84986  1.0000
  Fe  Fe22      1.0  0.34915  0.26048  0.65920  1.0000
  H   H227      1.0  0.66512  0.50234  0.93147  1.0000
  H   H228      1.0  0.40646  0.69357  0.21323  1.0000
  Fe  Fe23      1.0  0.39987  0.75709  0.27892  1.0000
  S   S49       1.0  0.36819  0.77348  0.21280  1.0000
  S   S50       1.0  0.44890  0.73833  0.26057  1.0000
  H   H229      1.0  0.36000  0.88813  0.08291  1.0000
  H   H230      1.0  0.66098  0.90022  0.13756  1.0000
  C   C189      1.0  0.63974  0.94453  0.23040  1.0000
  S   S51       1.0  0.65006  0.72973  0.35237  1.0000
  S   S52       1.0  0.38068  0.79528  0.33548  1.0000
  S   S53       1.0  0.36775  0.71613  0.30631  1.0000
  Fe  Fe24      1.0  0.63295  0.77143  0.29979  1.0000
  C   C190      1.0  0.36855  0.62579  0.04440  1.0000
  S   S54       1.0  0.58484  0.79637  0.30102  1.0000
  H   H231      1.0  0.58129  0.87002  0.32052  1.0000
  N   N14       1.0  0.60915  0.89366  0.26116  1.0000
  C   C191      1.0  0.40391  0.66611  0.08566  1.0000
  Fe  Fe25      1.0  0.34596  0.75571  0.35728  1.0000
  H   H232      1.0  0.46378  0.68131  0.11067  1.0000
  C   C192      1.0  0.66788  0.96120  0.22465  1.0000
  Fe  Fe26      1.0  0.34678  0.80872  0.27102  1.0000
  C   C193      1.0  0.60393  0.88288  0.31594  1.0000
  C   C194      1.0  0.48638  0.75472  0.27416  1.0000
  C   C195      1.0  0.49087  0.78744  0.29263  1.0000
  C   C196      1.0  0.52112  0.79959  0.30087  1.0000
  C   C197      1.0  0.54727  0.77916  0.29138  1.0000
  C   C198      1.0  0.54276  0.74636  0.27331  1.0000
  C   C199      1.0  0.51253  0.73434  0.26449  1.0000
  H   H233      1.0  0.47109  0.80348  0.30010  1.0000
  H   H234      1.0  0.52427  0.82499  0.31486  1.0000
  H   H235      1.0  0.56256  0.73033  0.26581  1.0000
  H   H236      1.0  0.50943  0.70899  0.25029  1.0000
  H   H237      1.0  0.39038  0.73005  0.11035  1.0000
  H   H238      1.0  0.57852  0.93656  0.26632  1.0000
  C   C200      1.0  0.37876  0.64335  0.08834  1.0000
  H   H239      1.0  0.58195  0.91878  0.20145  1.0000
  C   C201      1.0  0.34461  0.87495  0.16016  1.0000
  H   H240      1.0  0.42198  0.73661  0.15509  1.0000
  H   H241      1.0  0.34933  0.60847  0.04763  1.0000
  H   H242      1.0  0.36393  0.85309  0.49731  1.0000
  C   C202      1.0  0.58122  0.91279  0.24386  1.0000
  H   H243      1.0  0.64912  0.56366  0.03154  1.0000
  H   H244      1.0  0.60450  0.90468  0.34303  1.0000
  N   N15       1.0  0.41544  0.68499  0.13154  1.0000
  C   C203      1.0  0.61179  0.86332  0.22795  1.0000
  H   H245      1.0  0.36651  0.63854  0.12390  1.0000
  C   C204      1.0  0.34445  0.89456  0.11428  1.0000
  H   H246      1.0  0.43761  0.68650  0.03131  1.0000
  H   H247      1.0  0.61987  0.95634  0.21219  1.0000
  H   H248      1.0  0.55972  0.89797  0.24960  1.0000
  C   C205      1.0  0.41819  0.66991  0.03630  1.0000
  H   H249      1.0  0.66712  0.87570  0.29669  1.0000
  H   H250      1.0  0.61757  0.87010  0.18705  1.0000
  H   H251      1.0  0.62999  0.84561  0.24250  1.0000
  C   C206      1.0  0.41432  0.72169  0.12060  1.0000
  C   C207      1.0  0.39722  0.67910  0.17954  1.0000
  C   C208      1.0  0.63809  0.91318  0.25723  1.0000
  H   H252      1.0  0.58988  0.84879  0.22704  1.0000
  H   H253      1.0  0.37273  0.68728  0.17416  1.0000
  H   H254      1.0  0.45705  0.68799  0.17834  1.0000
  H   H255      1.0  0.39792  0.65218  0.19167  1.0000
  H   H256      1.0  0.42975  0.72912  0.08824  1.0000
  H   H257      1.0  0.37020  0.84698  0.42927  1.0000
  C   C209      1.0  0.44790  0.67494  0.14301  1.0000
  H   H258      1.0  0.44982  0.64736  0.15032  1.0000
  H   H259      1.0  0.62127  0.86402  0.32982  1.0000
  H   H260      1.0  0.67300  0.84517  0.18009  1.0000
  H   H261      1.0  0.36012  0.85357  0.16385  1.0000
  S   S55       1.0  0.65897  0.75276  0.22910  1.0000
  C   C210      1.0  0.35418  0.84103  0.46180  1.0000
  C   C211      1.0  0.66626  0.89988  0.27761  1.0000
  H   H262      1.0  0.66894  0.98435  0.20217  1.0000
  H   H263      1.0  0.35506  0.81313  0.46691  1.0000
  S   S56       1.0  0.67120  0.80646  0.32498  1.0000
  H   H264      1.0  0.66973  0.68106  0.16588  1.0000
  H   H265      1.0  0.34415  0.58905  0.22151  1.0000
  N   N16       1.0  0.63980  0.56698  0.94848  1.0000
  H   H266      1.0  0.64984  0.61489  0.91182  1.0000
  C   C212      1.0  0.63147  0.56144  0.85154  1.0000
  C   C213      1.0  0.64236  0.54753  0.89945  1.0000
  H   H267      1.0  0.59740  0.59333  0.92762  1.0000
  C   C214      1.0  0.60699  0.57612  0.95798  1.0000
  C   C215      1.0  0.40768  0.65235  0.99244  1.0000
  C   C216      1.0  0.65122  0.54836  0.99531  1.0000
  C   C217      1.0  0.63388  0.54364  0.80469  1.0000
  H   H268      1.0  0.62121  0.58630  0.84990  1.0000
  H   H269      1.0  0.59231  0.55323  0.95889  1.0000
  H   H270      1.0  0.37473  0.61670  0.96257  1.0000
  C   C218      1.0  0.65808  0.59824  0.94394  1.0000
  H   H271      1.0  0.62547  0.55475  0.76856  1.0000
  H   H272      1.0  0.65720  0.61339  0.98042  1.0000
  H   H273      1.0  0.41879  0.65577  0.95506  1.0000
  C   C219      1.0  0.65591  0.51488  0.89736  1.0000
  C   C220      1.0  0.64730  0.51164  0.80413  1.0000
  C   C221      1.0  0.38289  0.63034  0.99651  1.0000
  H   H274      1.0  0.67625  0.54207  0.99227  1.0000
  H   H275      1.0  0.63823  0.52467  0.00174  1.0000
  H   H276      1.0  0.60416  0.58935  0.99596  1.0000
  Fe  Fe27      1.0  0.90671  0.24232  0.28524  1.0000
  S   S57       1.0  0.88142  0.23310  0.20931  1.0000
  S   S58       1.0  0.95596  0.22445  0.30644  1.0000
  Fe  Fe28      1.0  0.84668  0.26578  0.34041  1.0000
  S   S59       1.0  0.81755  0.25915  0.26820  1.0000
  S   S60       1.0  0.83143  0.27867  0.42360  1.0000
  Fe  Fe29      1.0  0.84358  0.21041  0.25689  1.0000
  S   S61       1.0  0.81388  0.16414  0.24299  1.0000
  Fe  Fe30      1.0  0.85717  0.28272  0.22524  1.0000
  S   S62       1.0  0.84881  0.31454  0.15204  1.0000
  S   S63       1.0  0.87019  0.21561  0.33173  1.0000
  S   S64       1.0  0.88489  0.29338  0.29846  1.0000
  H   H277      1.0  0.72892  0.41829  0.03612  1.0000
  S   S65       1.0  0.74016  0.03950  0.05881  1.0000
  S   S66       1.0  0.82940  0.05598  0.06171  1.0000
  Fe  Fe31      1.0  0.78023  0.49062  0.06134  1.0000
  H   H278      1.0  0.78421  0.32483  0.09232  1.0000
  S   S67       1.0  0.79842  0.46543  0.13569  1.0000
  C   C222      1.0  0.79467  0.27389  0.45334  1.0000
  C   C223      1.0  0.73836  0.27327  0.44997  1.0000
  C   C224      1.0  0.76709  0.27519  0.42446  1.0000
  H   H279      1.0  0.71718  0.27488  0.42737  1.0000
  H   H280      1.0  0.76790  0.27858  0.38262  1.0000
  C   C225      1.0  0.81524  0.42459  0.14009  1.0000
  C   C226      1.0  0.81815  0.40899  0.18925  1.0000
  C   C227      1.0  0.82923  0.37559  0.19394  1.0000
  C   C228      1.0  0.83774  0.35760  0.14940  1.0000
  C   C229      1.0  0.83578  0.37360  0.10048  1.0000
  C   C230      1.0  0.82459  0.40686  0.09577  1.0000
  H   H281      1.0  0.81124  0.42260  0.22381  1.0000
  H   H282      1.0  0.83077  0.36366  0.23186  1.0000
  H   H283      1.0  0.84259  0.36002  0.06585  1.0000
  H   H284      1.0  0.82296  0.41868  0.05778  1.0000
  C   C231      1.0  0.81887  0.13473  0.19193  1.0000
  C   C232      1.0  0.79599  0.11037  0.18393  1.0000
  C   C233      1.0  0.79897  0.08624  0.14422  1.0000
  C   C234      1.0  0.82504  0.08599  0.11230  1.0000
  C   C235      1.0  0.84800  0.11032  0.12033  1.0000
  C   C236      1.0  0.84483  0.13481  0.15971  1.0000
  H   H285      1.0  0.77588  0.11007  0.20873  1.0000
  H   H286      1.0  0.78134  0.06743  0.13904  1.0000
  H   H287      1.0  0.86832  0.11028  0.09600  1.0000
  H   H288      1.0  0.86261  0.15344  0.16551  1.0000
  C   C237      1.0  0.74611  0.18134  0.46382  1.0000
  C   C238      1.0  0.99318  0.24163  0.29438  1.0000
  H   H289      1.0  0.73000  0.18518  0.43193  1.0000
  H   H290      1.0  0.97818  0.27874  0.23827  1.0000
  H   H291      1.0  0.83758  0.17496  0.41436  1.0000
  C   C239      1.0  0.82140  0.15598  0.39798  1.0000
  N   N17       1.0  0.73552  0.37254  0.08101  1.0000
  H   H292      1.0  0.76793  0.35015  0.42912  1.0000
  H   H293      1.0  0.76963  0.15933  0.09560  1.0000
  H   H294      1.0  0.82885  0.15198  0.35683  1.0000
  H   H295      1.0  0.83145  0.12132  0.01091  1.0000
  H   H296      1.0  0.77769  0.11132  0.04616  1.0000
  H   H297      1.0  0.79344  0.19720  0.33053  1.0000
  H   H298      1.0  0.80196  0.21903  0.38937  1.0000
  C   C240      1.0  0.74566  0.36447  0.13514  1.0000
  C   C241      1.0  0.77677  0.33015  0.05279  1.0000
  H   H299      1.0  0.74233  0.33741  0.14464  1.0000
  H   H300      1.0  0.78499  0.20248  0.15668  1.0000
  N   N18       1.0  0.78873  0.16773  0.40069  1.0000
  H   H301      1.0  0.76473  0.41546  0.07026  1.0000
  C   C242      1.0  0.77755  0.17274  0.45466  1.0000
  C   C243      1.0  0.75268  0.35356  0.04067  1.0000
  C   C244      1.0  0.78604  0.17764  0.08200  1.0000
  H   H302      1.0  0.76888  0.11838  0.39571  1.0000
  C   C245      1.0  0.78643  0.19999  0.37185  1.0000
  H   H303      1.0  0.82486  0.13165  0.41887  1.0000
  C   C246      1.0  0.99781  0.26782  0.25877  1.0000
  H   H304      1.0  0.77865  0.13667  0.33372  1.0000
  C   C247      1.0  0.79725  0.17022  0.49923  1.0000
  H   H305      1.0  0.82365  0.24512  0.13288  1.0000
  H   H306      1.0  0.73267  0.37938  0.16458  1.0000
  H   H307      1.0  0.82166  0.16478  0.49627  1.0000
  C   C248      1.0  0.73682  0.26980  0.50450  1.0000
  C   C249      1.0  0.73985  0.40916  0.07279  1.0000
  C   C250      1.0  0.77997  0.35589  0.46520  1.0000
  C   C251      1.0  0.81661  0.22638  0.10458  1.0000
  H   H308      1.0  0.74534  0.15123  0.36701  1.0000
  H   H309      1.0  0.77042  0.37069  0.14125  1.0000
  C   C252      1.0  0.79907  0.17641  0.03124  1.0000
  C   C253      1.0  0.76950  0.14240  0.37336  1.0000
  H   H310      1.0  0.76262  0.21064  0.37148  1.0000
  C   C254      1.0  0.81139  0.36308  0.46405  1.0000
  C   C255      1.0  0.79469  0.20242  0.11779  1.0000
  Fe  Fe32      1.0  0.78785  0.02762  0.03045  1.0000
  H   H311      1.0  0.82363  0.36277  0.42726  1.0000
  H   H312      1.0  0.68861  0.37803  0.10789  1.0000
  H   H313      1.0  0.72996  0.42449  0.10499  1.0000
  H   H314      1.0  0.69793  0.33753  0.08023  1.0000
  C   C256      1.0  0.82986  0.22587  0.05529  1.0000
  C   C257      1.0  0.70205  0.36507  0.07687  1.0000
  S   S68       1.0  0.72851  0.49748  0.05733  1.0000
  H   H315      1.0  0.81178  0.29648  0.02378  1.0000
  H   H316      1.0  0.84729  0.24433  0.04572  1.0000
  C   C258      1.0  0.82114  0.20146  0.01892  1.0000
  H   H317      1.0  0.69190  0.37372  0.03907  1.0000
  H   H318      1.0  0.74581  0.13727  0.02252  1.0000
  C   C259      1.0  0.79292  0.31341  0.01342  1.0000
  C   C260      1.0  0.76831  0.12540  0.01194  1.0000
  H   H319      1.0  0.69091  0.19110  0.83820  1.0000
  S   S69       1.0  0.72745  0.26491  0.68422  1.0000
  S   S70       1.0  0.70002  0.26873  0.53498  1.0000
  S   S71       1.0  0.72320  0.34499  0.75728  1.0000
  S   S72       1.0  0.72699  0.17536  0.74568  1.0000
  Fe  Fe33      1.0  0.72868  0.04566  0.97379  1.0000
  S   S73       1.0  0.70019  0.09188  0.95186  1.0000
  S   S74       1.0  0.77670  0.03594  0.94526  1.0000
  Fe  Fe34      1.0  0.73320  0.48051  0.97419  1.0000
  S   S75       1.0  0.69721  0.44249  0.94838  1.0000
  H   H320      1.0  0.68117  0.05691  0.81320  1.0000
  C   C261      1.0  0.71526  0.37149  0.81082  1.0000
  C   C262      1.0  0.68302  0.39052  0.88231  1.0000
  C   C263      1.0  0.70450  0.41560  0.89503  1.0000
  C   C264      1.0  0.73140  0.41850  0.86566  1.0000
  C   C265      1.0  0.73667  0.39661  0.82360  1.0000
  H   H321      1.0  0.74816  0.43763  0.87524  1.0000
  H   H322      1.0  0.75755  0.39910  0.80097  1.0000
  C   C266      1.0  0.72087  0.15364  0.80489  1.0000
  C   C267      1.0  0.73528  0.12221  0.81282  1.0000
  C   C268      1.0  0.72971  0.10338  0.85829  1.0000
  C   C269      1.0  0.70940  0.11575  0.89598  1.0000
  C   C270      1.0  0.76434  0.35430  0.51269  1.0000
  C   C271      1.0  0.70147  0.16656  0.84346  1.0000
  H   H323      1.0  0.75044  0.11212  0.78322  1.0000
  H   H324      1.0  0.74045  0.07891  0.86345  1.0000
  H   H325      1.0  0.83213  0.20205  0.98124  1.0000
  Fe  Fe35      1.0  0.70120  0.22321  0.72244  1.0000
  C   C272      1.0  0.76438  0.26772  0.53322  1.0000
  H   H326      1.0  0.85175  0.37500  0.50910  1.0000
  C   C273      1.0  0.76478  0.39106  0.63819  1.0000
  H   H327      1.0  0.76353  0.26411  0.57493  1.0000
  H   H328      1.0  0.67998  0.15732  0.91787  1.0000
  C   C274      1.0  0.78538  0.31902  0.96116  1.0000
  Fe  Fe36      1.0  0.69593  0.29982  0.72865  1.0000
  H   H329      1.0  0.76924  0.32886  0.68324  1.0000
  H   H330      1.0  0.79811  0.30620  0.93075  1.0000
  S   S76       1.0  0.78441  0.47113  0.97942  1.0000
  Fe  Fe37      1.0  0.69074  0.26532  0.62257  1.0000
  H   H331      1.0  0.72090  0.34500  0.64733  1.0000
  C   C275      1.0  0.78132  0.33310  0.64563  1.0000
  H   H332      1.0  0.75588  0.34605  0.90730  1.0000
  H   H333      1.0  0.78347  0.30833  0.62588  1.0000
  H   H334      1.0  0.81332  0.10996  0.95061  1.0000
  C   C276      1.0  0.81892  0.13169  0.97627  1.0000
  C   C277      1.0  0.74562  0.35858  0.98707  1.0000
  H   H335      1.0  0.72779  0.37615  0.97497  1.0000
  H   H336      1.0  0.75281  0.39010  0.67660  1.0000
  H   H337      1.0  0.76282  0.10616  0.98194  1.0000
  H   H338      1.0  0.80128  0.17372  0.58302  1.0000
  H   H339      1.0  0.80497  0.34142  0.65617  1.0000
  H   H340      1.0  0.77001  0.14792  0.91561  1.0000
  C   C278      1.0  0.69553  0.14752  0.88864  1.0000
  H   H341      1.0  0.81427  0.26908  0.53052  1.0000
  H   H342      1.0  0.74610  0.18779  0.59612  1.0000
  C   C279      1.0  0.78585  0.17536  0.54958  1.0000
  N   N19       1.0  0.79073  0.15046  0.99230  1.0000
  C   C280      1.0  0.73183  0.34687  0.60832  1.0000
  C   C281      1.0  0.77665  0.16679  0.94565  1.0000
  H   H343      1.0  0.71736  0.36491  0.58537  1.0000
  H   H344      1.0  0.82508  0.37385  0.59279  1.0000
  C   C282      1.0  0.81176  0.36866  0.55799  1.0000
  H   H345      1.0  0.75286  0.41048  0.61377  1.0000
  N   N20       1.0  0.76453  0.35781  0.61206  1.0000
  H   H346      1.0  0.83538  0.14760  0.95446  1.0000
  H   H347      1.0  0.79259  0.18459  0.92633  1.0000
  H   H348      1.0  0.73002  0.32151  0.59041  1.0000
  H   H349      1.0  0.75529  0.18103  0.95608  1.0000
  C   C283      1.0  0.76168  0.34148  0.94801  1.0000
  C   C284      1.0  0.77994  0.36030  0.56079  1.0000
  H   H350      1.0  0.78861  0.39998  0.64620  1.0000
  C   C285      1.0  0.68841  0.36842  0.84042  1.0000
  C   C286      1.0  0.75476  0.18325  0.55711  1.0000
  C   C287      1.0  0.82722  0.36969  0.51030  1.0000
  H   H351      1.0  0.74030  0.34727  0.51057  1.0000
  H   H352      1.0  0.71102  0.19363  0.52023  1.0000
  C   C288      1.0  0.73496  0.18626  0.51430  1.0000
  C   C289      1.0  0.79310  0.27014  0.50784  1.0000
  S   S77       1.0  0.68981  0.65860  0.26892  1.0000
  S   S78       1.0  0.71983  0.74432  0.30826  1.0000
  S   S79       1.0  0.70184  0.76846  0.46010  1.0000
  C   C290      1.0  0.69146  0.86110  0.16681  1.0000
  S   S80       1.0  0.73134  0.81172  0.20384  1.0000
  Fe  Fe38      1.0  0.73118  0.98413  0.04832  1.0000
  S   S81       1.0  0.69886  0.95270  0.09779  1.0000
  S   S82       1.0  0.78013  0.97128  0.02677  1.0000
  C   C291      1.0  0.81013  0.72672  0.02324  1.0000
  H   H353      1.0  0.75320  0.90204  0.01970  1.0000
  S   S83       1.0  0.78916  0.54481  0.03903  1.0000
  C   C292      1.0  0.68257  0.65775  0.16177  1.0000
  H   H354      1.0  0.79049  0.67252  0.18184  1.0000
  C   C293      1.0  0.68743  0.64382  0.11208  1.0000
  C   C294      1.0  0.70407  0.61355  0.10641  1.0000
  C   C295      1.0  0.71548  0.59698  0.15075  1.0000
  C   C296      1.0  0.71038  0.61078  0.20047  1.0000
  H   H355      1.0  0.71826  0.70836  0.12299  1.0000
  H   H356      1.0  0.72833  0.57363  0.14681  1.0000
  H   H357      1.0  0.71937  0.59791  0.23470  1.0000
  C   C297      1.0  0.70860  0.91302  0.12499  1.0000
  C   C298      1.0  0.73931  0.90234  0.13120  1.0000
  C   C299      1.0  0.74601  0.87116  0.15529  1.0000
  C   C300      1.0  0.72211  0.85069  0.17389  1.0000
  C   C301      1.0  0.69505  0.94735  0.24515  1.0000
  H   H358      1.0  0.75789  0.91842  0.11856  1.0000
  H   H359      1.0  0.76982  0.86323  0.16056  1.0000
  H   H360      1.0  0.73046  0.75126  0.12692  1.0000
  C   C302      1.0  0.76684  0.68289  0.06537  1.0000
  C   C303      1.0  0.76627  0.76904  0.46507  1.0000
  Fe  Fe39      1.0  0.69808  0.78484  0.25811  1.0000
  H   H361      1.0  0.76593  0.76836  0.42290  1.0000
  H   H362      1.0  0.81610  0.76896  0.47091  1.0000
  H   H363      1.0  0.80712  0.73396  0.18454  1.0000
  C   C304      1.0  0.69426  0.64138  0.20610  1.0000
  H   H364      1.0  0.80828  0.75357  0.09429  1.0000
  H   H365      1.0  0.75845  0.68633  0.22129  1.0000
  C   C305      1.0  0.77814  0.67762  0.01507  1.0000
  H   H366      1.0  0.75491  0.82834  0.05407  1.0000
  H   H367      1.0  0.72251  0.85644  0.04588  1.0000
  H   H368      1.0  0.75138  0.66321  0.16396  1.0000
  H   H369      1.0  0.72130  0.68257  0.46745  1.0000
  H   H370      1.0  0.71692  0.95978  0.23875  1.0000
  Fe  Fe40      1.0  0.73783  0.54967  0.02835  1.0000
  N   N21       1.0  0.76511  0.71491  0.15014  1.0000
  C   C306      1.0  0.78214  0.74052  0.18094  1.0000
  C   C307      1.0  0.73245  0.72614  0.14607  1.0000
  C   C308      1.0  0.76654  0.68294  0.18038  1.0000
  C   C309      1.0  0.77749  0.70986  0.09690  1.0000
  Fe  Fe41      1.0  0.67893  0.71362  0.28382  1.0000
  C   C310      1.0  0.69423  0.91678  0.27172  1.0000
  H   H371      1.0  0.77284  0.74286  0.22126  1.0000
  C   C311      1.0  0.79922  0.73203  0.07390  1.0000
  H   H372      1.0  0.72163  0.72835  0.18524  1.0000
  H   H373      1.0  0.77964  0.76618  0.16381  1.0000
  S   S84       1.0  0.71057  0.59783  0.04314  1.0000
  C   C312      1.0  0.73275  0.67899  0.50491  1.0000
  H   H374      1.0  0.78771  0.87756  0.02937  1.0000
  H   H375      1.0  0.77644  0.69673  0.47757  1.0000
  C   C313      1.0  0.73839  0.76940  0.49235  1.0000
  C   C314      1.0  0.79469  0.76941  0.49247  1.0000
  H   H376      1.0  0.74964  0.66548  0.07916  1.0000
  Fe  Fe42      1.0  0.69000  0.76335  0.37317  1.0000
  C   C315      1.0  0.68475  0.89210  0.14240  1.0000
  H   H377      1.0  0.71556  0.90547  0.28616  1.0000
  H   H378      1.0  0.72262  0.81705  0.01339  1.0000
  C   C316      1.0  0.73775  0.83817  0.02509  1.0000
  H   H379      1.0  0.67844  0.65668  0.07790  1.0000
  H   H380      1.0  0.82691  0.74370  0.00653  1.0000
  Fe  Fe43      1.0  0.86782  0.79793  0.76496  1.0000
  S   S85       1.0  0.89164  0.78903  0.68847  1.0000
  S   S86       1.0  0.87416  0.84713  0.80803  1.0000
  Fe  Fe44      1.0  0.84277  0.72699  0.76997  1.0000
  S   S87       1.0  0.86474  0.71232  0.69394  1.0000
  S   S88       1.0  0.80795  0.69843  0.81900  1.0000
  Fe  Fe45      1.0  0.90699  0.73982  0.72311  1.0000
  S   S89       1.0  0.95409  0.71626  0.70519  1.0000
  Fe  Fe46      1.0  0.84792  0.76264  0.66419  1.0000
  S   S90       1.0  0.83228  0.76988  0.57945  1.0000
  S   S91       1.0  0.88616  0.75028  0.80189  1.0000
  S   S92       1.0  0.82299  0.77571  0.73811  1.0000
  Fe  Fe47      1.0  0.76411  0.98099  0.94433  1.0000
  H   H381      1.0  0.77205  0.75190  0.89485  1.0000
  S   S93       1.0  0.76447  0.94361  0.87745  1.0000
  Fe  Fe48      1.0  0.78862  0.52609  0.95638  1.0000
  S   S94       1.0  0.73766  0.53345  0.94432  1.0000
  S   S95       1.0  0.82193  0.54640  0.89616  1.0000
  C   C317      1.0  0.79565  0.77005  0.54735  1.0000
  C   C318      1.0  0.76777  0.77090  0.57464  1.0000
  H   H382      1.0  0.76804  0.77220  0.61670  1.0000
  H   H383      1.0  0.71789  0.77100  0.56867  1.0000
  C   C319      1.0  0.81274  0.65626  0.84031  1.0000
  C   C320      1.0  0.79071  0.64258  0.87414  1.0000
  C   C321      1.0  0.79349  0.60913  0.89195  1.0000
  C   C322      1.0  0.81813  0.58884  0.87541  1.0000
  C   C323      1.0  0.84001  0.60247  0.84117  1.0000
  C   C324      1.0  0.83744  0.63610  0.82383  1.0000
  H   H384      1.0  0.77145  0.65794  0.88685  1.0000
  H   H385      1.0  0.77652  0.59895  0.91831  1.0000
  H   H386      1.0  0.85915  0.58695  0.82828  1.0000
  H   H387      1.0  0.85457  0.64634  0.79780  1.0000
  C   C325      1.0  0.84296  0.87201  0.83031  1.0000
  C   C326      1.0  0.84884  0.89836  0.86536  1.0000
  C   C327      1.0  0.82481  0.91987  0.88178  1.0000
  C   C328      1.0  0.79488  0.91552  0.86225  1.0000
  C   C329      1.0  0.78890  0.88878  0.82801  1.0000
  C   C330      1.0  0.81275  0.86683  0.81258  1.0000
  H   H388      1.0  0.87217  0.90244  0.87931  1.0000
  H   H389      1.0  0.82965  0.94045  0.90807  1.0000
  H   H390      1.0  0.76577  0.88533  0.81271  1.0000
  H   H391      1.0  0.80782  0.84640  0.78622  1.0000
  H   H392      1.0  0.87694  0.92039  0.73429  1.0000
  C   C331      1.0  0.99091  0.73566  0.71117  1.0000
  H   H393      1.0  0.82462  0.66499  0.62750  1.0000
  H   H394      1.0  0.97560  0.77713  0.75842  1.0000
  C   C332      1.0  0.77424  0.82952  0.95436  1.0000
  C   C333      1.0  0.73935  0.77049  0.54725  1.0000
  H   H395      1.0  0.89521  0.90165  0.65309  1.0000
  N   N22       1.0  0.75340  0.85412  0.98008  1.0000
  N   N23       1.0  0.84803  0.88433  0.65268  1.0000
  H   H396      1.0  0.80860  0.69516  0.95502  1.0000
  C   C334      1.0  0.84294  0.89375  0.59720  1.0000
  H   H397      1.0  0.83551  0.84442  0.70438  1.0000
  C   C335      1.0  0.83518  0.91069  0.68730  1.0000
  C   C336      1.0  0.80350  0.92020  0.68330  1.0000
  C   C337      1.0  0.79060  0.94440  0.71636  1.0000
  C   C338      1.0  0.80613  0.83578  0.94563  1.0000
  H   H398      1.0  0.80203  0.69256  0.56216  1.0000
  H   H399      1.0  0.88713  0.86896  0.70031  1.0000
  C   C339      1.0  0.78146  0.77530  0.90960  1.0000
  H   H400      1.0  0.69192  0.66153  0.54280  1.0000
  H   H401      1.0  0.85351  0.87494  0.57031  1.0000
  H   H402      1.0  0.81802  0.89491  0.58644  1.0000
  H   H403      1.0  0.81712  0.85892  0.95720  1.0000
  H   H404      1.0  0.85317  0.91874  0.58849  1.0000
  C   C340      1.0  0.83991  0.95119  0.75915  1.0000
  H   H405      1.0  0.77183  0.65434  0.73507  1.0000
  H   H406      1.0  0.80692  0.85354  0.65518  1.0000
  H   H407      1.0  0.78829  0.90845  0.65530  1.0000
  C   C341      1.0  0.82486  0.81236  0.91975  1.0000
  S   S96       1.0  0.71477  0.99174  0.96601  1.0000
  C   C342      1.0  0.76249  0.79852  0.93541  1.0000
  C   C343      1.0  0.71622  0.66732  0.54761  1.0000
  H   H408      1.0  0.68294  0.59228  0.93665  1.0000
  C   C344      1.0  0.80879  0.95989  0.75414  1.0000
  C   C345      1.0  0.73062  0.66389  0.59646  1.0000
  H   H409      1.0  0.80010  0.71929  0.64471  1.0000
  H   H410      1.0  0.76252  0.72173  0.67341  1.0000
  H   H411      1.0  0.84131  0.83147  0.63792  1.0000
  C   C346      1.0  0.99525  0.76493  0.74043  1.0000
  H   H412      1.0  0.74055  0.87707  0.90700  1.0000
  H   H413      1.0  0.71442  0.84523  0.92861  1.0000
  C   C347      1.0  0.79979  0.69945  0.99404  1.0000
  C   C348      1.0  0.81255  0.78228  0.90165  1.0000
  H   H414      1.0  0.73751  0.67016  0.70511  1.0000
  H   H415      1.0  0.82704  0.76449  0.88076  1.0000
  H   H416      1.0  0.76620  0.95068  0.71361  1.0000
  C   C349      1.0  0.72959  0.86589  0.94214  1.0000
  C   C350      1.0  0.88175  0.87838  0.66021  1.0000
  H   H417      1.0  0.99656  0.71940  0.84053  1.0000
  H   H418      1.0  0.85369  0.96250  0.78984  1.0000
  H   H419      1.0  0.79850  0.97786  0.78082  1.0000
  H   H420      1.0  0.84896  0.81801  0.91231  1.0000
  C   C351      1.0  0.99740  0.67258  0.79927  1.0000
  C   C352      1.0  0.85303  0.92683  0.72662  1.0000
  H   H421      1.0  0.81869  0.64992  0.69180  1.0000
  H   H422      1.0  0.80369  0.62663  0.63715  1.0000
  C   C353      1.0  0.75897  0.65549  0.69713  1.0000
  C   C354      1.0  0.80737  0.65243  0.65271  1.0000
  C   C355      1.0  0.83219  0.85210  0.66296  1.0000
  H   H423      1.0  0.97246  0.67181  0.79473  1.0000
  C   C356      1.0  0.78415  0.70640  0.67195  1.0000
  H   H424      1.0  0.89079  0.85879  0.63312  1.0000
  H   H425      1.0  0.79504  0.70718  0.71131  1.0000
  C   C357      1.0  0.77835  0.68416  0.55938  1.0000
  H   H426      1.0  0.71433  0.88576  0.95906  1.0000
  N   N24       1.0  0.77770  0.67144  0.65558  1.0000
  H   H427      1.0  0.71632  0.65515  0.62789  1.0000
  H   H428      1.0  0.75284  0.62918  0.68678  1.0000
  C   C358      1.0  0.76224  0.67237  0.60383  1.0000
  H   H429      1.0  0.77016  0.65627  0.99245  1.0000
  C   C359      1.0  0.76953  0.88435  0.00016  1.0000
  H   H430      1.0  0.73839  0.79226  0.93955  1.0000
  H   H431      1.0  0.78019  0.89909  0.96810  1.0000
  H   H432      1.0  0.00500  0.62777  0.75472  1.0000
  C   C360      1.0  0.76383  0.68701  0.51069  1.0000
