data_image0
_chemical_formula_structural       HFeSH2SCHCHC6NH3CHCHCHCHCHSHCHNHCHCHCFeC3H3CH6CH4CH3S3FeS2H2SHCHC6H2FeHC6H3C3HSCH3NCH2C2H6CHCFeHSH2C2HC2HC2HCFeHFeCHCH3C3HCSHCH2C3H2SHCNH2FeS2CFeHFeH2FeSCSC8H3C3HSH8SCH2CHC4NHC2H2CHCNH3CH5C2HSHCSHCNCHCFeS2C3FeS2H2C6H8C2H2CNC2FeCHSH3C2H2SHSCHC2H3CH2CSCHCFeS2FeS2FeS2C6H5SC8H9C2H2C2H2SHC2FeC3NCSFeCHC2HCH4C2H6CNCHSHNHSH3CSHCH2CFeC2HCHCH3SFeH2C2HSC6H4CSCH2CH5CH3CNCHC3H2CHSFe2CSH2FeS2CFeSFeC3H3C2S2C3H2SH2CH3CHC2H4NC7H3SCH3CHS2HC2H4SCHS2FeS2FeS2FeS2CH2CH3SHC6H4C6H4NCHC3H4C2HNSHCHCSCHCFeNH4C2H3SH2FeCFeH6CH3CH2CFeCHC2H3FeSCHC4HC2H4CHC5HNHSH3C2HC2HCH2NCH3CH2C2HC2H2C4HC3H3CFeH2SC3HNCH2SCHC3H4CHS2FeSC6H2C2H2CH5CH2C2H3CH2CHC3HNHSH4C3H2FeH4SC3SFeS2H2SH2C3SCS2H3CHC6HCH2C6H4CHCH3CH2FeCHCSNHC3HCFeNCH2CFeH2SHCH4SCHCHC2FeCH2CH7FeH4FeHCFeSCSHSFeC6H4C2SH3C2S2H2CNC2NH3CFeHCH2FeHSHCHC3H2C2HCHSH4CH6CHCHS
_chemical_formula_sum              "H432 Fe48 S96 C360 N24"
_cell_length_a       37.7278
_cell_length_b       30.494
_cell_length_c       44.615
_cell_angle_alpha    89.8498
_cell_angle_beta     89.4328
_cell_angle_gamma    89.998

_space_group_name_H-M_alt    "P 1"
_space_group_IT_number       1

loop_
  _space_group_symop_operation_xyz
  'x, y, z'

loop_
  _atom_site_type_symbol
  _atom_site_label
  _atom_site_symmetry_multiplicity
  _atom_site_fract_x
  _atom_site_fract_y
  _atom_site_fract_z
  _atom_site_occupancy
  H   H1        1.0  0.43101  0.46361  0.09230  1.0000
  Fe  Fe1       1.0  0.01323  0.16652  0.06189  1.0000
  S   S1        1.0  0.06943  0.17055  0.04325  1.0000
  H   H2        1.0  0.25424  0.21016  0.08315  1.0000
  H   H3        1.0  0.12343  0.14305  0.00213  1.0000
  S   S2        1.0  0.18486  0.01912  0.05017  1.0000
  C   C1        1.0  0.01713  0.33170  0.29851  1.0000
  H   H4        1.0  0.16155  0.18661  0.06178  1.0000
  C   C2        1.0  0.06207  0.99062  0.01321  1.0000
  H   H5        1.0  0.02200  0.98913  0.09470  1.0000
  C   C3        1.0  0.09806  0.12467  0.04373  1.0000
  C   C4        1.0  0.12344  0.12026  0.02076  1.0000
  C   C5        1.0  0.14933  0.08721  0.02196  1.0000
  C   C6        1.0  0.15051  0.05845  0.04640  1.0000
  C   C7        1.0  0.12475  0.06242  0.06919  1.0000
  C   C8        1.0  0.09835  0.09505  0.06772  1.0000
  N   N1        1.0  0.46592  0.48180  0.12830  1.0000
  H   H6        1.0  0.18632  0.12138  0.07816  1.0000
  H   H7        1.0  0.12548  0.04054  0.08831  1.0000
  H   H8        1.0  0.07905  0.09829  0.08569  1.0000
  C   C9        1.0  0.20964  0.14048  0.08586  1.0000
  H   H9        1.0  0.00360  0.30444  0.28648  1.0000
  C   C10       1.0  0.43237  0.46670  0.00237  1.0000
  H   H10       1.0  0.20005  0.16877  0.09938  1.0000
  C   C11       1.0  0.26288  0.17905  0.07231  1.0000
  H   H11       1.0  0.41633  0.44609  0.12830  1.0000
  C   C12       1.0  0.16047  0.22320  0.02163  1.0000
  H   H12       1.0  0.22352  0.09798  0.03290  1.0000
  C   C13       1.0  0.47411  0.46440  0.15859  1.0000
  H   H13       1.0  0.22428  0.11842  0.10136  1.0000
  S   S3        1.0  0.28547  0.02187  0.01814  1.0000
  H   H14       1.0  0.43092  0.44310  0.02048  1.0000
  C   C14       1.0  0.21324  0.18314  0.03844  1.0000
  H   H15       1.0  0.26640  0.12206  0.02790  1.0000
  N   N2        1.0  0.23213  0.15489  0.06012  1.0000
  H   H16       1.0  0.28265  0.18763  0.05456  1.0000
  C   C15       1.0  0.17748  0.19677  0.04273  1.0000
  H   H17       1.0  0.27728  0.15914  0.08926  1.0000
  C   C16       1.0  0.44056  0.45093  0.11423  1.0000
  H   H18       1.0  0.25678  0.09082  0.06078  1.0000
  C   C17       1.0  0.03297  0.98894  0.07215  1.0000
  Fe  Fe2       1.0  0.22688  0.00845  0.01387  1.0000
  C   C18       1.0  0.23078  0.19807  0.01201  1.0000
  C   C19       1.0  0.24531  0.11491  0.04478  1.0000
  C   C20       1.0  0.17841  0.23703  0.99587  1.0000
  H   H19       1.0  0.49014  0.43381  0.15701  1.0000
  H   H20       1.0  0.00918  0.01345  0.00132  1.0000
  H   H21       1.0  0.45275  0.41809  0.11064  1.0000
  C   C21       1.0  0.02636  0.00278  0.01911  1.0000
  H   H22       1.0  0.25798  0.18906  0.00720  1.0000
  H   H23       1.0  0.48412  0.45140  0.07028  1.0000
  H   H24       1.0  0.44959  0.45685  0.17171  1.0000
  H   H25       1.0  0.16879  0.08497  0.00426  1.0000
  H   H26       1.0  0.99477  0.24028  0.23459  1.0000
  H   H27       1.0  0.04563  0.32850  0.29249  1.0000
  C   C22       1.0  0.01216  0.00198  0.04815  1.0000
  H   H28       1.0  0.00721  0.36323  0.28920  1.0000
  H   H29       1.0  0.13283  0.23211  0.02510  1.0000
  H   H30       1.0  0.13098  0.00479  0.99409  1.0000
  H   H31       1.0  0.14158  0.30130  0.49879  1.0000
  C   C23       1.0  0.46184  0.14585  0.51056  1.0000
  H   H32       1.0  0.14330  0.37254  0.56718  1.0000
  H   H33       1.0  0.48739  0.42614  0.48387  1.0000
  H   H34       1.0  0.37293  0.43304  0.48760  1.0000
  S   S4        1.0  0.01096  0.18154  0.37268  1.0000
  S   S5        1.0  0.45427  0.35128  0.52637  1.0000
  S   S6        1.0  0.41717  0.30600  0.58490  1.0000
  Fe  Fe3       1.0  0.40138  0.35516  0.55010  1.0000
  S   S7        1.0  0.35175  0.35318  0.52174  1.0000
  S   S8        1.0  0.41480  0.41226  0.57911  1.0000
  H   H35       1.0  0.47779  0.02244  0.47983  1.0000
  H   H36       1.0  0.20066  0.29978  0.48959  1.0000
  S   S9        1.0  0.13045  0.41601  0.42510  1.0000
  H   H37       1.0  0.41190  0.46115  0.49941  1.0000
  C   C24       1.0  0.21492  0.35309  0.55571  1.0000
  H   H38       1.0  0.99206  0.08689  0.51851  1.0000
  C   C25       1.0  0.31703  0.39145  0.52722  1.0000
  C   C26       1.0  0.31356  0.41555  0.55373  1.0000
  C   C27       1.0  0.28443  0.44390  0.55788  1.0000
  C   C28       1.0  0.25896  0.44911  0.53539  1.0000
  C   C29       1.0  0.26306  0.42586  0.50857  1.0000
  C   C30       1.0  0.29173  0.39686  0.50466  1.0000
  H   H39       1.0  0.33271  0.41143  0.57140  1.0000
  H   H40       1.0  0.44961  0.23105  0.61991  1.0000
  Fe  Fe4       1.0  0.14299  0.47828  0.45151  1.0000
  H   H41       1.0  0.29410  0.37816  0.48417  1.0000
  C   C31       1.0  0.03478  0.32177  0.42895  1.0000
  C   C32       1.0  0.06593  0.31034  0.41356  1.0000
  C   C33       1.0  0.09517  0.33919  0.41317  1.0000
  C   C34       1.0  0.09399  0.37932  0.42865  1.0000
  C   C35       1.0  0.06349  0.38987  0.44518  1.0000
  C   C36       1.0  0.03402  0.36135  0.44514  1.0000
  H   H42       1.0  0.06753  0.27942  0.40185  1.0000
  H   H43       1.0  0.11873  0.33057  0.40049  1.0000
  H   H44       1.0  0.06210  0.42065  0.45713  1.0000
  C   C37       1.0  0.44521  0.23538  0.64448  1.0000
  C   C38       1.0  0.47855  0.10715  0.50134  1.0000
  C   C39       1.0  0.14633  0.38913  0.54507  1.0000
  H   H45       1.0  0.16356  0.41856  0.54777  1.0000
  S   S10       1.0  0.99585  0.28869  0.42829  1.0000
  C   C40       1.0  0.26401  0.30552  0.54246  1.0000
  H   H46       1.0  0.25923  0.27039  0.50113  1.0000
  H   H47       1.0  0.11973  0.40191  0.53881  1.0000
  H   H48       1.0  0.13755  0.39783  0.48707  1.0000
  N   N3        1.0  0.16088  0.35882  0.52198  1.0000
  C   C41       1.0  0.21296  0.31003  0.51019  1.0000
  H   H49       1.0  0.02083  0.28381  0.36704  1.0000
  H   H50       1.0  0.17227  0.36304  0.47427  1.0000
  C   C42       1.0  0.99944  0.98668  0.48607  1.0000
  C   C43       1.0  0.46989  0.18547  0.49652  1.0000
  H   H51       1.0  0.01019  0.37039  0.45732  1.0000
  H   H52       1.0  0.99553  0.11030  0.46524  1.0000
  H   H53       1.0  0.37465  0.47133  0.44193  1.0000
  H   H54       1.0  0.24378  0.42921  0.49107  1.0000
  H   H55       1.0  0.20510  0.37743  0.57124  1.0000
  H   H56       1.0  0.10776  0.33551  0.51364  1.0000
  C   C44       1.0  0.19609  0.34063  0.52960  1.0000
  H   H57       1.0  0.29048  0.29333  0.54689  1.0000
  C   C45       1.0  0.07779  0.41484  0.35609  1.0000
  Fe  Fe5       1.0  0.43512  0.36310  0.61274  1.0000
  H   H58       1.0  0.18277  0.41114  0.49543  1.0000
  S   S11       1.0  0.99130  0.00250  0.54695  1.0000
  H   H59       1.0  0.44314  0.14548  0.52916  1.0000
  H   H60       1.0  0.13342  0.30171  0.53857  1.0000
  C   C46       1.0  0.24827  0.33544  0.56198  1.0000
  C   C47       1.0  0.06236  0.37907  0.34165  1.0000
  H   H61       1.0  0.07035  0.46691  0.38788  1.0000
  C   C48       1.0  0.24643  0.29288  0.51659  1.0000
  C   C49       1.0  0.16358  0.38365  0.49349  1.0000
  H   H62       1.0  0.26267  0.34636  0.58152  1.0000
  C   C50       1.0  0.99620  0.07584  0.47084  1.0000
  C   C51       1.0  0.13490  0.32273  0.51815  1.0000
  H   H63       1.0  0.00754  0.44863  0.39792  1.0000
  C   C52       1.0  0.00256  0.00013  0.45594  1.0000
  Fe  Fe6       1.0  0.47189  0.30696  0.56413  1.0000
  H   H64       1.0  0.31963  0.47315  0.47511  1.0000
  Fe  Fe7       1.0  0.46841  0.40686  0.55702  1.0000
  C   C53       1.0  0.00038  0.04468  0.44812  1.0000
  H   H65       1.0  0.37254  0.46003  0.52286  1.0000
  C   C54       1.0  0.05785  0.44028  0.37587  1.0000
  H   H66       1.0  0.10577  0.42192  0.35297  1.0000
  H   H67       1.0  0.47675  0.04518  0.44261  1.0000
  H   H68       1.0  0.45769  0.21563  0.50435  1.0000
  C   C55       1.0  0.99426  0.06250  0.50104  1.0000
  C   C56       1.0  0.00680  0.39402  0.36731  1.0000
  C   C57       1.0  0.02250  0.42982  0.38153  1.0000
  H   H69       1.0  0.28149  0.46161  0.57875  1.0000
  C   C58       1.0  0.99525  0.01787  0.50878  1.0000
  S   S12       1.0  0.00265  0.06014  0.40984  1.0000
  H   H70       1.0  0.01826  0.25917  0.33087  1.0000
  C   C59       1.0  0.38243  0.46295  0.49935  1.0000
  H   H71       1.0  0.47182  0.07740  0.51328  1.0000
  H   H72       1.0  0.48115  0.30909  0.65182  1.0000
  C   C60       1.0  0.02622  0.36778  0.34655  1.0000
  C   C61       1.0  0.48503  0.47706  0.45005  1.0000
  C   C62       1.0  0.02751  0.28879  0.34297  1.0000
  H   H73       1.0  0.42842  0.26529  0.64693  1.0000
  H   H74       1.0  0.42991  0.20643  0.65254  1.0000
  S   S13       1.0  0.22160  0.48307  0.54220  1.0000
  H   H75       1.0  0.48609  0.45428  0.43151  1.0000
  C   C63       1.0  0.48566  0.46103  0.47972  1.0000
  N   N4        1.0  0.01070  0.32921  0.33138  1.0000
  H   H76       1.0  0.05686  0.28945  0.34085  1.0000
  H   H77       1.0  0.07929  0.35947  0.32735  1.0000
  Fe  Fe8       1.0  0.28136  0.05588  0.97334  1.0000
  S   S14       1.0  0.29696  0.12837  0.96770  1.0000
  S   S15       1.0  0.22246  0.04588  0.97119  1.0000
  C   C64       1.0  0.44090  0.24842  0.70776  1.0000
  Fe  Fe9       1.0  0.47278  0.35742  0.83761  1.0000
  H   H78       1.0  0.41769  0.35649  0.77190  1.0000
  Fe  Fe10      1.0  0.44283  0.39986  0.89525  1.0000
  H   H79       1.0  0.29713  0.05358  0.87215  1.0000
  H   H80       1.0  0.20833  0.13477  0.89513  1.0000
  Fe  Fe11      1.0  0.43971  0.30034  0.88819  1.0000
  S   S16       1.0  0.41480  0.23140  0.89046  1.0000
  C   C65       1.0  0.41746  0.35956  0.72334  1.0000
  S   S17       1.0  0.41876  0.35613  0.85969  1.0000
  C   C66       1.0  0.23641  0.08681  0.85065  1.0000
  C   C67       1.0  0.33161  0.15571  0.94747  1.0000
  C   C68       1.0  0.35383  0.13391  0.92712  1.0000
  C   C69       1.0  0.37947  0.15757  0.91039  1.0000
  C   C70       1.0  0.38370  0.20317  0.91400  1.0000
  C   C71       1.0  0.36196  0.22483  0.93482  1.0000
  C   C72       1.0  0.33597  0.20126  0.95127  1.0000
  C   C73       1.0  0.42992  0.45216  0.97255  1.0000
  H   H81       1.0  0.42648  0.41764  0.96785  1.0000
  H   H82       1.0  0.36473  0.25985  0.93779  1.0000
  H   H83       1.0  0.21829  0.05844  0.85481  1.0000
  C   C74       1.0  0.27339  0.17943  0.88850  1.0000
  C   C75       1.0  0.43770  0.36398  0.69681  1.0000
  C   C76       1.0  0.43361  0.36030  0.75176  1.0000
  H   H84       1.0  0.35120  0.09892  0.92404  1.0000
  S   S18       1.0  0.45991  0.34428  0.92512  1.0000
  H   H85       1.0  0.25537  0.07599  0.83295  1.0000
  H   H86       1.0  0.39610  0.14043  0.89438  1.0000
  H   H87       1.0  0.21024  0.07807  0.90561  1.0000
  H   H88       1.0  0.38907  0.35519  0.72191  1.0000
  H   H89       1.0  0.29139  0.07321  0.90966  1.0000
  H   H90       1.0  0.04318  0.04572  0.96653  1.0000
  H   H91       1.0  0.31900  0.21857  0.96692  1.0000
  H   H92       1.0  0.08299  0.06247  0.98490  1.0000
  S   S19       1.0  0.42258  0.46588  0.91165  1.0000
  C   C77       1.0  0.27693  0.06377  0.88900  1.0000
  H   H93       1.0  0.34092  0.23894  0.85764  1.0000
  H   H94       1.0  0.30956  0.10783  0.83791  1.0000
  C   C78       1.0  0.27711  0.13937  0.87249  1.0000
  H   H95       1.0  0.23863  0.11620  0.92378  1.0000
  C   C79       1.0  0.29581  0.21507  0.88266  1.0000
  C   C80       1.0  0.22671  0.10800  0.90173  1.0000
  C   C81       1.0  0.32705  0.17312  0.84511  1.0000
  C   C82       1.0  0.07156  0.03732  0.96973  1.0000
  N   N5        1.0  0.07649  0.99257  0.98223  1.0000
  H   H96       1.0  0.08451  0.04098  0.94734  1.0000
  C   C83       1.0  0.43771  0.25307  0.73886  1.0000
  C   C84       1.0  0.30460  0.13741  0.85053  1.0000
  H   H97       1.0  0.34869  0.17049  0.82905  1.0000
  H   H98       1.0  0.29340  0.24484  0.89575  1.0000
  C   C85       1.0  0.47470  0.24479  0.69355  1.0000
  H   H99       1.0  0.99297  0.98568  0.70033  1.0000
  C   C86       1.0  0.32264  0.21186  0.86113  1.0000
  N   N6        1.0  0.25453  0.10049  0.87848  1.0000
  H   H100      1.0  0.22039  0.11418  0.84130  1.0000
  H   H101      1.0  0.22754  0.23513  0.97099  1.0000
  H   H102      1.0  0.26075  0.03402  0.89419  1.0000
  C   C87       1.0  0.47035  0.36513  0.75395  1.0000
  H   H103      1.0  0.25418  0.18373  0.90632  1.0000
  H   H104      1.0  0.46517  0.26041  0.78059  1.0000
  H   H105      1.0  0.41650  0.24914  0.69535  1.0000
  H   H106      1.0  0.41177  0.25707  0.74917  1.0000
  H   H107      1.0  0.48911  0.17072  0.66398  1.0000
  C   C88       1.0  0.46779  0.25502  0.75663  1.0000
  C   C89       1.0  0.43007  0.48248  0.94898  1.0000
  H   H108      1.0  0.16494  0.25722  0.97952  1.0000
  S   S20       1.0  0.29223  0.99419  0.94720  1.0000
  H   H109      1.0  0.99400  0.99390  0.75471  1.0000
  C   C90       1.0  0.47435  0.37006  0.69908  1.0000
  S   S21       1.0  0.41589  0.36027  0.66164  1.0000
  H   H110      1.0  0.49023  0.37473  0.67904  1.0000
  C   C91       1.0  0.21354  0.22453  0.99108  1.0000
  N   N7        1.0  0.47923  0.24002  0.66068  1.0000
  C   C92       1.0  0.06795  0.97605  0.06714  1.0000
  H   H111      1.0  0.33000  0.72232  0.02042  1.0000
  C   C93       1.0  0.45804  0.67558  0.25946  1.0000
  Fe  Fe12      1.0  0.44827  0.59774  0.06110  1.0000
  S   S22       1.0  0.45460  0.65772  0.03243  1.0000
  S   S23       1.0  0.43503  0.52846  0.04671  1.0000
  C   C94       1.0  0.44781  0.52463  0.13168  1.0000
  C   C95       1.0  0.47857  0.64615  0.20141  1.0000
  C   C96       1.0  0.43568  0.51154  0.00885  1.0000
  Fe  Fe13      1.0  0.42950  0.69433  0.07117  1.0000
  S   S24       1.0  0.38041  0.73842  0.06851  1.0000
  S   S25       1.0  0.41959  0.63265  0.09848  1.0000
  H   H112      1.0  0.32798  0.69769  0.27375  1.0000
  H   H113      1.0  0.36785  0.58438  0.03577  1.0000
  C   C97       1.0  0.35245  0.86674  0.01850  1.0000
  C   C98       1.0  0.27696  0.66362  0.31225  1.0000
  C   C99       1.0  0.39632  0.81071  0.03218  1.0000
  C   C100      1.0  0.37117  0.78907  0.05009  1.0000
  C   C101      1.0  0.33677  0.80681  0.05236  1.0000
  C   C102      1.0  0.32741  0.84534  0.03666  1.0000
  H   H114      1.0  0.46423  0.54881  0.14387  1.0000
  H   H115      1.0  0.42291  0.79770  0.03024  1.0000
  H   H116      1.0  0.31708  0.79047  0.06619  1.0000
  H   H117      1.0  0.30083  0.85843  0.03856  1.0000
  H   H118      1.0  0.32803  0.74827  0.29437  1.0000
  H   H119      1.0  0.28500  0.65109  0.29060  1.0000
  H   H120      1.0  0.40657  0.86554  0.00256  1.0000
  H   H121      1.0  0.39319  0.72187  0.00533  1.0000
  C   C103      1.0  0.36110  0.59703  0.01379  1.0000
  C   C104      1.0  0.44256  0.69329  0.23349  1.0000
  H   H122      1.0  0.36892  0.72085  0.28512  1.0000
  H   H123      1.0  0.38351  0.64917  0.31141  1.0000
  C   C105      1.0  0.34084  0.71551  0.29239  1.0000
  N   N8        1.0  0.33876  0.69117  0.32121  1.0000
  C   C106      1.0  0.48380  0.64288  0.25623  1.0000
  C   C107      1.0  0.45268  0.67866  0.20465  1.0000
  Fe  Fe14      1.0  0.47286  0.64523  0.11889  1.0000
  C   C108      1.0  0.08247  0.97674  0.03816  1.0000
  H   H124      1.0  0.34245  0.62865  0.29836  1.0000
  S   S26       1.0  0.44417  0.69582  0.29512  1.0000
  H   H125      1.0  0.42271  0.71869  0.23566  1.0000
  H   H126      1.0  0.10994  0.96707  0.03608  1.0000
  H   H127      1.0  0.22432  0.63706  0.30754  1.0000
  C   C109      1.0  0.38693  0.84916  0.01644  1.0000
  C   C110      1.0  0.35475  0.64712  0.31697  1.0000
  H   H128      1.0  0.36435  0.66343  0.02780  1.0000
  H   H129      1.0  0.08422  0.96621  0.08589  1.0000
  S   S27       1.0  0.48153  0.70880  0.09390  1.0000
  H   H130      1.0  0.44054  0.69273  0.18497  1.0000
  S   S28       1.0  0.34223  0.91474  0.99739  1.0000
  C   C111      1.0  0.35913  0.64226  0.00892  1.0000
  H   H131      1.0  0.44183  0.53917  0.10943  1.0000
  C   C112      1.0  0.24213  0.65548  0.32169  1.0000
  C   C113      1.0  0.32323  0.72766  0.99652  1.0000
  H   H132      1.0  0.42233  0.52168  0.14429  1.0000
  H   H133      1.0  0.48910  0.48828  0.17236  1.0000
  H   H134      1.0  0.35746  0.53291  0.99409  1.0000
  C   C114      1.0  0.07956  0.81754  0.48078  1.0000
  H   H135      1.0  0.08358  0.66835  0.44470  1.0000
  H   H136      1.0  0.01890  0.79322  0.62279  1.0000
  C   C115      1.0  0.38263  0.54434  0.49933  1.0000
  S   S29       1.0  0.03454  0.78401  0.56096  1.0000
  C   C116      1.0  0.25333  0.69294  0.36814  1.0000
  H   H137      1.0  0.08863  0.76650  0.41398  1.0000
  C   C117      1.0  0.11468  0.74427  0.45478  1.0000
  Fe  Fe15      1.0  0.42058  0.68430  0.40461  1.0000
  S   S30       1.0  0.36955  0.69813  0.43032  1.0000
  S   S31       1.0  0.42471  0.63064  0.37072  1.0000
  Fe  Fe16      1.0  0.19151  0.56009  0.44638  1.0000
  S   S32       1.0  0.18151  0.58035  0.49404  1.0000
  S   S33       1.0  0.22521  0.59660  0.41219  1.0000
  Fe  Fe17      1.0  0.12425  0.56412  0.48506  1.0000
  S   S34       1.0  0.07452  0.60663  0.49146  1.0000
  S   S35       1.0  0.13414  0.54777  0.43634  1.0000
  C   C118      1.0  0.33175  0.66380  0.42829  1.0000
  C   C119      1.0  0.32897  0.63086  0.40668  1.0000
  C   C120      1.0  0.29671  0.60833  0.40302  1.0000
  C   C121      1.0  0.26743  0.61726  0.42173  1.0000
  C   C122      1.0  0.27096  0.64822  0.44459  1.0000
  C   C123      1.0  0.30286  0.67168  0.44763  1.0000
  H   H138      1.0  0.35109  0.62401  0.39196  1.0000
  H   H139      1.0  0.29404  0.58491  0.38500  1.0000
  H   H140      1.0  0.24849  0.65582  0.45891  1.0000
  H   H141      1.0  0.30484  0.69693  0.46454  1.0000
  H   H142      1.0  0.14248  0.73746  0.39817  1.0000
  S   S36       1.0  0.46891  0.66445  0.43027  1.0000
  C   C124      1.0  0.04463  0.73437  0.54159  1.0000
  C   C125      1.0  0.02251  0.71683  0.51970  1.0000
  C   C126      1.0  0.03212  0.67773  0.50476  1.0000
  C   C127      1.0  0.06400  0.65578  0.51129  1.0000
  C   C128      1.0  0.08613  0.67331  0.53320  1.0000
  C   C129      1.0  0.07639  0.71223  0.54831  1.0000
  C   C130      1.0  0.36074  0.71530  0.34316  1.0000
  C   C131      1.0  0.28825  0.70115  0.35900  1.0000
  H   H143      1.0  0.11057  0.65674  0.53870  1.0000
  H   H144      1.0  0.09375  0.72550  0.56518  1.0000
  H   H145      1.0  0.38858  0.71913  0.33513  1.0000
  H   H146      1.0  0.16513  0.64989  0.45060  1.0000
  H   H147      1.0  0.17684  0.74285  0.42547  1.0000
  H   H148      1.0  0.11559  0.64529  0.41932  1.0000
  H   H149      1.0  0.13438  0.73543  0.50067  1.0000
  H   H150      1.0  0.00655  0.97584  0.43864  1.0000
  H   H151      1.0  0.20397  0.66165  0.35753  1.0000
  C   C132      1.0  0.40267  0.54390  0.52618  1.0000
  C   C133      1.0  0.40644  0.62321  0.52620  1.0000
  H   H152      1.0  0.01467  0.66439  0.48799  1.0000
  H   H153      1.0  0.13546  0.66507  0.48025  1.0000
  C   C134      1.0  0.00546  0.79527  0.64502  1.0000
  C   C135      1.0  0.41430  0.58288  0.53929  1.0000
  H   H154      1.0  0.31864  0.53167  0.47363  1.0000
  H   H155      1.0  0.05850  0.82914  0.43701  1.0000
  S   S37       1.0  0.12948  0.49318  0.49965  1.0000
  H   H156      1.0  0.35909  0.58920  0.46676  1.0000
  C   C136      1.0  0.15641  0.72011  0.41653  1.0000
  C   C137      1.0  0.37468  0.58608  0.48685  1.0000
  Fe  Fe18      1.0  0.45825  0.67770  0.34356  1.0000
  C   C138      1.0  0.33043  0.50329  0.48567  1.0000
  C   C139      1.0  0.09283  0.77244  0.43753  1.0000
  C   C140      1.0  0.07549  0.80841  0.45044  1.0000
  N   N9        1.0  0.13180  0.70559  0.44072  1.0000
  C   C141      1.0  0.38664  0.62480  0.50005  1.0000
  S   S38       1.0  0.45079  0.73351  0.37639  1.0000
  Fe  Fe19      1.0  0.18785  0.50807  0.50398  1.0000
  C   C142      1.0  0.10427  0.67679  0.42764  1.0000
  H   H157      1.0  0.42987  0.58156  0.55958  1.0000
  C   C143      1.0  0.10135  0.79115  0.49819  1.0000
  C   C144      1.0  0.23046  0.66971  0.34972  1.0000
  H   H158      1.0  0.17466  0.69754  0.47209  1.0000
  C   C145      1.0  0.11870  0.75498  0.48557  1.0000
  H   H159      1.0  0.00096  0.95229  0.49172  1.0000
  H   H160      1.0  0.09054  0.69222  0.40843  1.0000
  H   H161      1.0  0.17058  0.69174  0.40617  1.0000
  H   H162      1.0  0.10389  0.79810  0.52193  1.0000
  C   C146      1.0  0.15262  0.67857  0.46198  1.0000
  C   C147      1.0  0.07801  0.66023  0.65887  1.0000
  H   H163      1.0  0.41566  0.65331  0.53635  1.0000
  H   H164      1.0  0.99803  0.73335  0.51425  1.0000
  H   H165      1.0  0.30478  0.71788  0.37498  1.0000
  H   H166      1.0  0.36213  0.69768  0.36498  1.0000
  H   H167      1.0  0.35193  0.62688  0.33765  1.0000
  H   H168      1.0  0.03110  0.71864  0.60854  1.0000
  C   C148      1.0  0.38184  0.50272  0.45301  1.0000
  N   N10       1.0  0.99114  0.75238  0.65496  1.0000
  C   C149      1.0  0.02064  0.72047  0.65679  1.0000
  H   H169      1.0  0.35050  0.74900  0.34721  1.0000
  S   S39       1.0  0.20158  0.48948  0.45692  1.0000
  H   H170      1.0  0.38044  0.65622  0.48986  1.0000
  N   N11       1.0  0.36973  0.50385  0.48477  1.0000
  H   H171      1.0  0.32028  0.50425  0.50922  1.0000
  S   S40       1.0  0.48489  0.54151  0.40671  1.0000
  H   H172      1.0  0.24451  0.70283  0.39032  1.0000
  H   H173      1.0  0.06554  0.84485  0.49100  1.0000
  H   H174      1.0  0.41027  0.51388  0.53735  1.0000
  C   C150      1.0  0.30130  0.68610  0.33081  1.0000
  S   S41       1.0  0.99896  0.88925  0.59447  1.0000
  H   H175      1.0  0.37000  0.52929  0.43927  1.0000
  C   C151      1.0  0.06649  0.67642  0.63142  1.0000
  H   H176      1.0  0.07944  0.66604  0.61080  1.0000
  H   H177      1.0  0.41115  0.50623  0.45140  1.0000
  C   C152      1.0  0.03845  0.70631  0.63034  1.0000
  Fe  Fe20      1.0  0.47469  0.61298  0.39494  1.0000
  C   C153      1.0  0.48596  0.49031  0.50383  1.0000
  C   C154      1.0  0.48348  0.52235  0.44427  1.0000
  H   H178      1.0  0.47983  0.58606  0.46441  1.0000
  C   C155      1.0  0.48194  0.55137  0.46844  1.0000
  H   H179      1.0  0.48472  0.55838  0.51646  1.0000
  C   C156      1.0  0.48421  0.53551  0.49799  1.0000
  H   H180      1.0  0.09987  0.63720  0.65962  1.0000
  H   H181      1.0  0.06760  0.96090  0.93971  1.0000
  H   H182      1.0  0.34418  0.56106  0.94355  1.0000
  S   S42       1.0  0.06433  0.84279  0.92531  1.0000
  Fe  Fe21      1.0  0.01444  0.84830  0.89731  1.0000
  H   H183      1.0  0.06029  0.92659  0.97185  1.0000
  H   H184      1.0  0.31302  0.70819  0.93881  1.0000
  C   C157      1.0  0.43411  0.52729  0.95544  1.0000
  C   C158      1.0  0.05733  0.96074  0.96320  1.0000
  H   H185      1.0  0.43394  0.55095  0.93733  1.0000
  S   S43       1.0  0.00859  0.90347  0.86488  1.0000
  C   C159      1.0  0.10157  0.87761  0.91983  1.0000
  C   C160      1.0  0.12897  0.87689  0.94091  1.0000
  C   C161      1.0  0.15862  0.90465  0.93774  1.0000
  C   C162      1.0  0.16131  0.93342  0.91333  1.0000
  C   C163      1.0  0.13405  0.93394  0.89209  1.0000
  C   C164      1.0  0.10430  0.90629  0.89535  1.0000
  H   H186      1.0  0.12725  0.85467  0.95983  1.0000
  H   H187      1.0  0.17950  0.90347  0.95410  1.0000
  H   H188      1.0  0.35949  0.70981  0.92790  1.0000
  H   H189      1.0  0.08375  0.90680  0.87869  1.0000
  C   C165      1.0  0.34561  0.62922  0.95670  1.0000
  S   S44       1.0  0.19787  0.96964  0.90904  1.0000
  C   C166      1.0  0.06162  0.67406  0.68534  1.0000
  H   H190      1.0  0.43985  0.57639  0.98994  1.0000
  H   H191      1.0  0.02845  0.96780  0.96205  1.0000
  C   C167      1.0  0.34778  0.58399  0.96185  1.0000
  H   H192      1.0  0.33990  0.63923  0.93404  1.0000
  H   H193      1.0  0.13594  0.95579  0.87301  1.0000
  H   H194      1.0  0.02594  0.87464  0.72718  1.0000
  H   H195      1.0  0.40581  0.71219  0.96716  1.0000
  H   H196      1.0  0.02526  0.80807  0.66113  1.0000
  C   C168      1.0  0.33962  0.72116  0.94479  1.0000
  H   H197      1.0  0.07096  0.66180  0.70669  1.0000
  H   H198      1.0  0.33814  0.75755  0.94244  1.0000
  H   H199      1.0  0.32140  0.76394  0.99362  1.0000
  C   C169      1.0  0.35108  0.65984  0.98025  1.0000
  N   N12       1.0  0.34965  0.70796  0.97566  1.0000
  C   C170      1.0  0.43755  0.54174  0.98523  1.0000
  H   H200      1.0  0.99715  0.88227  0.67756  1.0000
  C   C171      1.0  0.99746  0.87137  0.72553  1.0000
  C   C172      1.0  0.35523  0.56797  0.99035  1.0000
  C   C173      1.0  0.03342  0.70387  0.68449  1.0000
  H   H201      1.0  0.02226  0.71360  0.70584  1.0000
  H   H202      1.0  0.12044  0.94783  0.98736  1.0000
  C   C174      1.0  0.38498  0.72709  0.98174  1.0000
  H   H203      1.0  0.38530  0.76324  0.97797  1.0000
  S   S45       1.0  0.99948  0.85759  0.78643  1.0000
  Fe  Fe22      1.0  0.23333  0.98166  0.94898  1.0000
  Fe  Fe23      1.0  0.29341  0.95910  0.99202  1.0000
  C   C175      1.0  0.11492  0.98214  0.98019  1.0000
  S   S46       1.0  0.23494  0.94270  0.99172  1.0000
  H   H204      1.0  0.29637  0.71357  0.99306  1.0000
  H   H205      1.0  0.12522  0.98510  0.95680  1.0000
  Fe  Fe24      1.0  0.94314  0.21825  0.06346  1.0000
  S   S47       1.0  0.91373  0.16065  0.08338  1.0000
  S   S48       1.0  0.92286  0.28922  0.06003  1.0000
  C   C176      1.0  0.82834  0.36165  0.01680  1.0000
  Fe  Fe25      1.0  0.94457  0.11897  0.05050  1.0000
  S   S49       1.0  0.92220  0.05725  0.02922  1.0000
  Fe  Fe26      1.0  0.96036  0.15276  0.11417  1.0000
  C   C177      1.0  0.95615  0.15422  0.19872  1.0000
  C   C178      1.0  0.96720  0.18775  0.25738  1.0000
  C   C179      1.0  0.84613  0.28661  0.11533  1.0000
  H   H206      1.0  0.79239  0.37603  0.11796  1.0000
  H   H207      1.0  0.83526  0.19769  0.15751  1.0000
  H   H208      1.0  0.80527  0.36871  0.17206  1.0000
  C   C180      1.0  0.88574  0.31573  0.04345  1.0000
  C   C181      1.0  0.86058  0.29307  0.02666  1.0000
  S   S50       1.0  0.98860  0.21221  0.09593  1.0000
  S   S51       1.0  0.98889  0.10659  0.08267  1.0000
  C   C182      1.0  0.85293  0.38406  0.03435  1.0000
  C   C183      1.0  0.88154  0.36128  0.04737  1.0000
  C   C184      1.0  0.53650  0.47514  0.06613  1.0000
  H   H209      1.0  0.84338  0.31058  0.19028  1.0000
  H   H210      1.0  0.81839  0.32380  0.08175  1.0000
  S   S52       1.0  0.94670  0.13257  0.16257  1.0000
  H   H211      1.0  0.93169  0.22403  0.14882  1.0000
  H   H212      1.0  0.86328  0.25806  0.02351  1.0000
  C   C185      1.0  0.83215  0.31595  0.01339  1.0000
  H   H213      1.0  0.92479  0.28231  0.14605  1.0000
  H   H214      1.0  0.91143  0.24671  0.11654  1.0000
  H   H215      1.0  0.87889  0.17420  0.15429  1.0000
  C   C186      1.0  0.82396  0.32030  0.10546  1.0000
  H   H216      1.0  0.96080  0.29637  0.32383  1.0000
  C   C187      1.0  0.94296  0.13212  0.22425  1.0000
  C   C188      1.0  0.94855  0.14860  0.25339  1.0000
  H   H217      1.0  0.92830  0.10192  0.22149  1.0000
  H   H218      1.0  0.93825  0.13111  0.27273  1.0000
  H   H219      1.0  0.85729  0.26509  0.09845  1.0000
  H   H220      1.0  0.85905  0.19921  0.12256  1.0000
  N   N13       1.0  0.87758  0.24500  0.15596  1.0000
  C   C189      1.0  0.88334  0.24352  0.18886  1.0000
  C   C190      1.0  0.86197  0.20230  0.14719  1.0000
  C   C191      1.0  0.91281  0.24975  0.14127  1.0000
  C   C192      1.0  0.85412  0.28117  0.14617  1.0000
  C   C193      1.0  0.83872  0.31182  0.16647  1.0000
  C   C194      1.0  0.81668  0.34556  0.15628  1.0000
  C   C195      1.0  0.80933  0.34977  0.12586  1.0000
  H   H221      1.0  0.85802  0.23888  0.20146  1.0000
  H   H222      1.0  0.90063  0.21545  0.19529  1.0000
  H   H223      1.0  0.89686  0.27364  0.19693  1.0000
  S   S53       1.0  0.97020  0.17706  0.02798  1.0000
  C   C196      1.0  0.98022  0.21004  0.23182  1.0000
  H   H224      1.0  0.90062  0.37909  0.06057  1.0000
  H   H225      1.0  0.88036  0.47619  0.00901  1.0000
  H   H226      1.0  0.84993  0.41887  0.03793  1.0000
  C   C197      1.0  0.97494  0.19332  0.20270  1.0000
  H   H227      1.0  0.53993  0.46075  0.04411  1.0000
  S   S54       1.0  0.97418  0.21106  0.29347  1.0000
  S   S55       1.0  0.71503  0.47347  0.99437  1.0000
  H   H228      1.0  0.61004  0.39966  0.00089  1.0000
  C   C198      1.0  0.50447  0.46957  0.08172  1.0000
  C   C199      1.0  0.84182  0.99741  0.01415  1.0000
  H   H229      1.0  0.81318  0.29815  0.00006  1.0000
  H   H230      1.0  0.98543  0.21065  0.18338  1.0000
  H   H231      1.0  0.83981  0.02515  0.02925  1.0000
  H   H232      1.0  0.98493  0.01210  0.05207  1.0000
  S   S56       1.0  0.79296  0.38881  0.99806  1.0000
  C   C200      1.0  0.58681  0.41868  0.99503  1.0000
  H   H233      1.0  0.98613  0.37613  0.99462  1.0000
  S   S57       1.0  0.95360  0.17019  0.42815  1.0000
  S   S58       1.0  0.93431  0.23236  0.37148  1.0000
  Fe  Fe27      1.0  0.91071  0.17291  0.39381  1.0000
  S   S59       1.0  0.85492  0.17293  0.41339  1.0000
  S   S60       1.0  0.93657  0.12607  0.36152  1.0000
  Fe  Fe28      1.0  0.69591  0.02417  0.44496  1.0000
  S   S61       1.0  0.70181  0.06095  0.48792  1.0000
  S   S62       1.0  0.73767  0.02342  0.40805  1.0000
  Fe  Fe29      1.0  0.64280  0.07314  0.48632  1.0000
  S   S63       1.0  0.61825  0.14190  0.48883  1.0000
  S   S64       1.0  0.63837  0.04147  0.44098  1.0000
  C   C201      1.0  0.90848  0.09420  0.53157  1.0000
  H   H234      1.0  0.92796  0.01377  0.47898  1.0000
  H   H235      1.0  0.50324  0.19518  0.62902  1.0000
  C   C202      1.0  0.79834  0.04339  0.50398  1.0000
  H   H236      1.0  0.79039  0.13466  0.54689  1.0000
  H   H237      1.0  0.53210  0.15204  0.44691  1.0000
  H   H238      1.0  0.55806  0.03887  0.43572  1.0000
  S   S65       1.0  0.49116  0.47202  0.54123  1.0000
  H   H239      1.0  0.57665  0.47457  0.52686  1.0000
  C   C203      1.0  0.58567  0.16859  0.51165  1.0000
  C   C204      1.0  0.56885  0.14784  0.53595  1.0000
  C   C205      1.0  0.54215  0.16990  0.55241  1.0000
  C   C206      1.0  0.53219  0.21315  0.54516  1.0000
  C   C207      1.0  0.54959  0.23429  0.52136  1.0000
  C   C208      1.0  0.57604  0.21205  0.50469  1.0000
  H   H240      1.0  0.57646  0.11493  0.54219  1.0000
  H   H241      1.0  0.52903  0.15327  0.57085  1.0000
  H   H242      1.0  0.54234  0.26752  0.51550  1.0000
  H   H243      1.0  0.58898  0.22859  0.48610  1.0000
  C   C209      1.0  0.82312  0.13060  0.41113  1.0000
  C   C210      1.0  0.79217  0.13409  0.42865  1.0000
  C   C211      1.0  0.76607  0.10131  0.42793  1.0000
  C   C212      1.0  0.77045  0.06481  0.40940  1.0000
  C   C213      1.0  0.80126  0.06138  0.39158  1.0000
  C   C214      1.0  0.82764  0.09412  0.39252  1.0000
  H   H244      1.0  0.78813  0.16270  0.44258  1.0000
  H   H245      1.0  0.74208  0.10506  0.44108  1.0000
  H   H246      1.0  0.80462  0.03356  0.37684  1.0000
  H   H247      1.0  0.85102  0.09169  0.37839  1.0000
  N   N14       1.0  0.80846  0.07318  0.52864  1.0000
  C   C215      1.0  0.78206  0.10928  0.53051  1.0000
  H   H248      1.0  0.88467  0.03672  0.48362  1.0000
  C   C216      1.0  0.51203  0.14825  0.46413  1.0000
  C   C217      1.0  0.84433  0.09093  0.52237  1.0000
  C   C218      1.0  0.87474  0.07815  0.53895  1.0000
  H   H249      1.0  0.92913  0.05413  0.43023  1.0000
  H   H250      1.0  0.52655  0.04283  0.51434  1.0000
  H   H251      1.0  0.81718  0.01542  0.50200  1.0000
  H   H252      1.0  0.52359  0.28515  0.65903  1.0000
  C   C219      1.0  0.50408  0.10707  0.47770  1.0000
  C   C220      1.0  0.49454  0.03244  0.46039  1.0000
  H   H253      1.0  0.87341  0.05530  0.55746  1.0000
  N   N15       1.0  0.52157  0.06563  0.46853  1.0000
  S   S66       1.0  0.49717  0.23834  0.56600  1.0000
  H   H254      1.0  0.56674  0.47198  0.47231  1.0000
  C   C221      1.0  0.85010  0.12006  0.49790  1.0000
  H   H255      1.0  0.93917  0.13575  0.50204  1.0000
  C   C222      1.0  0.80611  0.04805  0.55719  1.0000
  S   S67       1.0  0.62931  0.01125  0.51157  1.0000
  C   C223      1.0  0.90096  0.04449  0.42713  1.0000
  H   H256      1.0  0.77853  0.03672  0.56202  1.0000
  C   C224      1.0  0.89932  0.00808  0.47471  1.0000
  Fe  Fe30      1.0  0.97984  0.22608  0.40332  1.0000
  N   N16       1.0  0.89284  0.00209  0.44225  1.0000
  H   H257      1.0  0.82247  0.01767  0.55641  1.0000
  H   H258      1.0  0.56841  0.09313  0.44758  1.0000
  H   H259      1.0  0.55520  0.01628  0.48801  1.0000
  H   H260      1.0  0.56437  0.07138  0.49954  1.0000
  C   C225      1.0  0.54270  0.04829  0.49374  1.0000
  C   C226      1.0  0.91300  0.12333  0.50771  1.0000
  H   H261      1.0  0.79745  0.06056  0.48197  1.0000
  H   H262      1.0  0.77154  0.02912  0.50790  1.0000
  H   H263      1.0  0.82865  0.13040  0.48367  1.0000
  S   S68       1.0  0.49043  0.36275  0.59338  1.0000
  H   H264      1.0  0.83770  0.02094  0.44433  1.0000
  H   H265      1.0  0.88748  0.15874  0.47223  1.0000
  Fe  Fe31      1.0  0.68816  0.99617  0.50902  1.0000
  C   C227      1.0  0.88387  0.13620  0.49093  1.0000
  Fe  Fe32      1.0  0.96407  0.18542  0.34143  1.0000
  H   H266      1.0  0.75540  0.09704  0.53764  1.0000
  H   H267      1.0  0.53176  0.08363  0.42244  1.0000
  H   H268      1.0  0.77775  0.12573  0.50857  1.0000
  H   H269      1.0  0.81442  0.06831  0.57660  1.0000
  H   H270      1.0  0.93141  0.08353  0.54424  1.0000
  H   H271      1.0  0.88469  0.07198  0.43625  1.0000
  C   C228      1.0  0.54590  0.07076  0.44236  1.0000
  H   H272      1.0  0.89556  0.04309  0.40269  1.0000
  H   H273      1.0  0.94399  0.99973  0.39550  1.0000
  H   H274      1.0  0.50707  0.00163  0.45191  1.0000
  C   C229      1.0  0.85469  0.99262  0.43782  1.0000
  H   H275      1.0  0.50262  0.27614  0.62391  1.0000
  H   H276      1.0  0.96512  0.31920  0.36024  1.0000
  C   C230      1.0  0.97182  0.32499  0.33616  1.0000
  Fe  Fe33      1.0  0.98093  0.12620  0.39520  1.0000
  C   C231      1.0  0.49487  0.18664  0.47336  1.0000
  H   H277      1.0  0.50197  0.21788  0.46329  1.0000
  C   C232      1.0  0.49755  0.27921  0.64843  1.0000
  C   C233      1.0  0.50097  0.20069  0.65371  1.0000
  H   H278      1.0  0.97972  0.38692  0.37367  1.0000
  H   H279      1.0  0.95750  0.35467  0.32829  1.0000
  H   H280      1.0  0.93514  0.07329  0.91992  1.0000
  Fe  Fe34      1.0  0.51088  0.34846  0.89861  1.0000
  S   S69       1.0  0.56489  0.34464  0.92087  1.0000
  C   C234      1.0  0.95984  0.37976  0.98532  1.0000
  H   H281      1.0  0.60639  0.40905  0.77278  1.0000
  C   C235      1.0  0.57655  0.35688  0.83529  1.0000
  C   C236      1.0  0.59456  0.38974  0.92119  1.0000
  C   C237      1.0  0.58622  0.42961  0.90739  1.0000
  C   C238      1.0  0.95437  0.03437  0.80272  1.0000
  H   H282      1.0  0.52454  0.25497  0.75732  1.0000
  C   C239      1.0  0.65228  0.41989  0.93489  1.0000
  C   C240      1.0  0.62769  0.38509  0.93496  1.0000
  H   H283      1.0  0.56057  0.43398  0.89740  1.0000
  H   H284      1.0  0.53135  0.24575  0.70314  1.0000
  H   H285      1.0  0.67778  0.41576  0.94540  1.0000
  H   H286      1.0  0.63438  0.35442  0.94576  1.0000
  C   C241      1.0  0.93673  0.05108  0.93881  1.0000
  H   H287      1.0  0.61522  0.35362  0.78426  1.0000
  C   C242      1.0  0.49055  0.37025  0.72745  1.0000
  C   C243      1.0  0.64536  0.38297  0.85406  1.0000
  C   C244      1.0  0.50481  0.24698  0.71237  1.0000
  C   C245      1.0  0.58992  0.46377  0.98981  1.0000
  C   C246      1.0  0.64443  0.45908  0.91999  1.0000
  H   H288      1.0  0.71932  0.44508  0.86334  1.0000
  N   N17       1.0  0.89553  0.47080  0.96260  1.0000
  H   H289      1.0  0.93985  0.06230  0.79245  1.0000
  S   S70       1.0  0.49271  0.36355  0.78890  1.0000
  H   H290      1.0  0.54104  0.42315  0.81474  1.0000
  H   H291      1.0  0.69012  0.37880  0.88359  1.0000
  H   H292      1.0  0.57624  0.45983  0.80646  1.0000
  C   C247      1.0  0.93374  0.06773  0.96818  1.0000
  C   C248      1.0  0.62832  0.40661  0.83073  1.0000
  H   H293      1.0  0.63348  0.35483  0.86495  1.0000
  C   C249      1.0  0.94645  0.42149  0.97880  1.0000
  C   C250      1.0  0.50127  0.25211  0.74341  1.0000
  H   H294      1.0  0.88873  0.31799  0.96673  1.0000
  C   C251      1.0  0.93846  0.99399  0.98769  1.0000
  H   H295      1.0  0.85371  0.03758  0.97584  1.0000
  H   H296      1.0  0.92958  0.10244  0.97175  1.0000
  N   N18       1.0  0.59312  0.39427  0.81898  1.0000
  C   C252      1.0  0.93368  0.03908  0.99273  1.0000
  H   H297      1.0  0.49983  0.40489  0.97906  1.0000
  H   H298      1.0  0.57046  0.37153  0.77766  1.0000
  H   H299      1.0  0.55002  0.34860  0.82633  1.0000
  C   C253      1.0  0.59655  0.38161  0.78702  1.0000
  H   H300      1.0  0.57239  0.36466  0.85938  1.0000
  H   H301      1.0  0.63547  0.46295  0.80095  1.0000
  C   C254      1.0  0.87800  0.47279  0.93293  1.0000
  C   C255      1.0  0.56850  0.43214  0.82131  1.0000
  H   H302      1.0  0.51893  0.37438  0.72887  1.0000
  C   C256      1.0  0.90509  0.34690  0.96949  1.0000
  C   C257      1.0  0.64657  0.44362  0.81887  1.0000
  H   H303      1.0  0.86377  0.38996  0.95664  1.0000
  H   H304      1.0  0.56718  0.44475  0.84465  1.0000
  C   C258      1.0  0.91155  0.42706  0.96757  1.0000
  C   C259      1.0  0.52744  0.46677  0.97797  1.0000
  C   C260      1.0  0.67911  0.45711  0.83044  1.0000
  C   C261      1.0  0.67818  0.39637  0.86509  1.0000
  H   H305      1.0  0.59268  0.32647  0.83347  1.0000
  C   C262      1.0  0.69475  0.43368  0.85364  1.0000
  C   C263      1.0  0.89120  0.38842  0.96338  1.0000
  C   C264      1.0  0.61135  0.46372  0.90620  1.0000
  H   H306      1.0  0.95439  0.03926  0.82752  1.0000
  H   H307      1.0  0.98254  0.03656  0.79537  1.0000
  H   H308      1.0  0.85448  0.45100  0.93163  1.0000
  C   C265      1.0  0.93918  0.34258  0.98076  1.0000
  Fe  Fe35      1.0  0.77372  0.45978  0.99128  1.0000
  H   H309      1.0  0.84652  0.45449  0.98532  1.0000
  H   H310      1.0  0.90449  0.99371  0.83418  1.0000
  S   S71       1.0  0.49277  0.29992  0.86420  1.0000
  C   C266      1.0  0.52483  0.42155  0.98263  1.0000
  C   C267      1.0  0.55451  0.39751  0.99097  1.0000
  C   C268      1.0  0.93680  0.98736  0.76150  1.0000
  H   H311      1.0  0.94919  0.31041  0.98679  1.0000
  N   N19       1.0  0.93795  0.99188  0.79454  1.0000
  C   C269      1.0  0.94072  0.00587  0.93376  1.0000
  H   H312      1.0  0.88483  0.01652  0.80126  1.0000
  H   H313      1.0  0.89675  0.46365  0.91459  1.0000
  S   S72       1.0  0.49475  0.40573  0.87070  1.0000
  C   C270      1.0  0.90251  0.98990  0.80936  1.0000
  H   H314      1.0  0.50357  0.48391  0.97182  1.0000
  C   C271      1.0  0.96857  0.98959  0.74419  1.0000
  C   C272      1.0  0.86859  0.47859  0.98631  1.0000
  C   C273      1.0  0.84964  0.00436  0.98396  1.0000
  H   H315      1.0  0.96367  0.44884  0.98336  1.0000
  H   H316      1.0  0.55271  0.36218  0.99341  1.0000
  H   H317      1.0  0.61610  0.47755  0.99230  1.0000
  H   H318      1.0  0.52860  0.20373  0.66178  1.0000
  C   C274      1.0  0.63554  0.71543  0.08453  1.0000
  H   H319      1.0  0.57098  0.75952  0.16374  1.0000
  S   S73       1.0  0.55766  0.67906  0.03282  1.0000
  S   S74       1.0  0.78800  0.52287  0.01439  1.0000
  Fe  Fe36      1.0  0.72953  0.53907  0.01315  1.0000
  S   S75       1.0  0.69526  0.56211  0.05215  1.0000
  C   C275      1.0  0.59452  0.64362  0.03717  1.0000
  C   C276      1.0  0.59689  0.61450  0.06136  1.0000
  C   C277      1.0  0.62769  0.58924  0.06538  1.0000
  C   C278      1.0  0.65594  0.59164  0.04477  1.0000
  C   C279      1.0  0.65316  0.61966  0.02001  1.0000
  C   C280      1.0  0.62275  0.64594  0.01647  1.0000
  H   H320      1.0  0.57565  0.61237  0.07757  1.0000
  H   H321      1.0  0.63003  0.56828  0.08483  1.0000
  C   C281      1.0  0.55931  0.51846  0.10671  1.0000
  C   C282      1.0  0.56271  0.68521  0.13142  1.0000
  H   H322      1.0  0.61275  0.55029  0.99558  1.0000
  H   H323      1.0  0.58875  0.50339  0.06644  1.0000
  C   C283      1.0  0.64171  0.67234  0.12989  1.0000
  H   H324      1.0  0.63272  0.66106  0.15164  1.0000
  H   H325      1.0  0.58798  0.78212  0.10068  1.0000
  H   H326      1.0  0.54559  0.76622  0.11537  1.0000
  H   H327      1.0  0.68783  0.63040  0.13138  1.0000
  H   H328      1.0  0.56332  0.73790  0.08373  1.0000
  C   C284      1.0  0.68630  0.66773  0.09067  1.0000
  H   H329      1.0  0.83186  0.94967  0.04859  1.0000
  H   H330      1.0  0.83915  0.88662  0.01536  1.0000
  C   C285      1.0  0.83771  0.95485  0.02501  1.0000
  C   C286      1.0  0.59539  0.74397  0.15432  1.0000
  H   H331      1.0  0.93804  0.97154  0.00651  1.0000
  H   H332      1.0  0.54384  0.59692  0.99491  1.0000
  H   H333      1.0  0.55644  0.66755  0.11037  1.0000
  C   C287      1.0  0.62172  0.70321  0.11315  1.0000
  H   H334      1.0  0.67703  0.70670  0.05146  1.0000
  H   H335      1.0  0.61572  0.77010  0.15118  1.0000
  C   C288      1.0  0.57070  0.75331  0.10543  1.0000
  H   H336      1.0  0.67496  0.62229  0.00419  1.0000
  C   C289      1.0  0.66747  0.69800  0.07370  1.0000
  C   C290      1.0  0.54309  0.56075  0.99860  1.0000
  C   C291      1.0  0.67342  0.65482  0.11867  1.0000
  H   H337      1.0  0.60506  0.72112  0.17187  1.0000
  N   N20       1.0  0.58824  0.72129  0.12562  1.0000
  H   H338      1.0  0.62132  0.66850  0.99776  1.0000
  S   S76       1.0  0.50050  0.60485  0.08360  1.0000
  H   H339      1.0  0.53727  0.69763  0.14103  1.0000
  H   H340      1.0  0.71031  0.65302  0.08160  1.0000
  H   H341      1.0  0.57260  0.66059  0.14771  1.0000
  H   H342      1.0  0.62178  0.73739  0.06960  1.0000
  C   C292      1.0  0.56396  0.49924  0.07865  1.0000
  C   C293      1.0  0.52736  0.51320  0.12249  1.0000
  C   C294      1.0  0.84211  0.91902  0.00581  1.0000
  H   H343      1.0  0.55489  0.55426  0.02094  1.0000
  H   H344      1.0  0.52467  0.52993  0.14375  1.0000
  Fe  Fe37      1.0  0.50577  0.66668  0.05749  1.0000
  H   H345      1.0  0.58043  0.53795  0.11617  1.0000
  H   H346      1.0  0.51468  0.55102  0.00001  1.0000
  H   H347      1.0  0.51412  0.60325  0.22518  1.0000
  H   H348      1.0  0.49597  0.62895  0.27594  1.0000
  S   S77       1.0  0.49290  0.62693  0.16562  1.0000
  C   C295      1.0  0.49403  0.62838  0.22737  1.0000
  C   C296      1.0  0.49914  0.48784  0.11074  1.0000
  C   C297      1.0  0.58441  0.85246  0.36202  1.0000
  S   S78       1.0  0.93360  0.82050  0.58040  1.0000
  Fe  Fe38      1.0  0.91472  0.87123  0.54711  1.0000
  S   S79       1.0  0.86793  0.87129  0.51533  1.0000
  S   S80       1.0  0.92022  0.92692  0.57910  1.0000
  H   H349      1.0  0.71223  0.92862  0.40576  1.0000
  H   H350      1.0  0.59455  0.91659  0.37729  1.0000
  S   S81       1.0  0.57684  0.94445  0.44940  1.0000
  H   H351      1.0  0.52032  0.63813  0.48148  1.0000
  H   H352      1.0  0.53497  0.60359  0.43044  1.0000
  C   C298      1.0  0.91056  0.92264  0.44410  1.0000
  C   C299      1.0  0.57043  0.54201  0.46626  1.0000
  C   C300      1.0  0.95906  0.93307  0.39704  1.0000
  S   S82       1.0  0.68413  0.95873  0.46603  1.0000
  C   C301      1.0  0.60712  0.88708  0.36907  1.0000
  S   S83       1.0  0.55012  0.74370  0.41474  1.0000
  S   S84       1.0  0.50909  0.65497  0.36462  1.0000
  H   H353      1.0  0.61662  0.65562  0.48589  1.0000
  H   H354      1.0  0.58627  0.61395  0.52324  1.0000
  H   H355      1.0  0.67911  0.88972  0.41802  1.0000
  C   C302      1.0  0.59805  0.81232  0.35265  1.0000
  H   H356      1.0  0.58681  0.54553  0.55188  1.0000
  C   C303      1.0  0.56975  0.88803  0.44119  1.0000
  C   C304      1.0  0.53594  0.87450  0.43183  1.0000
  C   C305      1.0  0.52926  0.83041  0.42413  1.0000
  C   C306      1.0  0.55646  0.79932  0.42548  1.0000
  C   C307      1.0  0.59024  0.81282  0.43499  1.0000
  C   C308      1.0  0.59687  0.85686  0.44288  1.0000
  H   H357      1.0  0.51474  0.89827  0.43043  1.0000
  C   C309      1.0  0.69074  0.93117  0.34789  1.0000
  H   H358      1.0  0.61151  0.78912  0.43606  1.0000
  H   H359      1.0  0.62295  0.86667  0.45010  1.0000
  C   C310      1.0  0.82864  0.90053  0.52428  1.0000
  C   C311      1.0  0.82065  0.91355  0.55363  1.0000
  C   C312      1.0  0.78841  0.93508  0.56010  1.0000
  C   C313      1.0  0.76423  0.94471  0.53724  1.0000
  C   C314      1.0  0.77264  0.93253  0.50778  1.0000
  C   C315      1.0  0.80450  0.91018  0.50141  1.0000
  H   H360      1.0  0.83883  0.90592  0.57150  1.0000
  H   H361      1.0  0.98405  0.82012  0.64285  1.0000
  H   H362      1.0  0.75445  0.93980  0.48993  1.0000
  H   H363      1.0  0.81031  0.89991  0.47870  1.0000
  C   C316      1.0  0.58195  0.58370  0.51129  1.0000
  H   H364      1.0  0.63621  0.95045  0.40712  1.0000
  C   C317      1.0  0.96451  0.73746  0.63288  1.0000
  H   H365      1.0  0.89107  0.97930  0.48847  1.0000
  H   H366      1.0  0.92789  0.85547  0.44530  1.0000
  H   H367      1.0  0.62794  0.62653  0.45222  1.0000
  C   C318      1.0  0.60739  0.64766  0.46296  1.0000
  H   H368      1.0  0.71156  0.87508  0.39015  1.0000
  H   H369      1.0  0.55598  0.85624  0.36486  1.0000
  Fe  Fe39      1.0  0.94342  0.87776  0.61124  1.0000
  C   C319      1.0  0.57492  0.58365  0.48007  1.0000
  H   H370      1.0  0.50316  0.82059  0.41688  1.0000
  C   C320      1.0  0.56128  0.61989  0.43173  1.0000
  S   S85       1.0  0.96886  0.87912  0.52583  1.0000
  N   N21       1.0  0.57240  0.62557  0.46334  1.0000
  H   H371      1.0  0.60640  0.67925  0.45026  1.0000
  C   C321      1.0  0.69413  0.90206  0.39808  1.0000
  C   C322      1.0  0.54619  0.65498  0.47816  1.0000
  C   C323      1.0  0.65178  0.95783  0.38638  1.0000
  H   H372      1.0  0.55505  0.66659  0.50042  1.0000
  C   C324      1.0  0.95517  0.89228  0.41086  1.0000
  Fe  Fe40      1.0  0.62682  0.97891  0.46608  1.0000
  N   N22       1.0  0.66960  0.91792  0.37461  1.0000
  C   C325      1.0  0.58274  0.54472  0.52786  1.0000
  H   H373      1.0  0.94051  0.75881  0.63303  1.0000
  H   H374      1.0  0.58082  0.60039  0.41854  1.0000
  C   C326      1.0  0.64458  0.88249  0.36654  1.0000
  Fe  Fe41      1.0  0.49991  0.70843  0.39891  1.0000
  H   H375      1.0  0.67125  0.98375  0.39235  1.0000
  H   H376      1.0  0.78216  0.94420  0.58297  1.0000
  S   S86       1.0  0.92257  0.87343  0.65966  1.0000
  H   H377      1.0  0.55881  0.65187  0.41988  1.0000
  C   C327      1.0  0.57169  0.50324  0.48303  1.0000
  H   H378      1.0  0.56458  0.53834  0.44275  1.0000
  H   H379      1.0  0.54126  0.68519  0.46473  1.0000
  H   H380      1.0  0.97476  0.73857  0.60941  1.0000
  H   H381      1.0  0.89209  0.91683  0.46236  1.0000
  S   S87       1.0  0.72449  0.97328  0.54616  1.0000
  C   C328      1.0  0.65754  0.84151  0.35607  1.0000
  H   H382      1.0  0.84551  0.96396  0.45127  1.0000
  C   C329      1.0  0.93895  0.96893  0.40678  1.0000
  H   H383      1.0  0.64502  0.77554  0.34223  1.0000
  C   C330      1.0  0.93090  0.88708  0.43432  1.0000
  C   C331      1.0  0.63455  0.80693  0.34946  1.0000
  Fe  Fe42      1.0  0.97489  0.93314  0.55932  1.0000
  C   C332      1.0  0.91427  0.96486  0.43093  1.0000
  H   H384      1.0  0.63387  0.97278  0.36953  1.0000
  H   H385      1.0  0.97830  0.93738  0.37906  1.0000
  C   C333      1.0  0.57734  0.50462  0.51379  1.0000
  H   H386      1.0  0.95573  0.70332  0.63776  1.0000
  H   H387      1.0  0.70922  0.95867  0.35317  1.0000
  H   H388      1.0  0.97112  0.86475  0.40348  1.0000
  H   H389      1.0  0.67322  0.94237  0.32945  1.0000
  H   H390      1.0  0.58024  0.78515  0.34835  1.0000
  H   H391      1.0  0.70740  0.90398  0.33908  1.0000
  H   H392      1.0  0.68564  0.83568  0.35337  1.0000
  Fe  Fe43      1.0  0.98857  0.83367  0.56206  1.0000
  H   H393      1.0  0.84922  0.98544  0.41384  1.0000
  H   H394      1.0  0.60521  0.49381  0.89447  1.0000
  H   H395      1.0  0.89577  0.85962  0.71931  1.0000
  H   H396      1.0  0.98939  0.77512  0.70093  1.0000
  Fe  Fe44      1.0  0.95619  0.91497  0.88737  1.0000
  H   H397      1.0  0.60060  0.58915  0.96784  1.0000
  C   C334      1.0  0.54606  0.54749  0.94532  1.0000
  Fe  Fe45      1.0  0.93726  0.81675  0.88886  1.0000
  S   S88       1.0  0.88646  0.77896  0.90244  1.0000
  C   C335      1.0  0.98124  0.87534  0.69730  1.0000
  S   S89       1.0  0.92685  0.87137  0.85544  1.0000
  H   H398      1.0  0.90946  0.62769  0.93893  1.0000
  S   S90       1.0  0.84196  0.58924  0.95399  1.0000
  Fe  Fe46      1.0  0.72073  0.50709  0.95012  1.0000
  C   C336      1.0  0.87494  0.72594  0.91689  1.0000
  C   C337      1.0  0.90024  0.69365  0.92305  1.0000
  C   C338      1.0  0.88957  0.65228  0.93440  1.0000
  C   C339      1.0  0.85354  0.64244  0.93985  1.0000
  C   C340      1.0  0.82826  0.67482  0.93383  1.0000
  C   C341      1.0  0.83892  0.71617  0.92244  1.0000
  H   H399      1.0  0.92801  0.70046  0.91896  1.0000
  H   H400      1.0  0.92448  0.85331  0.76909  1.0000
  H   H401      1.0  0.80048  0.66792  0.93776  1.0000
  H   H402      1.0  0.81901  0.74066  0.91767  1.0000
  C   C342      1.0  0.82607  0.85861  0.95396  1.0000
  C   C343      1.0  0.92423  0.86313  0.72096  1.0000
  S   S91       1.0  0.77838  0.48907  0.94491  1.0000
  H   H403      1.0  0.61568  0.53609  0.95629  1.0000
  H   H404      1.0  0.91135  0.88004  0.97259  1.0000
  H   H405      1.0  0.88952  0.95757  0.80569  1.0000
  C   C344      1.0  0.94450  0.87071  0.69479  1.0000
  C   C345      1.0  0.97722  0.86345  0.75167  1.0000
  S   S92       1.0  0.73291  0.57398  0.96888  1.0000
  S   S93       1.0  0.96325  0.86242  0.92181  1.0000
  H   H406      1.0  0.84788  0.91693  0.91307  1.0000
  H   H407      1.0  0.83054  0.82970  0.93905  1.0000
  C   C346      1.0  0.56026  0.48915  0.98061  1.0000
  N   N23       1.0  0.85830  0.88629  0.95581  1.0000
  C   C347      1.0  0.94282  0.97760  0.95842  1.0000
  C   C348      1.0  0.90498  0.97488  0.71446  1.0000
  N   N24       1.0  0.56247  0.53688  0.97462  1.0000
  H   H408      1.0  0.55033  0.58240  0.93885  1.0000
  H   H409      1.0  0.94337  0.50254  0.94698  1.0000
  H   H410      1.0  0.86768  0.50631  0.92799  1.0000
  C   C349      1.0  0.93658  0.97768  0.69820  1.0000
  Fe  Fe47      1.0  0.79040  0.55336  0.96793  1.0000
  H   H411      1.0  0.89504  0.83190  0.95404  1.0000
  C   C350      1.0  0.88731  0.85970  0.96888  1.0000
  H   H412      1.0  0.87419  0.86861  0.91074  1.0000
  H   H413      1.0  0.80337  0.87757  0.94486  1.0000
  Fe  Fe48      1.0  0.98024  0.85517  0.83541  1.0000
  H   H414      1.0  0.86168  0.97686  0.94176  1.0000
  S   S94       1.0  0.98947  0.79789  0.86683  1.0000
  H   H415      1.0  0.89387  0.91773  0.92424  1.0000
  C   C351      1.0  0.95954  0.95597  0.80724  1.0000
  H   H416      1.0  0.90886  0.53955  0.95823  1.0000
  C   C352      1.0  0.90485  0.97968  0.74565  1.0000
  C   C353      1.0  0.94041  0.85968  0.74926  1.0000
  C   C354      1.0  0.85433  0.96882  0.96458  1.0000
  H   H417      1.0  0.55744  0.52665  0.92717  1.0000
  H   H418      1.0  0.94629  0.94289  0.95496  1.0000
  C   C355      1.0  0.92153  0.50741  0.96357  1.0000
  C   C356      1.0  0.59947  0.55361  0.97354  1.0000
  H   H419      1.0  0.51686  0.54265  0.94546  1.0000
  C   C357      1.0  0.86899  0.89816  0.92468  1.0000
  H   H420      1.0  0.98744  0.95623  0.79898  1.0000
  S   S95       1.0  0.67582  0.50204  0.91677  1.0000
  H   H421      1.0  0.93661  0.97258  0.67412  1.0000
  H   H422      1.0  0.87979  0.84462  0.99069  1.0000
  H   H423      1.0  0.93285  0.51151  0.98632  1.0000
  H   H424      1.0  0.94899  0.78151  0.68143  1.0000
  C   C358      1.0  0.97218  0.75919  0.68397  1.0000
  H   H425      1.0  0.88060  0.96764  0.70277  1.0000
  H   H426      1.0  0.81785  0.84515  0.97612  1.0000
  H   H427      1.0  0.96062  0.95801  0.83211  1.0000
  H   H428      1.0  0.96179  0.72777  0.69324  1.0000
  H   H429      1.0  0.94833  0.92345  0.80124  1.0000
  H   H430      1.0  0.87949  0.97637  0.75679  1.0000
  C   C359      1.0  0.85127  0.92486  0.97510  1.0000
  H   H431      1.0  0.85657  0.51169  0.98426  1.0000
  C   C360      1.0  0.96832  0.98496  0.71303  1.0000
  H   H432      1.0  0.69199  0.48641  0.82187  1.0000
  S   S96       1.0  0.94013  0.98548  0.89655  1.0000
