data_image0
_chemical_formula_structural       HC2HS2HCHCHC2H2C3HSHC4H2CH5C2H4NHNC2H2C3H3C2HCSCHCHFeCHCHSFeCFeS2H3SC7NHC2S2CH4CH3CH2CH5CH3CHCSCFeH5CHC3HSC2HC3H2SFeS2CFeHC3FeC6HCH2SH3SHSHCHSCNC6HCH11CH5CHCFeH4C2HCS3CHCHC4FeCHCH9CH2FeC2H2SHC3HNC3HC2H4CSHFeS2CSHFeSCFeSH3C2SH3C6H6C6H3SNC4FeCHSCH10SC4HC2H2CH2C3FeHCFeSFeHCH3CH2CNH2FeHS2FeCSH2SFeS3HC6H3NH3C6H6CHC2H8C2H3NFeCFeCSH2C3H7CH2CHC2NHCHSC3NHCSCH2C3HCSFeHSH2SHSFeS2H2SCS3H2C6H4C6H6CH2FeSH5C3SHNC8H8FeCHCFeHCH2C2FeH5CHCFeHCS2HSHFeSH2SFeS2HNC6SH3C6H4FeCH4C2SH2C2H2CHC2H3CH2C2H2C2H4CNHC2HNCHCHNH2C4HCH2C2H2CH2SHC2HFeHSHC2H2FeHSHFeS3CFeC6H4C2H4C4H2C3HSCH2NH3CH2CHC4H2C2HC2H2FeSHSHNH2FeHSCH2CHC2HC3NS3FeS2FeH3C6H2CHCH2CH2CSCFeHCH2CH2CH2CSFeSHS2C2HC2H2NH3CHC6H4NHCH3FeCHCH4C4HC2H2CHCHC2H6C2SNCH5CHSFeS2CFe2SC7H4CHC3HSHCHCSH2C3H3C2SC3H8NSH2C4FeH2SH4FeC2H3C2SHCHCNH3CH2C
_chemical_formula_sum              "H432 C360 S96 N24 Fe48"
_cell_length_a       46.4597
_cell_length_b       31.0381
_cell_length_c       37.8008
_cell_angle_alpha    90.1621
_cell_angle_beta     90.3584
_cell_angle_gamma    90.0945

_space_group_name_H-M_alt    "P 1"
_space_group_IT_number       1

loop_
  _space_group_symop_operation_xyz
  'x, y, z'

loop_
  _atom_site_type_symbol
  _atom_site_label
  _atom_site_symmetry_multiplicity
  _atom_site_fract_x
  _atom_site_fract_y
  _atom_site_fract_z
  _atom_site_occupancy
  H   H1        1.0  0.23935  0.45096  0.41293  1.0000
  C   C1        1.0  0.01194  0.11458  0.23471  1.0000
  C   C2        1.0  0.18868  0.43869  0.47558  1.0000
  H   H2        1.0  0.28734  0.42964  0.41726  1.0000
  S   S1        1.0  0.06219  0.33299  0.45274  1.0000
  S   S2        1.0  0.01784  0.21741  0.46574  1.0000
  H   H3        1.0  0.99282  0.33565  0.39578  1.0000
  C   C3        1.0  0.03323  0.08170  0.23591  1.0000
  H   H4        1.0  0.19805  0.33125  0.44174  1.0000
  C   C4        1.0  0.01124  0.05140  0.18189  1.0000
  H   H5        1.0  0.03386  0.06063  0.04997  1.0000
  C   C5        1.0  0.01296  0.05478  0.06167  1.0000
  C   C6        1.0  0.99528  0.08939  0.07029  1.0000
  H   H6        1.0  0.97989  0.08794  0.40562  1.0000
  H   H7        1.0  0.18807  0.43811  0.41893  1.0000
  C   C7        1.0  0.98948  0.11934  0.40175  1.0000
  C   C8        1.0  0.99140  0.11597  0.20749  1.0000
  C   C9        1.0  0.04724  0.04312  0.28856  1.0000
  H   H8        1.0  0.24872  0.33095  0.46344  1.0000
  S   S3        1.0  0.01503  0.44003  0.46575  1.0000
  H   H9        1.0  0.04655  0.01161  0.27454  1.0000
  C   C10       1.0  0.99386  0.13458  0.36740  1.0000
  C   C11       1.0  0.00631  0.17573  0.36317  1.0000
  C   C12       1.0  0.01438  0.20119  0.39274  1.0000
  C   C13       1.0  0.00970  0.18610  0.42712  1.0000
  H   H10       1.0  0.00128  0.29663  0.42870  1.0000
  H   H11       1.0  0.07492  0.11706  0.30628  1.0000
  C   C14       1.0  0.00336  0.01246  0.06634  1.0000
  H   H12       1.0  0.02404  0.23255  0.38893  1.0000
  H   H13       1.0  0.01013  0.13891  0.25505  1.0000
  H   H14       1.0  0.00243  0.12213  0.06560  1.0000
  H   H15       1.0  0.08576  0.03755  0.23807  1.0000
  H   H16       1.0  0.06157  0.14758  0.26930  1.0000
  C   C15       1.0  0.08403  0.07031  0.24978  1.0000
  C   C16       1.0  0.29173  0.46058  0.43134  1.0000
  H   H17       1.0  0.10116  0.07186  0.27050  1.0000
  H   H18       1.0  0.00973  0.18808  0.33681  1.0000
  H   H19       1.0  0.04589  0.02197  0.20943  1.0000
  H   H20       1.0  0.01043  0.02626  0.16194  1.0000
  N   N1        1.0  0.05505  0.07892  0.26463  1.0000
  H   H21       1.0  0.99336  0.13298  0.45768  1.0000
  N   N2        1.0  0.28044  0.45958  0.46805  1.0000
  C   C17       1.0  0.03180  0.04961  0.20904  1.0000
  C   C18       1.0  0.20236  0.33259  0.46987  1.0000
  H   H22       1.0  0.06264  0.04006  0.31107  1.0000
  H   H23       1.0  0.03754  0.12496  0.30175  1.0000
  C   C19       1.0  0.05735  0.11897  0.28617  1.0000
  C   C20       1.0  0.99715  0.14507  0.43129  1.0000
  C   C21       1.0  0.20133  0.44220  0.44242  1.0000
  H   H24       1.0  0.16588  0.43149  0.47773  1.0000
  H   H25       1.0  0.02551  0.04824  0.30002  1.0000
  H   H26       1.0  0.08945  0.09424  0.22895  1.0000
  C   C22       1.0  0.97549  0.00363  0.07995  1.0000
  C   C23       1.0  0.99116  0.08462  0.18105  1.0000
  H   H27       1.0  0.99493  0.35121  0.44182  1.0000
  C   C24       1.0  0.23098  0.44932  0.43943  1.0000
  S   S4        1.0  0.98383  0.10431  0.32885  1.0000
  C   C25       1.0  0.24889  0.45292  0.46999  1.0000
  H   H28       1.0  0.97511  0.14096  0.20739  1.0000
  C   C26       1.0  0.98769  0.32544  0.42321  1.0000
  H   H29       1.0  0.28827  0.39225  0.47634  1.0000
  Fe  Fe1       1.0  0.04060  0.28012  0.48356  1.0000
  C   C27       1.0  0.98002  0.45906  0.47649  1.0000
  H   H30       1.0  0.01782  0.98735  0.05777  1.0000
  C   C28       1.0  0.23124  0.33256  0.48212  1.0000
  H   H31       1.0  0.97487  0.08549  0.16044  1.0000
  S   S5        1.0  0.14306  0.33754  0.47603  1.0000
  Fe  Fe2       1.0  0.03730  0.37964  0.48682  1.0000
  C   C29       1.0  0.29543  0.42416  0.48672  1.0000
  Fe  Fe3       1.0  0.04973  0.33011  0.55394  1.0000
  S   S6        1.0  0.07261  0.38537  0.52771  1.0000
  S   S7        1.0  0.03242  0.32583  0.61006  1.0000
  H   H32       1.0  0.01355  0.40433  0.55906  1.0000
  H   H33       1.0  0.06589  0.40492  0.62101  1.0000
  H   H34       1.0  0.99364  0.34029  0.66725  1.0000
  S   S8        1.0  0.27335  0.33682  0.53577  1.0000
  C   C30       1.0  0.23732  0.33487  0.51841  1.0000
  C   C31       1.0  0.02978  0.36896  0.64067  1.0000
  C   C32       1.0  0.00872  0.36689  0.66715  1.0000
  C   C33       1.0  0.00762  0.39812  0.69417  1.0000
  C   C34       1.0  0.02800  0.43130  0.69547  1.0000
  C   C35       1.0  0.04872  0.43389  0.66860  1.0000
  C   C36       1.0  0.04946  0.40311  0.64111  1.0000
  N   N3        1.0  0.02250  0.32241  0.79411  1.0000
  H   H35       1.0  0.00389  0.38048  0.81498  1.0000
  C   C37       1.0  0.05062  0.32362  0.73744  1.0000
  C   C38       1.0  0.00193  0.29592  0.81482  1.0000
  S   S9        1.0  0.01363  0.32708  0.51443  1.0000
  S   S10       1.0  0.07541  0.27876  0.52562  1.0000
  C   C39       1.0  0.04368  0.27017  0.69147  1.0000
  H   H36       1.0  0.00371  0.04367  0.98605  1.0000
  H   H37       1.0  0.21830  0.33863  0.57022  1.0000
  H   H38       1.0  0.06063  0.29601  0.81815  1.0000
  H   H39       1.0  0.97450  0.40267  0.60055  1.0000
  C   C40       1.0  0.01553  0.26662  0.74513  1.0000
  H   H40       1.0  0.28282  0.03710  0.91401  1.0000
  H   H41       1.0  0.24744  0.45054  0.52775  1.0000
  H   H42       1.0  0.01019  0.26275  0.81927  1.0000
  C   C41       1.0  0.18512  0.33662  0.52985  1.0000
  H   H43       1.0  0.07333  0.32294  0.68780  1.0000
  H   H44       1.0  0.06422  0.35128  0.80454  1.0000
  C   C42       1.0  0.02260  0.25025  0.71175  1.0000
  H   H45       1.0  0.98038  0.29417  0.80174  1.0000
  H   H46       1.0  0.03632  0.47276  0.54155  1.0000
  H   H47       1.0  0.04418  0.33893  0.84303  1.0000
  H   H48       1.0  0.98905  0.36309  0.77356  1.0000
  H   H49       1.0  0.99153  0.39566  0.71451  1.0000
  C   C43       1.0  0.05774  0.30665  0.70435  1.0000
  H   H50       1.0  0.16760  0.33842  0.54849  1.0000
  H   H51       1.0  0.06454  0.45950  0.66930  1.0000
  H   H52       1.0  0.02389  0.38829  0.77522  1.0000
  C   C44       1.0  0.21400  0.33685  0.54209  1.0000
  H   H53       1.0  0.19577  0.43779  0.53167  1.0000
  C   C45       1.0  0.02955  0.30380  0.75911  1.0000
  S   S11       1.0  0.99337  0.47062  0.82833  1.0000
  C   C46       1.0  0.04907  0.32728  0.81580  1.0000
  Fe  Fe4       1.0  0.09613  0.33417  0.49633  1.0000
  H   H54       1.0  0.29129  0.42405  0.51565  1.0000
  H   H55       1.0  0.99875  0.24991  0.75920  1.0000
  H   H56       1.0  0.04857  0.25817  0.66519  1.0000
  H   H57       1.0  0.06119  0.35320  0.74540  1.0000
  H   H58       1.0  0.26913  0.98725  0.95625  1.0000
  C   C47       1.0  0.00940  0.36544  0.78915  1.0000
  H   H59       1.0  0.99778  0.31027  0.84139  1.0000
  C   C48       1.0  0.17903  0.33471  0.49354  1.0000
  C   C49       1.0  0.23521  0.44933  0.50336  1.0000
  C   C50       1.0  0.00588  0.43434  0.57014  1.0000
  H   H60       1.0  0.01139  0.22231  0.70122  1.0000
  S   S12       1.0  0.02902  0.46893  0.73091  1.0000
  C   C51       1.0  0.98322  0.43395  0.59423  1.0000
  C   C52       1.0  0.01892  0.47291  0.56055  1.0000
  H   H61       1.0  0.30346  0.10427  0.89355  1.0000
  C   C53       1.0  0.98692  0.02045  0.98041  1.0000
  C   C54       1.0  0.20558  0.44228  0.50597  1.0000
  C   C55       1.0  0.30583  0.04086  0.91671  1.0000
  H   H62       1.0  0.97681  0.47708  0.67982  1.0000
  H   H63       1.0  0.98704  0.52005  0.45092  1.0000
  S   S13       1.0  0.07074  0.78006  0.02510  1.0000
  Fe  Fe5       1.0  0.03947  0.82684  0.04967  1.0000
  S   S14       1.0  0.01448  0.81871  0.10097  1.0000
  S   S15       1.0  0.06925  0.88273  0.04330  1.0000
  C   C56       1.0  0.20608  0.81989  0.03930  1.0000
  Fe  Fe6       1.0  0.09935  0.83752  0.01469  1.0000
  H   H64       1.0  0.03904  0.80443  0.21761  1.0000
  C   C57       1.0  0.98345  0.92548  0.06986  1.0000
  C   C58       1.0  0.18332  0.83330  0.01703  1.0000
  C   C59       1.0  0.23521  0.82377  0.02887  1.0000
  Fe  Fe7       1.0  0.98808  0.95685  0.27234  1.0000
  C   C60       1.0  0.01557  0.85595  0.13668  1.0000
  C   C61       1.0  0.99568  0.85183  0.16434  1.0000
  C   C62       1.0  0.99747  0.87851  0.19452  1.0000
  C   C63       1.0  0.01971  0.90880  0.19771  1.0000
  C   C64       1.0  0.03905  0.91381  0.16959  1.0000
  C   C65       1.0  0.03668  0.88804  0.13898  1.0000
  H   H65       1.0  0.98081  0.95389  0.13738  1.0000
  C   C66       1.0  0.07277  0.84440  0.23873  1.0000
  H   H66       1.0  0.05631  0.93709  0.17182  1.0000
  H   H67       1.0  0.05172  0.89207  0.11767  1.0000
  S   S16       1.0  0.14688  0.82673  0.03185  1.0000
  H   H68       1.0  0.13421  0.87164  0.19685  1.0000
  H   H69       1.0  0.27695  0.52840  0.47265  1.0000
  H   H70       1.0  0.20119  0.80621  0.06484  1.0000
  S   S17       1.0  0.98970  0.97209  0.33092  1.0000
  H   H71       1.0  0.98935  0.60203  0.46259  1.0000
  S   S18       1.0  0.02578  0.93756  0.23763  1.0000
  H   H72       1.0  0.06215  0.79214  0.16149  1.0000
  C   C67       1.0  0.06012  0.81832  0.21295  1.0000
  H   H73       1.0  0.00466  0.92514  0.08354  1.0000
  S   S19       1.0  0.01503  0.83617  0.99855  1.0000
  C   C68       1.0  0.28831  0.50091  0.48537  1.0000
  N   N4        1.0  0.11546  0.82623  0.13857  1.0000
  C   C69       1.0  0.12157  0.86930  0.12325  1.0000
  C   C70       1.0  0.14309  0.80315  0.14365  1.0000
  C   C71       1.0  0.09826  0.80165  0.11209  1.0000
  C   C72       1.0  0.10079  0.83115  0.17304  1.0000
  C   C73       1.0  0.07378  0.81161  0.18055  1.0000
  C   C74       1.0  0.11351  0.85641  0.20038  1.0000
  H   H74       1.0  0.25229  0.81315  0.04636  1.0000
  C   C75       1.0  0.09952  0.86313  0.23258  1.0000
  H   H75       1.0  0.10920  0.88349  0.25276  1.0000
  H   H76       1.0  0.13756  0.88793  0.13898  1.0000
  H   H77       1.0  0.13064  0.86683  0.09611  1.0000
  H   H78       1.0  0.10165  0.88895  0.12132  1.0000
  H   H79       1.0  0.15816  0.82105  0.16131  1.0000
  H   H80       1.0  0.15446  0.79843  0.11799  1.0000
  H   H81       1.0  0.13949  0.77080  0.15553  1.0000
  H   H82       1.0  0.07731  0.81767  0.10651  1.0000
  H   H83       1.0  0.10964  0.79892  0.08640  1.0000
  H   H84       1.0  0.09399  0.76807  0.12086  1.0000
  H   H85       1.0  0.98862  0.75253  0.46719  1.0000
  C   C76       1.0  0.24217  0.84119  0.99586  1.0000
  H   H86       1.0  0.06151  0.85079  0.26324  1.0000
  H   H87       1.0  0.97901  0.67801  0.45622  1.0000
  H   H88       1.0  0.22694  0.73115  0.00456  1.0000
  H   H89       1.0  0.97923  0.82718  0.16278  1.0000
  H   H90       1.0  0.98255  0.87415  0.21608  1.0000
  C   C77       1.0  0.97702  0.66457  0.48239  1.0000
  H   H91       1.0  0.98714  0.93006  0.04104  1.0000
  C   C78       1.0  0.98304  0.62058  0.48562  1.0000
  Fe  Fe8       1.0  0.04566  0.89140  0.99155  1.0000
  H   H92       1.0  0.17510  0.72517  0.00010  1.0000
  H   H93       1.0  0.97432  0.89251  0.07308  1.0000
  H   H94       1.0  0.28239  0.48768  0.41590  1.0000
  H   H95       1.0  0.12899  0.74844  0.99359  1.0000
  C   C79       1.0  0.18656  0.73220  0.97605  1.0000
  C   C80       1.0  0.18988  0.74987  0.91383  1.0000
  H   H96       1.0  0.97725  0.91346  0.96515  1.0000
  C   C81       1.0  0.99407  0.97666  0.97659  1.0000
  S   S20       1.0  0.27859  0.84656  0.98067  1.0000
  S   S21       1.0  0.04936  0.74303  0.92861  1.0000
  S   S22       1.0  0.07854  0.85158  0.96196  1.0000
  C   C82       1.0  0.17228  0.73926  0.94317  1.0000
  H   H97       1.0  0.10158  0.72310  0.96777  1.0000
  C   C83       1.0  0.98319  0.65537  0.91720  1.0000
  H   H98       1.0  0.13879  0.79180  0.90328  1.0000
  C   C84       1.0  0.02650  0.69989  0.91375  1.0000
  C   C85       1.0  0.03515  0.67470  0.88456  1.0000
  C   C86       1.0  0.01805  0.64008  0.87184  1.0000
  C   C87       1.0  0.12977  0.78054  0.92876  1.0000
  Fe  Fe9       1.0  0.04919  0.79461  0.97291  1.0000
  C   C88       1.0  0.00031  0.68993  0.92996  1.0000
  H   H99       1.0  0.05524  0.68200  0.87160  1.0000
  C   C89       1.0  0.21651  0.73559  0.97908  1.0000
  H   H100      1.0  0.98011  0.54222  0.61016  1.0000
  H   H101      1.0  0.99323  0.70878  0.95238  1.0000
  H   H102      1.0  0.02004  0.54135  0.56821  1.0000
  H   H103      1.0  0.27373  0.96379  0.91252  1.0000
  H   H104      1.0  0.13216  0.69219  0.98106  1.0000
  H   H105      1.0  0.10595  0.78041  0.92524  1.0000
  H   H106      1.0  0.10850  0.70269  0.90866  1.0000
  H   H107      1.0  0.28275  0.50120  0.51393  1.0000
  H   H108      1.0  0.18055  0.75629  0.88814  1.0000
  C   C90       1.0  0.97588  0.76117  0.53593  1.0000
  H   H109      1.0  0.23274  0.76277  0.89477  1.0000
  H   H110      1.0  0.27288  0.93055  0.95083  1.0000
  Fe  Fe10      1.0  0.99186  0.47879  0.76897  1.0000
  C   C91       1.0  0.99191  0.63003  0.88816  1.0000
  C   C92       1.0  0.13240  0.70594  0.91113  1.0000
  H   H111      1.0  0.99948  0.75601  0.53323  1.0000
  H   H112      1.0  0.14006  0.71560  0.88454  1.0000
  S   S23       1.0  0.03060  0.96037  0.98207  1.0000
  H   H113      1.0  0.02512  0.62116  0.84947  1.0000
  C   C93       1.0  0.21978  0.75361  0.91729  1.0000
  C   C94       1.0  0.12536  0.72466  0.97191  1.0000
  C   C95       1.0  0.98680  0.51157  0.59946  1.0000
  H   H114      1.0  0.25616  0.75075  0.95280  1.0000
  N   N5        1.0  0.14056  0.73744  0.93909  1.0000
  C   C96       1.0  0.28064  0.96219  0.94072  1.0000
  C   C97       1.0  0.00956  0.51147  0.57541  1.0000
  C   C98       1.0  0.19027  0.85089  0.98407  1.0000
  H   H115      1.0  0.13530  0.80509  0.94929  1.0000
  C   C99       1.0  0.21940  0.85479  0.97366  1.0000
  C   C100      1.0  0.23305  0.74659  0.94988  1.0000
  H   H116      1.0  0.14124  0.67344  0.91709  1.0000
  H   H117      1.0  0.17325  0.86162  0.96659  1.0000
  H   H118      1.0  0.98353  0.56552  0.51997  1.0000
  H   H119      1.0  0.22432  0.86822  0.94803  1.0000
  C   C101      1.0  0.97991  0.59993  0.51803  1.0000
  S   S24       1.0  0.56834  0.19290  0.01650  1.0000
  H   H120      1.0  0.56867  0.06881  0.25743  1.0000
  Fe  Fe11      1.0  0.54645  0.14332  0.05128  1.0000
  S   S25       1.0  0.52975  0.15284  0.10731  1.0000
  S   S26       1.0  0.57742  0.09066  0.03724  1.0000
  C   C102      1.0  0.47111  0.44918  0.46235  1.0000
  S   S27       1.0  0.45235  0.03327  0.26121  1.0000
  H   H121      1.0  0.52509  0.19459  0.32507  1.0000
  Fe  Fe12      1.0  0.45502  0.03418  0.32102  1.0000
  S   S28       1.0  0.45609  0.09730  0.35394  1.0000
  C   C103      1.0  0.44339  0.09078  0.12917  1.0000
  Fe  Fe13      1.0  0.49251  0.99372  0.26291  1.0000
  S   S29       1.0  0.33748  0.33627  0.45978  1.0000
  H   H122      1.0  0.40096  0.02547  0.17851  1.0000
  H   H123      1.0  0.48826  0.42582  0.46005  1.0000
  H   H124      1.0  0.45918  0.06607  0.43664  1.0000
  C   C104      1.0  0.41731  0.03507  0.15969  1.0000
  C   C105      1.0  0.46852  0.11411  0.47634  1.0000
  S   S30       1.0  0.38327  0.44773  0.46502  1.0000
  H   H125      1.0  0.56185  0.07235  0.11351  1.0000
  H   H126      1.0  0.63536  0.98227  0.03285  1.0000
  H   H127      1.0  0.52837  0.09739  0.29084  1.0000
  C   C106      1.0  0.39409  0.18699  0.41602  1.0000
  C   C107      1.0  0.38334  0.15080  0.39752  1.0000
  C   C108      1.0  0.40176  0.12332  0.37811  1.0000
  C   C109      1.0  0.43138  0.13145  0.37705  1.0000
  C   C110      1.0  0.44213  0.16778  0.39541  1.0000
  C   C111      1.0  0.42370  0.19535  0.41470  1.0000
  H   H128      1.0  0.36052  0.14386  0.39828  1.0000
  H   H129      1.0  0.39301  0.09566  0.36426  1.0000
  H   H130      1.0  0.46499  0.17430  0.39525  1.0000
  H   H131      1.0  0.43244  0.22282  0.42878  1.0000
  H   H132      1.0  0.52817  0.21000  0.22230  1.0000
  H   H133      1.0  0.44746  0.12467  0.12429  1.0000
  C   C112      1.0  0.52787  0.10913  0.13736  1.0000
  C   C113      1.0  0.50823  0.11074  0.16546  1.0000
  C   C114      1.0  0.50695  0.07726  0.19053  1.0000
  C   C115      1.0  0.52606  0.04256  0.18847  1.0000
  C   C116      1.0  0.54565  0.04090  0.16032  1.0000
  C   C117      1.0  0.54636  0.07375  0.13468  1.0000
  H   H134      1.0  0.49401  0.13811  0.16794  1.0000
  H   H135      1.0  0.49187  0.07901  0.21205  1.0000
  H   H136      1.0  0.40667  0.06984  0.44502  1.0000
  S   S31       1.0  0.36960  0.21942  0.44107  1.0000
  N   N6        1.0  0.49926  0.17358  0.28072  1.0000
  C   C118      1.0  0.49009  0.21756  0.27015  1.0000
  C   C119      1.0  0.47464  0.14413  0.27440  1.0000
  C   C120      1.0  0.50565  0.17475  0.31927  1.0000
  C   C121      1.0  0.52457  0.15748  0.26106  1.0000
  Fe  Fe14      1.0  0.36753  0.28164  0.47480  1.0000
  C   C122      1.0  0.53660  0.17977  0.23178  1.0000
  H   H137      1.0  0.40983  0.10281  0.16693  1.0000
  S   S32       1.0  0.49722  0.99766  0.32240  1.0000
  C   C123      1.0  0.53707  0.11716  0.26993  1.0000
  H   H138      1.0  0.48270  0.21842  0.24207  1.0000
  H   H139      1.0  0.47155  0.22903  0.28622  1.0000
  H   H140      1.0  0.50783  0.24133  0.27393  1.0000
  H   H141      1.0  0.46933  0.14155  0.24572  1.0000
  H   H142      1.0  0.45496  0.15480  0.28871  1.0000
  H   H143      1.0  0.47929  0.11111  0.28405  1.0000
  H   H144      1.0  0.48730  0.18814  0.33462  1.0000
  H   H145      1.0  0.50927  0.14211  0.33050  1.0000
  H   H146      1.0  0.56776  0.17913  0.18967  1.0000
  H   H147      1.0  0.56062  0.01434  0.15860  1.0000
  S   S33       1.0  0.52735  0.00191  0.22137  1.0000
  C   C124      1.0  0.56026  0.10045  0.25098  1.0000
  C   C125      1.0  0.42230  0.07857  0.15321  1.0000
  C   C126      1.0  0.41985  0.46471  0.46554  1.0000
  C   C127      1.0  0.44234  0.43492  0.46352  1.0000
  H   H148      1.0  0.43754  0.40088  0.46184  1.0000
  C   C128      1.0  0.55967  0.16253  0.21281  1.0000
  C   C129      1.0  0.45981  0.05960  0.11177  1.0000
  H   H149      1.0  0.49154  0.11287  0.47198  1.0000
  H   H150      1.0  0.58861  0.10903  0.20683  1.0000
  C   C130      1.0  0.57145  0.12299  0.22239  1.0000
  H   H151      1.0  0.38581  0.11957  0.48697  1.0000
  H   H152      1.0  0.47612  0.07155  0.09402  1.0000
  C   C131      1.0  0.45537  0.01487  0.11796  1.0000
  C   C132      1.0  0.43344  0.00365  0.14225  1.0000
  C   C133      1.0  0.45038  0.08750  0.45655  1.0000
  Fe  Fe15      1.0  0.37171  0.38008  0.48327  1.0000
  H   H153      1.0  0.31560  0.46501  0.43102  1.0000
  C   C134      1.0  0.42074  0.08962  0.46136  1.0000
  Fe  Fe16      1.0  0.59700  0.13795  0.99900  1.0000
  S   S34       1.0  0.51319  0.12621  0.01005  1.0000
  Fe  Fe17      1.0  0.54469  0.07507  0.99480  1.0000
  H   H154      1.0  0.60153  0.00308  0.01851  1.0000
  C   C135      1.0  0.40901  0.11845  0.48583  1.0000
  H   H155      1.0  0.63170  0.03895  0.02494  1.0000
  H   H156      1.0  0.31142  0.98914  0.99836  1.0000
  H   H157      1.0  0.51099  0.01815  0.09177  1.0000
  C   C136      1.0  0.62528  0.00642  0.01508  1.0000
  H   H158      1.0  0.48596  0.01736  0.05490  1.0000
  H   H159      1.0  0.31922  0.42641  0.48373  1.0000
  C   C137      1.0  0.49524  0.99790  0.07688  1.0000
  N   N7        1.0  0.47245  0.98077  0.10044  1.0000
  H   H160      1.0  0.42897  0.42718  0.57692  1.0000
  H   H161      1.0  0.35587  0.11771  0.89787  1.0000
  Fe  Fe18      1.0  0.31998  0.33155  0.51518  1.0000
  H   H162      1.0  0.38802  0.06214  0.92331  1.0000
  S   S35       1.0  0.51654  0.21064  0.92873  1.0000
  S   S36       1.0  0.56661  0.11777  0.95516  1.0000
  Fe  Fe19      1.0  0.48359  0.44006  0.82545  1.0000
  C   C138      1.0  0.42694  0.14573  0.50682  1.0000
  S   S37       1.0  0.50320  0.40609  0.87433  1.0000
  H   H163      1.0  0.36197  0.42192  0.67341  1.0000
  H   H164      1.0  0.36856  0.99415  0.94433  1.0000
  S   S38       1.0  0.48208  0.42203  0.76748  1.0000
  Fe  Fe20      1.0  0.38152  0.32366  0.54709  1.0000
  S   S39       1.0  0.35222  0.37927  0.53744  1.0000
  S   S40       1.0  0.41176  0.31915  0.59460  1.0000
  S   S41       1.0  0.34830  0.27505  0.52939  1.0000
  H   H165      1.0  0.47199  0.16332  0.51537  1.0000
  C   C139      1.0  0.40386  0.40514  0.69396  1.0000
  C   C140      1.0  0.42880  0.38112  0.68770  1.0000
  C   C141      1.0  0.43087  0.35500  0.65722  1.0000
  C   C142      1.0  0.40835  0.35328  0.63222  1.0000
  C   C143      1.0  0.38371  0.37816  0.63801  1.0000
  C   C144      1.0  0.38138  0.40358  0.66888  1.0000
  H   H166      1.0  0.44626  0.38186  0.70673  1.0000
  H   H167      1.0  0.44999  0.33582  0.65313  1.0000
  H   H168      1.0  0.36610  0.37698  0.61917  1.0000
  N   N8        1.0  0.60601  0.24171  0.90532  1.0000
  H   H169      1.0  0.58991  0.38387  0.86968  1.0000
  H   H170      1.0  0.37672  0.14111  0.54522  1.0000
  H   H171      1.0  0.43225  0.47023  0.54546  1.0000
  C   C145      1.0  0.51222  0.26555  0.91504  1.0000
  C   C146      1.0  0.52367  0.30041  0.93412  1.0000
  C   C147      1.0  0.52049  0.34296  0.92134  1.0000
  C   C148      1.0  0.50565  0.35155  0.88947  1.0000
  C   C149      1.0  0.49377  0.31680  0.87071  1.0000
  C   C150      1.0  0.49710  0.27422  0.88338  1.0000
  H   H172      1.0  0.53489  0.29470  0.95879  1.0000
  H   H173      1.0  0.52972  0.36942  0.93624  1.0000
  H   H174      1.0  0.48224  0.32263  0.84624  1.0000
  H   H175      1.0  0.48800  0.24771  0.86839  1.0000
  H   H176      1.0  0.50141  0.44038  0.61629  1.0000
  H   H177      1.0  0.60916  0.17306  0.91385  1.0000
  C   C151      1.0  0.48398  0.42745  0.59881  1.0000
  H   H178      1.0  0.56334  0.23064  0.85230  1.0000
  C   C152      1.0  0.49802  0.98395  0.98462  1.0000
  C   C153      1.0  0.59826  0.24958  0.94275  1.0000
  H   H179      1.0  0.49477  0.45197  0.94375  1.0000
  H   H180      1.0  0.62017  0.06498  0.96425  1.0000
  H   H181      1.0  0.60465  0.28217  0.95208  1.0000
  H   H182      1.0  0.54122  0.28598  0.81644  1.0000
  H   H183      1.0  0.42472  0.13504  0.57700  1.0000
  H   H184      1.0  0.60309  0.18831  0.86878  1.0000
  H   H185      1.0  0.41354  0.24560  0.54062  1.0000
  H   H186      1.0  0.62059  0.02759  0.92739  1.0000
  C   C154      1.0  0.57076  0.26325  0.85646  1.0000
  C   C155      1.0  0.55773  0.29488  0.83553  1.0000
  H   H187      1.0  0.57460  0.24645  0.94652  1.0000
  H   H188      1.0  0.37217  0.18280  0.51222  1.0000
  H   H189      1.0  0.49370  0.40370  0.58029  1.0000
  N   N9        1.0  0.63373  0.00068  0.97758  1.0000
  Fe  Fe21      1.0  0.53751  0.17126  0.97376  1.0000
  C   C156      1.0  0.42246  0.22121  0.52196  1.0000
  Fe  Fe22      1.0  0.43903  0.45499  0.76616  1.0000
  C   C157      1.0  0.59178  0.27421  0.88252  1.0000
  S   S42       1.0  0.39988  0.43699  0.73284  1.0000
  H   H190      1.0  0.45204  0.17479  0.56877  1.0000
  H   H191      1.0  0.59261  0.02511  0.95951  1.0000
  C   C158      1.0  0.36501  0.05627  0.92149  1.0000
  C   C159      1.0  0.42847  0.16884  0.56837  1.0000
  C   C160      1.0  0.59773  0.19664  0.89660  1.0000
  H   H192      1.0  0.46560  0.47323  0.96803  1.0000
  H   H193      1.0  0.44601  0.22714  0.52082  1.0000
  H   H194      1.0  0.37571  0.19664  0.55782  1.0000
  H   H195      1.0  0.45147  0.42067  0.53936  1.0000
  H   H196      1.0  0.41349  0.22804  0.49517  1.0000
  H   H197      1.0  0.43212  0.45013  0.63482  1.0000
  H   H198      1.0  0.46905  0.40878  0.61581  1.0000
  C   C161      1.0  0.44441  0.44450  0.55959  1.0000
  H   H199      1.0  0.60892  0.22609  0.96076  1.0000
  H   H200      1.0  0.57428  0.19109  0.90079  1.0000
  C   C162      1.0  0.59844  0.31866  0.88653  1.0000
  H   H201      1.0  0.49724  0.45564  0.53439  1.0000
  C   C163      1.0  0.61615  0.03097  0.95615  1.0000
  C   C164      1.0  0.38364  0.17396  0.53717  1.0000
  N   N10       1.0  0.41538  0.17669  0.53304  1.0000
  H   H202      1.0  0.41933  0.19075  0.58888  1.0000
  C   C165      1.0  0.35364  0.01729  0.93349  1.0000
  H   H203      1.0  0.46816  0.47789  0.89227  1.0000
  S   S43       1.0  0.40288  0.32632  0.49374  1.0000
  C   C166      1.0  0.45707  0.14284  0.50111  1.0000
  C   C167      1.0  0.34694  0.08751  0.90717  1.0000
  C   C168      1.0  0.32372  0.00827  0.93151  1.0000
  N   N11       1.0  0.46918  0.46279  0.57961  1.0000
  H   H204      1.0  0.55378  0.36264  0.82477  1.0000
  C   C169      1.0  0.56476  0.33815  0.84020  1.0000
  S   S44       1.0  0.43860  0.46816  0.82515  1.0000
  C   C170      1.0  0.44720  0.99441  0.97088  1.0000
  H   H205      1.0  0.42989  0.01574  0.96317  1.0000
  H   H206      1.0  0.47913  0.04530  0.97197  1.0000
  C   C171      1.0  0.47516  0.01129  0.97585  1.0000
  C   C172      1.0  0.31743  0.07983  0.90478  1.0000
  C   C173      1.0  0.58503  0.35003  0.86569  1.0000
  H   H207      1.0  0.61370  0.32958  0.90628  1.0000
  C   C174      1.0  0.63777  0.24490  0.90187  1.0000
  S   S45       1.0  0.53392  0.00351  0.98948  1.0000
  Fe  Fe23      1.0  0.47078  0.93650  0.32452  1.0000
  H   H208      1.0  0.60496  0.68474  0.43720  1.0000
  S   S46       1.0  0.47146  0.87960  0.36402  1.0000
  H   H209      1.0  0.63263  0.64747  0.42674  1.0000
  H   H210      1.0  0.61191  0.71944  0.37825  1.0000
  S   S47       1.0  0.47001  0.92952  0.26509  1.0000
  H   H211      1.0  0.61023  0.76024  0.43128  1.0000
  S   S48       1.0  0.34396  0.77106  0.02447  1.0000
  Fe  Fe24      1.0  0.37532  0.81660  0.05148  1.0000
  S   S49       1.0  0.39323  0.81230  0.10765  1.0000
  S   S50       1.0  0.35443  0.87542  0.02869  1.0000
  H   H212      1.0  0.50124  0.92928  0.11558  1.0000
  H   H213      1.0  0.44154  0.97253  0.05825  1.0000
  S   S51       1.0  0.42867  0.97337  0.32581  1.0000
  C   C175      1.0  0.62863  0.67989  0.43826  1.0000
  S   S52       1.0  0.55189  0.72619  0.42277  1.0000
  S   S53       1.0  0.56880  0.60742  0.44228  1.0000
  S   S54       1.0  0.40882  0.80975  0.00901  1.0000
  H   H214      1.0  0.36274  0.75823  0.17113  1.0000
  H   H215      1.0  0.34843  0.82807  0.19680  1.0000
  C   C176      1.0  0.49428  0.83703  0.37964  1.0000
  C   C177      1.0  0.48377  0.80871  0.40569  1.0000
  C   C178      1.0  0.50085  0.77463  0.41909  1.0000
  C   C179      1.0  0.52885  0.76823  0.40662  1.0000
  C   C180      1.0  0.53928  0.79637  0.38037  1.0000
  C   C181      1.0  0.52219  0.83043  0.36694  1.0000
  H   H216      1.0  0.46230  0.81337  0.41588  1.0000
  H   H217      1.0  0.49240  0.75351  0.43924  1.0000
  H   H218      1.0  0.56082  0.79190  0.37037  1.0000
  H   H219      1.0  0.53070  0.85172  0.34695  1.0000
  C   C182      1.0  0.39492  0.91836  0.19282  1.0000
  C   C183      1.0  0.41777  0.88933  0.18968  1.0000
  C   C184      1.0  0.41757  0.85806  0.16258  1.0000
  C   C185      1.0  0.39507  0.85641  0.13755  1.0000
  C   C186      1.0  0.37310  0.88710  0.13941  1.0000
  C   C187      1.0  0.37286  0.91754  0.16719  1.0000
  H   H220      1.0  0.43496  0.88968  0.20897  1.0000
  H   H221      1.0  0.43451  0.83423  0.16155  1.0000
  H   H222      1.0  0.35551  0.88596  0.12053  1.0000
  H   H223      1.0  0.35513  0.93996  0.16927  1.0000
  H   H224      1.0  0.40026  0.71431  0.20038  1.0000
  H   H225      1.0  0.31195  0.50711  0.48390  1.0000
  C   C188      1.0  0.63400  0.75634  0.43442  1.0000
  H   H226      1.0  0.37184  0.85622  0.24918  1.0000
  H   H227      1.0  0.43661  0.93630  0.09470  1.0000
  Fe  Fe25      1.0  0.42998  0.96933  0.26610  1.0000
  S   S55       1.0  0.39225  0.95426  0.22933  1.0000
  H   H228      1.0  0.42458  0.74042  0.25387  1.0000
  H   H229      1.0  0.50980  0.91831  0.99631  1.0000
  H   H230      1.0  0.46194  0.53304  0.00034  1.0000
  H   H231      1.0  0.44622  0.60104  0.02540  1.0000
  H   H232      1.0  0.46528  0.92760  0.06438  1.0000
  C   C189      1.0  0.36465  0.80876  0.21006  1.0000
  C   C190      1.0  0.45313  0.95316  0.07862  1.0000
  C   C191      1.0  0.45547  0.52318  0.46676  1.0000
  S   S56       1.0  0.51470  0.50889  0.46246  1.0000
  H   H233      1.0  0.41197  0.88579  0.27649  1.0000
  N   N12       1.0  0.41774  0.81820  0.28760  1.0000
  C   C192      1.0  0.41410  0.78974  0.31870  1.0000
  C   C193      1.0  0.44877  0.81977  0.27846  1.0000
  C   C194      1.0  0.40893  0.86231  0.29835  1.0000
  C   C195      1.0  0.40106  0.80114  0.25709  1.0000
  C   C196      1.0  0.40790  0.76028  0.24239  1.0000
  C   C197      1.0  0.37851  0.82465  0.24035  1.0000
  C   C198      1.0  0.39402  0.74489  0.21192  1.0000
  C   C199      1.0  0.37267  0.76933  0.19557  1.0000
  H   H234      1.0  0.42225  0.75664  0.31384  1.0000
  H   H235      1.0  0.42622  0.80232  0.34220  1.0000
  H   H236      1.0  0.39102  0.78711  0.32615  1.0000
  H   H237      1.0  0.45826  0.78725  0.27499  1.0000
  H   H238      1.0  0.46183  0.83571  0.29956  1.0000
  H   H239      1.0  0.45220  0.83788  0.25348  1.0000
  H   H240      1.0  0.38608  0.86338  0.30688  1.0000
  H   H241      1.0  0.42187  0.87443  0.32117  1.0000
  Fe  Fe26      1.0  0.32530  0.83005  0.99812  1.0000
  C   C200      1.0  0.42657  0.50891  0.46717  1.0000
  H   H242      1.0  0.50777  0.97164  0.06405  1.0000
  C   C201      1.0  0.63548  0.71346  0.38165  1.0000
  Fe  Fe27      1.0  0.54998  0.66991  0.46288  1.0000
  H   H243      1.0  0.46035  0.55725  0.46794  1.0000
  C   C202      1.0  0.47789  0.49331  0.46389  1.0000
  H   H244      1.0  0.47110  0.93544  0.14399  1.0000
  H   H245      1.0  0.40937  0.53226  0.46864  1.0000
  C   C203      1.0  0.45622  0.60056  0.99955  1.0000
  C   C204      1.0  0.48675  0.95367  0.12766  1.0000
  Fe  Fe28      1.0  0.53566  0.57365  0.47571  1.0000
  H   H246      1.0  0.31011  0.93149  0.99361  1.0000
  H   H247      1.0  0.63842  0.75849  0.46336  1.0000
  H   H248      1.0  0.63524  0.67854  0.46655  1.0000
  H   H249      1.0  0.49992  0.97379  0.14615  1.0000
  H   H250      1.0  0.42870  0.97037  0.14813  1.0000
  C   C205      1.0  0.49233  0.93980  0.98952  1.0000
  H   H251      1.0  0.45131  0.66894  0.99206  1.0000
  C   C206      1.0  0.43968  0.55508  0.65698  1.0000
  Fe  Fe29      1.0  0.49934  0.48861  0.75653  1.0000
  H   H252      1.0  0.60230  0.95075  0.96740  1.0000
  C   C207      1.0  0.47782  0.56007  0.95040  1.0000
  S   S57       1.0  0.38270  0.70007  0.95636  1.0000
  S   S58       1.0  0.35626  0.82571  0.95223  1.0000
  H   H253      1.0  0.59462  0.61448  0.58414  1.0000
  S   S59       1.0  0.45635  0.52041  0.75303  1.0000
  H   H254      1.0  0.34938  0.92847  0.92916  1.0000
  Fe  Fe30      1.0  0.45953  0.53158  0.81189  1.0000
  S   S60       1.0  0.45029  0.60005  0.83282  1.0000
  H   H255      1.0  0.46312  0.53431  0.88451  1.0000
  H   H256      1.0  0.54913  0.49379  0.63911  1.0000
  S   S61       1.0  0.58046  0.67195  0.50998  1.0000
  Fe  Fe31      1.0  0.54703  0.63193  0.53814  1.0000
  S   S62       1.0  0.53469  0.64219  0.59573  1.0000
  S   S63       1.0  0.56643  0.56933  0.52162  1.0000
  H   H257      1.0  0.40047  0.54381  0.81863  1.0000
  N   N13       1.0  0.63435  0.58438  0.60052  1.0000
  C   C208      1.0  0.53008  0.53423  0.67899  1.0000
  C   C209      1.0  0.54113  0.52567  0.64515  1.0000
  C   C210      1.0  0.54190  0.55804  0.61913  1.0000
  C   C211      1.0  0.53248  0.59975  0.62700  1.0000
  C   C212      1.0  0.52149  0.60833  0.66086  1.0000
  C   C213      1.0  0.51987  0.57560  0.68658  1.0000
  S   S64       1.0  0.53173  0.49354  0.71176  1.0000
  H   H258      1.0  0.55007  0.55078  0.59318  1.0000
  H   H259      1.0  0.51418  0.64049  0.66727  1.0000
  H   H260      1.0  0.51158  0.58272  0.71262  1.0000
  C   C214      1.0  0.40188  0.67311  0.92183  1.0000
  C   C215      1.0  0.41963  0.69491  0.89800  1.0000
  C   C216      1.0  0.43410  0.67197  0.87104  1.0000
  C   C217      1.0  0.43114  0.62695  0.86740  1.0000
  C   C218      1.0  0.41330  0.60513  0.89112  1.0000
  C   C219      1.0  0.39888  0.62806  0.91812  1.0000
  H   H261      1.0  0.42221  0.72945  0.90033  1.0000
  H   H262      1.0  0.44779  0.68932  0.85290  1.0000
  H   H263      1.0  0.41049  0.57070  0.88870  1.0000
  H   H264      1.0  0.38517  0.61080  0.93627  1.0000
  Fe  Fe32      1.0  0.37622  0.76851  0.97971  1.0000
  C   C220      1.0  0.32574  0.93066  0.92449  1.0000
  H   H265      1.0  0.39104  0.65617  0.79131  1.0000
  H   H266      1.0  0.38947  0.50844  0.78307  1.0000
  H   H267      1.0  0.51404  0.54484  0.89249  1.0000
  H   H268      1.0  0.41209  0.59488  0.77008  1.0000
  C   C221      1.0  0.38187  0.53375  0.80179  1.0000
  C   C222      1.0  0.48714  0.48177  0.95740  1.0000
  S   S65       1.0  0.50453  0.50455  0.81442  1.0000
  H   H269      1.0  0.62191  0.65152  0.59711  1.0000
  H   H270      1.0  0.50224  0.48822  0.97976  1.0000
  C   C223      1.0  0.62554  0.58135  0.63814  1.0000
  C   C224      1.0  0.61829  0.62014  0.58361  1.0000
  H   H271      1.0  0.33063  0.56479  0.83693  1.0000
  H   H272      1.0  0.47315  0.66841  0.93274  1.0000
  C   C225      1.0  0.36695  0.67700  0.83529  1.0000
  H   H273      1.0  0.60190  0.53762  0.58560  1.0000
  C   C226      1.0  0.34098  0.59591  0.83544  1.0000
  C   C227      1.0  0.47149  0.63859  0.94747  1.0000
  H   H274      1.0  0.41655  0.50165  0.67932  1.0000
  H   H275      1.0  0.63664  0.51533  0.59422  1.0000
  H   H276      1.0  0.43299  0.57771  0.67714  1.0000
  C   C228      1.0  0.51425  0.52261  0.91549  1.0000
  H   H277      1.0  0.32226  0.93437  0.89551  1.0000
  H   H278      1.0  0.39681  0.55983  0.73753  1.0000
  C   C229      1.0  0.37445  0.64660  0.80957  1.0000
  C   C230      1.0  0.46374  0.50924  0.90546  1.0000
  H   H279      1.0  0.36600  0.51779  0.81927  1.0000
  H   H280      1.0  0.48782  0.60119  0.90513  1.0000
  C   C231      1.0  0.36163  0.60494  0.80888  1.0000
  C   C232      1.0  0.34386  0.55698  0.76263  1.0000
  H   H281      1.0  0.47988  0.50652  0.53736  1.0000
  H   H282      1.0  0.60224  0.57324  0.64068  1.0000
  H   H283      1.0  0.48168  0.55202  0.58465  1.0000
  H   H284      1.0  0.62856  0.61216  0.65270  1.0000
  C   C233      1.0  0.45772  0.56859  0.62989  1.0000
  N   N14       1.0  0.36966  0.57130  0.78284  1.0000
  H   H285      1.0  0.62956  0.54481  0.55373  1.0000
  C   C234      1.0  0.48025  0.59979  0.93210  1.0000
  C   C235      1.0  0.44154  0.95020  0.97533  1.0000
  H   H286      1.0  0.37762  0.70811  0.83604  1.0000
  N   N15       1.0  0.31239  0.96658  0.94447  1.0000
  C   C236      1.0  0.45920  0.63894  0.98094  1.0000
  H   H287      1.0  0.46491  0.60185  0.62893  1.0000
  C   C237      1.0  0.46729  0.53930  0.60440  1.0000
  H   H288      1.0  0.33350  0.58457  0.74880  1.0000
  N   N16       1.0  0.48569  0.51906  0.93282  1.0000
  H   H289      1.0  0.38357  0.61378  0.74114  1.0000
  H   H290      1.0  0.34946  0.53221  0.74234  1.0000
  C   C238      1.0  0.34693  0.66686  0.86123  1.0000
  C   C239      1.0  0.43054  0.51236  0.65823  1.0000
  C   C240      1.0  0.39143  0.58583  0.75680  1.0000
  C   C241      1.0  0.45878  0.49524  0.60530  1.0000
  H   H291      1.0  0.32740  0.54180  0.77979  1.0000
  C   C242      1.0  0.46422  0.92305  0.98523  1.0000
  H   H292      1.0  0.63804  0.55603  0.65225  1.0000
  H   H293      1.0  0.44181  0.50740  0.91705  1.0000
  C   C243      1.0  0.62539  0.54371  0.58274  1.0000
  C   C244      1.0  0.43974  0.48291  0.63269  1.0000
  H   H294      1.0  0.50948  0.49371  0.56675  1.0000
  H   H295      1.0  0.62484  0.62398  0.55549  1.0000
  C   C245      1.0  0.31961  0.96155  0.98253  1.0000
  H   H296      1.0  0.31873  0.61848  0.88191  1.0000
  H   H297      1.0  0.63293  0.95030  0.93844  1.0000
  S   S66       1.0  0.51476  0.63547  0.49326  1.0000
  H   H298      1.0  0.34218  0.68997  0.88199  1.0000
  C   C246      1.0  0.48984  0.48056  0.55355  1.0000
  C   C247      1.0  0.33391  0.62643  0.86125  1.0000
  H   H299      1.0  0.53098  0.53397  0.93453  1.0000
  Fe  Fe33      1.0  0.38657  0.86693  0.98504  1.0000
  H   H300      1.0  0.52145  0.49110  0.90439  1.0000
  S   S67       1.0  0.40621  0.93040  0.96647  1.0000
  H   H301      1.0  0.31665  0.89887  0.93241  1.0000
  C   C248      1.0  0.62603  0.95634  0.96618  1.0000
  C   C249      1.0  0.46538  0.56158  0.98470  1.0000
  H   H302      1.0  0.34325  0.95934  0.98727  1.0000
  H   H303      1.0  0.46027  0.88894  0.98855  1.0000
  Fe  Fe34      1.0  0.59788  0.60880  0.49025  1.0000
  H   H304      1.0  0.63615  0.93134  0.98312  1.0000
  S   S68       1.0  0.84396  0.18143  0.02700  1.0000
  H   H305      1.0  0.66936  0.09868  0.03738  1.0000
  Fe  Fe35      1.0  0.87804  0.13701  0.04837  1.0000
  S   S69       1.0  0.89725  0.14253  0.10390  1.0000
  S   S70       1.0  0.85460  0.07814  0.03032  1.0000
  S   S71       1.0  0.89336  0.99386  0.21982  1.0000
  C   C250      1.0  0.93054  0.43044  0.40776  1.0000
  Fe  Fe36      1.0  0.82154  0.12237  0.00565  1.0000
  C   C251      1.0  0.89699  0.09976  0.13489  1.0000
  C   C252      1.0  0.88120  0.06195  0.12906  1.0000
  C   C253      1.0  0.88047  0.02961  0.15513  1.0000
  C   C254      1.0  0.89598  0.03433  0.18697  1.0000
  C   C255      1.0  0.91235  0.07166  0.19241  1.0000
  C   C256      1.0  0.91258  0.10437  0.16664  1.0000
  H   H306      1.0  0.86923  0.05780  0.10469  1.0000
  H   H307      1.0  0.75567  0.21930  0.03360  1.0000
  H   H308      1.0  0.92420  0.07589  0.21690  1.0000
  H   H309      1.0  0.92476  0.13357  0.17145  1.0000
  C   C257      1.0  0.94870  0.39477  0.41113  1.0000
  C   C258      1.0  0.71556  0.10279  0.03008  1.0000
  H   H310      1.0  0.82556  0.20353  0.17052  1.0000
  H   H311      1.0  0.76361  0.13978  0.13371  1.0000
  H   H312      1.0  0.76485  0.16489  0.07831  1.0000
  H   H313      1.0  0.86775  0.00086  0.15065  1.0000
  C   C259      1.0  0.68651  0.11257  0.02193  1.0000
  C   C260      1.0  0.81603  0.12406  0.10992  1.0000
  C   C261      1.0  0.80104  0.19821  0.10356  1.0000
  C   C262      1.0  0.93786  0.35396  0.42187  1.0000
  H   H314      1.0  0.77276  0.18331  0.16317  1.0000
  H   H315      1.0  0.89792  0.32100  0.43562  1.0000
  C   C263      1.0  0.77810  0.19352  0.07883  1.0000
  C   C264      1.0  0.95842  0.03971  0.08950  1.0000
  C   C265      1.0  0.78121  0.15367  0.15025  1.0000
  H   H316      1.0  0.86715  0.38460  0.43071  1.0000
  S   S72       1.0  0.92323  0.00774  0.32100  1.0000
  C   C266      1.0  0.88988  0.38708  0.42475  1.0000
  H   H317      1.0  0.93716  0.03569  0.10044  1.0000
  H   H318      1.0  0.95152  0.29289  0.37411  1.0000
  N   N17       1.0  0.80731  0.16348  0.12930  1.0000
  H   H319      1.0  0.95422  0.10888  0.09056  1.0000
  H   H320      1.0  0.85155  0.17998  0.14079  1.0000
  H   H321      1.0  0.83516  0.14759  0.17351  1.0000
  C   C267      1.0  0.81212  0.26749  0.07526  1.0000
  H   H322      1.0  0.78597  0.28488  0.03036  1.0000
  H   H323      1.0  0.72034  0.08116  0.05170  1.0000
  C   C268      1.0  0.83081  0.17438  0.15466  1.0000
  H   H324      1.0  0.78572  0.12950  0.17129  1.0000
  C   C269      1.0  0.73844  0.12003  0.01019  1.0000
  C   C270      1.0  0.95248  0.29905  0.46387  1.0000
  C   C271      1.0  0.94882  0.28155  0.40181  1.0000
  C   C272      1.0  0.78968  0.26146  0.05112  1.0000
  H   H325      1.0  0.82141  0.09714  0.12817  1.0000
  H   H326      1.0  0.82580  0.29571  0.07306  1.0000
  C   C273      1.0  0.77264  0.22461  0.05299  1.0000
  C   C274      1.0  0.90131  0.42677  0.41501  1.0000
  H   H327      1.0  0.79898  0.11213  0.09157  1.0000
  C   C275      1.0  0.90776  0.35103  0.42780  1.0000
  C   C276      1.0  0.81786  0.23647  0.10117  1.0000
  H   H328      1.0  0.83615  0.24266  0.11816  1.0000
  H   H329      1.0  0.83543  0.13035  0.09363  1.0000
  Fe  Fe37      1.0  0.92716  0.98966  0.26348  1.0000
  S   S73       1.0  0.90575  0.14297  0.99998  1.0000
  H   H330      1.0  0.93944  0.46165  0.40096  1.0000
  S   S74       1.0  0.77462  0.10437  0.02084  1.0000
  H   H331      1.0  0.92619  0.27058  0.40475  1.0000
  N   N18       1.0  0.95656  0.31591  0.42750  1.0000
  H   H332      1.0  0.96808  0.27290  0.47028  1.0000
  H   H333      1.0  0.96263  0.25247  0.40540  1.0000
  Fe  Fe38      1.0  0.96818  0.03508  0.31694  1.0000
  H   H334      1.0  0.88763  0.45506  0.41397  1.0000
  S   S75       1.0  0.96992  0.02121  0.25835  1.0000
  C   C277      1.0  0.96810  0.08187  0.08428  1.0000
  H   H335      1.0  0.93082  0.28480  0.46785  1.0000
  H   H336      1.0  0.95541  0.32506  0.48389  1.0000
  C   C278      1.0  0.67978  0.13960  0.99346  1.0000
  H   H337      1.0  0.97128  0.40061  0.40641  1.0000
  C   C279      1.0  0.71460  0.98811  0.99128  1.0000
  C   C280      1.0  0.68486  0.98144  0.99327  1.0000
  H   H338      1.0  0.95183  0.27867  0.86762  1.0000
  C   C281      1.0  0.73174  0.14780  0.98222  1.0000
  C   C282      1.0  0.72562  0.02053  0.96986  1.0000
  C   C283      1.0  0.93634  0.00529  0.96827  1.0000
  N   N19       1.0  0.94850  0.47395  0.63460  1.0000
  S   S76       1.0  0.87146  0.25075  0.95097  1.0000
  S   S77       1.0  0.84560  0.12472  0.95377  1.0000
  S   S78       1.0  0.64345  0.15104  0.98006  1.0000
  Fe  Fe39      1.0  0.95057  0.43620  0.82165  1.0000
  S   S79       1.0  0.94724  0.36705  0.84453  1.0000
  S   S80       1.0  0.95078  0.44216  0.76195  1.0000
  Fe  Fe40      1.0  0.86965  0.18272  0.97621  1.0000
  H   H339      1.0  0.95342  0.40984  0.65558  1.0000
  H   H340      1.0  0.69795  0.17823  0.95178  1.0000
  H   H341      1.0  0.91868  0.43278  0.66238  1.0000
  C   C284      1.0  0.89312  0.28242  0.92145  1.0000
  C   C285      1.0  0.88555  0.32578  0.91511  1.0000
  C   C286      1.0  0.90173  0.35216  0.89197  1.0000
  C   C287      1.0  0.92584  0.33560  0.87452  1.0000
  C   C288      1.0  0.93340  0.29223  0.88083  1.0000
  C   C289      1.0  0.91729  0.26591  0.90408  1.0000
  H   H342      1.0  0.86696  0.33911  0.92825  1.0000
  H   H343      1.0  0.89546  0.38526  0.88760  1.0000
  C   C290      1.0  0.95819  0.03462  0.97697  1.0000
  H   H344      1.0  0.92348  0.23277  0.90844  1.0000
  C   C291      1.0  0.95986  0.43356  0.49421  1.0000
  H   H345      1.0  0.74894  0.16133  0.96656  1.0000
  H   H346      1.0  0.92805  0.41426  0.61913  1.0000
  C   C292      1.0  0.70698  0.04618  0.95015  1.0000
  H   H347      1.0  0.95308  0.06840  0.98009  1.0000
  H   H348      1.0  0.64636  0.27613  0.91173  1.0000
  C   C293      1.0  0.93673  0.43069  0.64315  1.0000
  S   S81       1.0  0.90000  0.02171  0.96181  1.0000
  C   C294      1.0  0.70268  0.15730  0.97387  1.0000
  Fe  Fe41      1.0  0.88057  0.08530  0.98083  1.0000
  H   H349      1.0  0.66412  0.06233  0.93714  1.0000
  C   C295      1.0  0.93141  0.44847  0.49883  1.0000
  H   H350      1.0  0.74865  0.02651  0.96911  1.0000
  H   H351      1.0  0.71571  0.07199  0.93414  1.0000
  C   C296      1.0  0.66517  0.00753  0.97403  1.0000
  H   H352      1.0  0.91567  0.42781  0.51120  1.0000
  H   H353      1.0  0.64439  0.24122  0.87377  1.0000
  C   C297      1.0  0.67718  0.04014  0.95219  1.0000
  H   H354      1.0  0.64899  0.21950  0.91761  1.0000
  H   H355      1.0  0.96590  0.40186  0.50330  1.0000
  C   C298      1.0  0.97288  0.47277  0.60958  1.0000
  S   S82       1.0  0.94521  0.92378  0.27474  1.0000
  Fe  Fe42      1.0  0.94467  0.94336  0.33224  1.0000
  S   S83       1.0  0.92518  0.90430  0.37844  1.0000
  H   H356      1.0  0.81306  0.90202  0.29437  1.0000
  S   S84       1.0  0.84455  0.61729  0.45747  1.0000
  S   S85       1.0  0.89827  0.70872  0.42454  1.0000
  C   C299      1.0  0.96013  0.95049  0.12254  1.0000
  C   C300      1.0  0.67553  0.70789  0.42306  1.0000
  H   H357      1.0  0.92800  0.92129  0.06568  1.0000
  C   C301      1.0  0.69423  0.73833  0.43962  1.0000
  C   C302      1.0  0.87849  0.85906  0.27389  1.0000
  H   H358      1.0  0.91882  0.97487  0.07816  1.0000
  H   H359      1.0  0.87571  0.90419  0.22972  1.0000
  N   N20       1.0  0.85759  0.88229  0.29644  1.0000
  H   H360      1.0  0.88940  0.80656  0.31058  1.0000
  H   H361      1.0  0.73754  0.75292  0.45715  1.0000
  H   H362      1.0  0.91092  0.86791  0.19275  1.0000
  C   C303      1.0  0.68824  0.66919  0.41053  1.0000
  H   H363      1.0  0.92434  0.77222  0.27271  1.0000
  C   C304      1.0  0.91872  0.84952  0.39110  1.0000
  C   C305      1.0  0.92738  0.81438  0.37047  1.0000
  C   C306      1.0  0.92070  0.77181  0.38103  1.0000
  C   C307      1.0  0.90534  0.76350  0.41236  1.0000
  C   C308      1.0  0.89688  0.79863  0.43314  1.0000
  C   C309      1.0  0.90350  0.84120  0.42253  1.0000
  H   H364      1.0  0.93920  0.81999  0.34635  1.0000
  H   H365      1.0  0.92758  0.74501  0.36480  1.0000
  H   H366      1.0  0.88505  0.79306  0.45726  1.0000
  H   H367      1.0  0.89658  0.86800  0.43874  1.0000
  N   N21       1.0  0.64408  0.71468  0.41950  1.0000
  H   H368      1.0  0.93560  0.80204  0.21371  1.0000
  C   C310      1.0  0.86892  0.92587  0.30471  1.0000
  H   H369      1.0  0.93727  0.54692  0.46042  1.0000
  H   H370      1.0  0.82145  0.85472  0.26870  1.0000
  H   H371      1.0  0.93773  0.96562  0.03776  1.0000
  Fe  Fe43      1.0  0.87688  0.67014  0.46983  1.0000
  C   C311      1.0  0.73539  0.69171  0.43098  1.0000
  H   H372      1.0  0.87161  0.85846  0.34724  1.0000
  C   C312      1.0  0.72370  0.73008  0.44346  1.0000
  H   H373      1.0  0.87206  0.94578  0.28063  1.0000
  H   H374      1.0  0.83151  0.90748  0.25357  1.0000
  H   H375      1.0  0.95212  0.91713  0.12707  1.0000
  H   H376      1.0  0.75805  0.68482  0.43522  1.0000
  C   C313      1.0  0.91962  0.81752  0.23019  1.0000
  C   C314      1.0  0.71770  0.66134  0.41454  1.0000
  C   C315      1.0  0.88535  0.87495  0.23975  1.0000
  C   C316      1.0  0.94350  0.51561  0.47033  1.0000
  H   H377      1.0  0.89012  0.92371  0.31840  1.0000
  C   C317      1.0  0.85180  0.86045  0.33062  1.0000
  C   C318      1.0  0.89301  0.82107  0.28506  1.0000
  H   H378      1.0  0.70120  0.55190  0.47168  1.0000
  H   H379      1.0  0.64726  0.73831  0.36624  1.0000
  C   C319      1.0  0.96540  0.75442  0.47403  1.0000
  H   H380      1.0  0.72676  0.63091  0.40594  1.0000
  C   C320      1.0  0.90562  0.85446  0.21834  1.0000
  H   H381      1.0  0.83589  0.87844  0.34686  1.0000
  C   C321      1.0  0.91327  0.80083  0.26343  1.0000
  C   C322      1.0  0.82972  0.88675  0.27742  1.0000
  H   H382      1.0  0.84311  0.82735  0.32655  1.0000
  H   H383      1.0  0.67534  0.64409  0.39844  1.0000
  H   H384      1.0  0.64405  0.78426  0.42084  1.0000
  H   H385      1.0  0.68661  0.76836  0.45047  1.0000
  H   H386      1.0  0.85432  0.94427  0.32242  1.0000
  H   H387      1.0  0.75123  0.57811  0.48191  1.0000
  C   C323      1.0  0.92298  0.48945  0.48668  1.0000
  C   C324      1.0  0.93600  0.95511  0.06583  1.0000
  S   S86       1.0  0.64524  0.58680  0.48636  1.0000
  N   N22       1.0  0.96417  0.95933  0.08435  1.0000
  C   C325      1.0  0.70466  0.58305  0.48391  1.0000
  H   H388      1.0  0.95899  0.78898  0.47273  1.0000
  H   H389      1.0  0.95270  0.73800  0.45289  1.0000
  H   H390      1.0  0.63971  0.68160  0.36926  1.0000
  H   H391      1.0  0.94435  0.97282  0.13490  1.0000
  H   H392      1.0  0.67739  0.95608  0.01044  1.0000
  C   C326      1.0  0.97171  0.50026  0.46491  1.0000
  H   H393      1.0  0.72928  0.96851  0.00676  1.0000
  S   S87       1.0  0.88612  0.50484  0.48885  1.0000
  Fe  Fe44      1.0  0.87837  0.64435  0.54932  1.0000
  S   S88       1.0  0.84563  0.59207  0.54203  1.0000
  S   S89       1.0  0.90381  0.65527  0.60048  1.0000
  C   C327      1.0  0.94354  0.96155  0.96395  1.0000
  Fe  Fe45      1.0  0.82139  0.63879  0.50703  1.0000
  Fe  Fe46      1.0  0.92984  0.50687  0.76868  1.0000
  S   S90       1.0  0.89316  0.52840  0.73255  1.0000
  C   C328      1.0  0.92842  0.73989  0.51634  1.0000
  C   C329      1.0  0.90150  0.61779  0.63580  1.0000
  C   C330      1.0  0.92394  0.61546  0.66090  1.0000
  C   C331      1.0  0.92190  0.58795  0.69044  1.0000
  C   C332      1.0  0.89725  0.56271  0.69536  1.0000
  C   C333      1.0  0.87487  0.56504  0.67025  1.0000
  C   C334      1.0  0.87710  0.59201  0.64045  1.0000
  H   H394      1.0  0.94278  0.63559  0.65781  1.0000
  H   H395      1.0  0.93914  0.58700  0.70976  1.0000
  H   H396      1.0  0.85567  0.54580  0.67383  1.0000
  H   H397      1.0  0.85953  0.59372  0.62161  1.0000
  C   C335      1.0  0.91127  0.70721  0.71707  1.0000
  H   H398      1.0  0.92233  0.72787  0.54300  1.0000
  C   C336      1.0  0.87968  0.66648  0.82967  1.0000
  C   C337      1.0  0.92474  0.49973  0.61904  1.0000
  C   C338      1.0  0.96778  0.68933  0.51198  1.0000
  H   H399      1.0  0.92604  0.72840  0.70343  1.0000
  S   S91       1.0  0.85299  0.69337  0.51793  1.0000
  H   H400      1.0  0.94052  0.49358  0.68855  1.0000
  C   C339      1.0  0.70711  0.63956  0.61233  1.0000
  H   H401      1.0  0.96986  0.75294  0.56351  1.0000
  C   C340      1.0  0.88674  0.69237  0.69948  1.0000
  S   S92       1.0  0.90485  0.62566  0.50226  1.0000
  H   H402      1.0  0.93134  0.70398  0.82340  1.0000
  H   H403      1.0  0.88377  0.58823  0.80176  1.0000
  C   C341      1.0  0.66567  0.59304  0.59821  1.0000
  C   C342      1.0  0.95789  0.49415  0.66839  1.0000
  C   C343      1.0  0.71422  0.57587  0.57690  1.0000
  H   H404      1.0  0.72838  0.55563  0.56134  1.0000
  H   H405      1.0  0.74793  0.62056  0.59052  1.0000
  H   H406      1.0  0.71767  0.69389  0.52803  1.0000
  C   C344      1.0  0.86802  0.66424  0.71643  1.0000
  C   C345      1.0  0.68486  0.56623  0.57892  1.0000
  S   S93       1.0  0.97101  0.54416  0.77226  1.0000
  C   C346      1.0  0.93088  0.66817  0.82240  1.0000
  C   C347      1.0  0.72531  0.61252  0.59338  1.0000
  C   C348      1.0  0.87363  0.65104  0.75112  1.0000
  H   H407      1.0  0.90526  0.49927  0.63604  1.0000
  H   H408      1.0  0.96415  0.52843  0.66526  1.0000
  H   H409      1.0  0.93397  0.65719  0.85022  1.0000
  H   H410      1.0  0.85874  0.62848  0.76280  1.0000
  H   H411      1.0  0.84949  0.65160  0.70219  1.0000
  H   H412      1.0  0.87770  0.70221  0.82886  1.0000
  H   H413      1.0  0.91119  0.59196  0.83490  1.0000
  H   H414      1.0  0.67769  0.53826  0.56427  1.0000
  N   N23       1.0  0.90354  0.65153  0.80686  1.0000
  S   S94       1.0  0.77363  0.65863  0.51390  1.0000
  H   H415      1.0  0.66770  0.66768  0.51807  1.0000
  H   H416      1.0  0.85860  0.65261  0.82143  1.0000
  C   C349      1.0  0.89832  0.66572  0.76998  1.0000
  C   C350      1.0  0.91713  0.69421  0.75181  1.0000
  C   C351      1.0  0.90472  0.60381  0.80819  1.0000
  C   C352      1.0  0.67775  0.63005  0.61485  1.0000
  Fe  Fe47      1.0  0.96837  0.53300  0.83108  1.0000
  H   H417      1.0  0.66445  0.65234  0.62941  1.0000
  H   H418      1.0  0.93668  0.70655  0.76364  1.0000
  S   S95       1.0  0.92549  0.49801  0.82770  1.0000
  H   H419      1.0  0.71581  0.66843  0.62460  1.0000
  H   H420      1.0  0.94996  0.65619  0.80761  1.0000
  H   H421      1.0  0.88267  0.70160  0.67223  1.0000
  H   H422      1.0  0.92052  0.59123  0.78883  1.0000
  Fe  Fe48      1.0  0.87151  0.57498  0.49363  1.0000
  C   C353      1.0  0.73315  0.59781  0.48971  1.0000
  C   C354      1.0  0.73816  0.63789  0.50570  1.0000
  H   H423      1.0  0.93064  0.53418  0.61569  1.0000
  H   H424      1.0  0.91554  0.72118  0.49671  1.0000
  H   H425      1.0  0.88315  0.65687  0.85778  1.0000
  C   C355      1.0  0.68567  0.64816  0.50977  1.0000
  C   C356      1.0  0.71416  0.66290  0.51557  1.0000
  S   S96       1.0  0.96896  0.58704  0.87325  1.0000
  H   H426      1.0  0.92686  0.93864  0.95696  1.0000
  C   C357      1.0  0.68068  0.60802  0.49384  1.0000
  H   H427      1.0  0.92121  0.77400  0.51453  1.0000
  C   C358      1.0  0.96531  0.66732  0.54471  1.0000
  N   N24       1.0  0.95965  0.73538  0.50934  1.0000
  H   H428      1.0  0.91835  0.48714  0.59246  1.0000
  H   H429      1.0  0.96772  0.60706  0.57251  1.0000
  H   H430      1.0  0.95755  0.68351  0.56812  1.0000
  C   C359      1.0  0.97116  0.62330  0.54755  1.0000
  H   H431      1.0  0.97164  0.79631  0.53302  1.0000
  H   H432      1.0  0.96308  0.64803  0.93016  1.0000
  C   C360      1.0  0.97212  0.94718  0.96860  1.0000
